MODEL 1
REMARK VINA RESULT:     -12.3      0.000      0.000
REMARK  Name = 66571548
REMARK  8 active torsions:
REMARK  status: ('A' for Active; 'I' for Inactive)
REMARK    1  A    between atoms: C_2  and  C_10
REMARK    2  A    between atoms: C_2  and  C_22
REMARK    3  A    between atoms: N_3  and  C_15
REMARK    4  A    between atoms: C_15  and  C_18
REMARK    5  A    between atoms: C_18  and  O_19
REMARK    6  A    between atoms: C_25  and  N_28
REMARK    7  A    between atoms: C_29  and  C_31
REMARK    8  A    between atoms: C_31  and  C_34
REMARK                            x       y       z     vdW  Elec       q    Type
REMARK                         _______ _______ _______ _____ _____    ______ ____
ROOT
ATOM      1  O   UNL     1      32.209 -22.401 -18.553  0.00  0.00    -0.286 OA
ATOM      2  C   UNL     1      33.338 -22.352 -18.020  0.00  0.00    +0.199 C 
ENDROOT
BRANCH   2  10
ATOM      3  N   UNL     1      34.694 -23.810 -15.010  0.00  0.00    -0.261 N 
ATOM      4  N   UNL     1      32.857 -24.587 -13.654  0.00  0.00    -0.322 NA
ATOM      5  N   UNL     1      30.685 -24.180 -14.674  0.00  0.00    -0.170 NA
ATOM      6  N   UNL     1      30.876 -25.225 -12.589  0.00  0.00    -0.293 N 
ATOM      7  C   UNL     1      33.362 -24.005 -14.755  0.00  0.00    +0.201 C 
ATOM      8  C   UNL     1      34.842 -23.187 -16.222  0.00  0.00    +0.071 C 
ATOM      9  C   UNL     1      32.643 -23.496 -15.830  0.00  0.00    +0.069 C 
ATOM     10  C   UNL     1      33.586 -22.981 -16.754  0.00  0.00    +0.059 C 
ATOM     11  C   UNL     1      31.254 -23.603 -15.759  0.00  0.00    +0.116 C 
ATOM     12  C   UNL     1      31.511 -24.629 -13.703  0.00  0.00    +0.143 C 
ATOM     13  H   UNL     1      31.417 -25.574 -11.844  0.00  0.00    +0.155 HD
ATOM     14  H   UNL     1      29.895 -25.289 -12.558  0.00  0.00    +0.155 HD
BRANCH   3  15
ATOM     15  C   UNL     1      35.856 -24.222 -14.086  0.00  0.00    +0.091 C 
ATOM     16  C   UNL     1      36.251 -25.713 -14.214  0.00  0.00    +0.023 C 
ATOM     17  C   UNL     1      37.109 -23.392 -14.451  0.00  0.00    +0.023 C 
BRANCH  15  18
ATOM     18  C   UNL     1      35.491 -23.945 -12.605  0.00  0.00    +0.155 C 
BRANCH  18  19
ATOM     19  O   UNL     1      35.174 -25.157 -11.929  0.00  0.00    -0.380 OA
ATOM     20  H   UNL     1      35.436 -25.086 -10.998  0.00  0.00    +0.211 HD
ENDBRANCH  18  19
ENDBRANCH  15  18
ENDBRANCH   3  15
ENDBRANCH   2  10
BRANCH   2  22
ATOM     21  N   UNL     1      36.710 -20.941 -18.998  0.00  0.00    -0.241 NA
ATOM     22  C   UNL     1      34.394 -21.601 -18.784  0.00  0.00    +0.059 C 
ATOM     23  C   UNL     1      34.077 -20.891 -19.938  0.00  0.00    +0.021 C 
ATOM     24  C   UNL     1      35.713 -21.594 -18.360  0.00  0.00    +0.102 C 
ATOM     25  C   UNL     1      35.076 -20.206 -20.622  0.00  0.00    +0.070 C 
ATOM     26  C   UNL     1      36.365 -20.262 -20.116  0.00  0.00    +0.113 C 
BRANCH  25  28
ATOM     27  O   UNL     1      36.756 -18.253 -22.163  0.00  0.00    -0.274 OA
ATOM     28  N   UNL     1      34.789 -19.486 -21.779  0.00  0.00    -0.282 N 
ATOM     29  C   UNL     1      35.613 -18.579 -22.468  0.00  0.00    +0.232 C 
ATOM     30  H   UNL     1      33.894 -19.630 -22.162  0.00  0.00    +0.155 HD
BRANCH  29  31
ATOM     31  C   UNL     1      34.905 -18.013 -23.690  0.00  0.00    +0.131 C 
BRANCH  31  34
ATOM     32 CL   UNL     1      33.383 -12.279 -23.252  0.00  0.00    -0.081 Cl
ATOM     33  N   UNL     1      33.887 -15.996 -24.592  0.00  0.00    -0.247 NA
ATOM     34  C   UNL     1      34.534 -16.560 -23.548  0.00  0.00    +0.068 C 
ATOM     35  C   UNL     1      34.863 -15.885 -22.384  0.00  0.00    +0.016 C 
ATOM     36  C   UNL     1      34.505 -14.545 -22.285  0.00  0.00    +0.014 C 
ATOM     37  C   UNL     1      33.555 -14.692 -24.460  0.00  0.00    +0.110 C 
ATOM     38  C   UNL     1      33.839 -13.929 -23.339  0.00  0.00    +0.077 C 
ENDBRANCH  31  34
ENDBRANCH  29  31
ENDBRANCH  25  28
ENDBRANCH   2  22
TORSDOF 8
ENDMDL
MODEL 2
REMARK VINA RESULT:     -12.0      1.388      2.875
REMARK  Name = 66571548
REMARK  8 active torsions:
REMARK  status: ('A' for Active; 'I' for Inactive)
REMARK    1  A    between atoms: C_2  and  C_10
REMARK    2  A    between atoms: C_2  and  C_22
REMARK    3  A    between atoms: N_3  and  C_15
REMARK    4  A    between atoms: C_15  and  C_18
REMARK    5  A    between atoms: C_18  and  O_19
REMARK    6  A    between atoms: C_25  and  N_28
REMARK    7  A    between atoms: C_29  and  C_31
REMARK    8  A    between atoms: C_31  and  C_34
REMARK                            x       y       z     vdW  Elec       q    Type
REMARK                         _______ _______ _______ _____ _____    ______ ____
ROOT
ATOM      1  O   UNL     1      33.815 -24.123 -19.361  0.00  0.00    -0.286 OA
ATOM      2  C   UNL     1      34.039 -23.210 -18.537  0.00  0.00    +0.199 C 
ENDROOT
BRANCH   2  10
ATOM      3  N   UNL     1      32.177 -23.438 -15.453  0.00  0.00    -0.261 N 
ATOM      4  N   UNL     1      33.750 -23.541 -13.628  0.00  0.00    -0.322 NA
ATOM      5  N   UNL     1      36.068 -23.462 -14.367  0.00  0.00    -0.170 NA
ATOM      6  N   UNL     1      35.516 -23.622 -12.098  0.00  0.00    -0.293 N 
ATOM      7  C   UNL     1      33.445 -23.457 -14.935  0.00  0.00    +0.201 C 
ATOM      8  C   UNL     1      32.243 -23.347 -16.820  0.00  0.00    +0.071 C 
ATOM      9  C   UNL     1      34.341 -23.375 -15.993  0.00  0.00    +0.069 C 
ATOM     10  C   UNL     1      33.573 -23.306 -17.183  0.00  0.00    +0.059 C 
ATOM     11  C   UNL     1      35.697 -23.379 -15.665  0.00  0.00    +0.116 C 
ATOM     12  C   UNL     1      35.085 -23.538 -13.442  0.00  0.00    +0.143 C 
ATOM     13  H   UNL     1      34.853 -23.679 -11.372  0.00  0.00    +0.155 HD
ATOM     14  H   UNL     1      36.477 -23.624 -11.888  0.00  0.00    +0.155 HD
BRANCH   3  15
ATOM     15  C   UNL     1      30.871 -23.506 -14.639  0.00  0.00    +0.091 C 
ATOM     16  C   UNL     1      29.679 -22.789 -15.319  0.00  0.00    +0.023 C 
ATOM     17  C   UNL     1      30.464 -24.987 -14.462  0.00  0.00    +0.023 C 
BRANCH  15  18
ATOM     18  C   UNL     1      31.077 -22.877 -13.237  0.00  0.00    +0.155 C 
BRANCH  18  19
ATOM     19  O   UNL     1      31.092 -23.884 -12.231  0.00  0.00    -0.380 OA
ATOM     20  H   UNL     1      31.296 -23.480 -11.373  0.00  0.00    +0.211 HD
ENDBRANCH  18  19
ENDBRANCH  15  18
ENDBRANCH   3  15
ENDBRANCH   2  10
BRANCH   2  22
ATOM     21  N   UNL     1      36.723 -20.561 -18.848  0.00  0.00    -0.241 NA
ATOM     22  C   UNL     1      34.814 -22.030 -19.056  0.00  0.00    +0.059 C 
ATOM     23  C   UNL     1      34.382 -21.323 -20.173  0.00  0.00    +0.021 C 
ATOM     24  C   UNL     1      35.980 -21.612 -18.435  0.00  0.00    +0.102 C 
ATOM     25  C   UNL     1      35.120 -20.235 -20.628  0.00  0.00    +0.070 C 
ATOM     26  C   UNL     1      36.273 -19.898 -19.937  0.00  0.00    +0.113 C 
BRANCH  25  28
ATOM     27  O   UNL     1      36.679 -18.419 -22.441  0.00  0.00    -0.274 OA
ATOM     28  N   UNL     1      34.712 -19.507 -21.744  0.00  0.00    -0.282 N 
ATOM     29  C   UNL     1      35.483 -18.667 -22.566  0.00  0.00    +0.232 C 
ATOM     30  H   UNL     1      33.762 -19.592 -21.987  0.00  0.00    +0.155 HD
BRANCH  29  31
ATOM     31  C   UNL     1      34.640 -18.064 -23.679  0.00  0.00    +0.131 C 
BRANCH  31  34
ATOM     32 CL   UNL     1      33.671 -12.216 -23.180  0.00  0.00    -0.081 Cl
ATOM     33  N   UNL     1      33.809 -15.952 -24.555  0.00  0.00    -0.247 NA
ATOM     34  C   UNL     1      34.409 -16.584 -23.522  0.00  0.00    +0.068 C 
ATOM     35  C   UNL     1      34.811 -15.953 -22.355  0.00  0.00    +0.016 C 
ATOM     36  C   UNL     1      34.583 -14.586 -22.242  0.00  0.00    +0.014 C 
ATOM     37  C   UNL     1      33.603 -14.624 -24.410  0.00  0.00    +0.110 C 
ATOM     38  C   UNL     1      33.969 -13.901 -23.285  0.00  0.00    +0.077 C 
ENDBRANCH  31  34
ENDBRANCH  29  31
ENDBRANCH  25  28
ENDBRANCH   2  22
TORSDOF 8
ENDMDL
MODEL 3
REMARK VINA RESULT:     -12.0      1.894      3.313
REMARK  Name = 66571548
REMARK  8 active torsions:
REMARK  status: ('A' for Active; 'I' for Inactive)
REMARK    1  A    between atoms: C_2  and  C_10
REMARK    2  A    between atoms: C_2  and  C_22
REMARK    3  A    between atoms: N_3  and  C_15
REMARK    4  A    between atoms: C_15  and  C_18
REMARK    5  A    between atoms: C_18  and  O_19
REMARK    6  A    between atoms: C_25  and  N_28
REMARK    7  A    between atoms: C_29  and  C_31
REMARK    8  A    between atoms: C_31  and  C_34
REMARK                            x       y       z     vdW  Elec       q    Type
REMARK                         _______ _______ _______ _____ _____    ______ ____
ROOT
ATOM      1  O   UNL     1      36.778 -22.290 -18.336  0.00  0.00    -0.286 OA
ATOM      2  C   UNL     1      35.584 -22.132 -18.002  0.00  0.00    +0.199 C 
ENDROOT
BRANCH   2  10
ATOM      3  N   UNL     1      33.694 -23.347 -15.179  0.00  0.00    -0.261 N 
ATOM      4  N   UNL     1      35.207 -23.631 -13.323  0.00  0.00    -0.322 NA
ATOM      5  N   UNL     1      37.503 -23.033 -13.870  0.00  0.00    -0.170 NA
ATOM      6  N   UNL     1      36.917 -23.795 -11.736  0.00  0.00    -0.293 N 
ATOM      7  C   UNL     1      34.932 -23.293 -14.595  0.00  0.00    +0.201 C 
ATOM      8  C   UNL     1      33.784 -22.933 -16.483  0.00  0.00    +0.071 C 
ATOM      9  C   UNL     1      35.834 -22.834 -15.546  0.00  0.00    +0.069 C 
ATOM     10  C   UNL     1      35.100 -22.608 -16.738  0.00  0.00    +0.059 C 
ATOM     11  C   UNL     1      37.162 -22.708 -15.139  0.00  0.00    +0.116 C 
ATOM     12  C   UNL     1      36.518 -23.468 -13.053  0.00  0.00    +0.143 C 
ATOM     13  H   UNL     1      36.251 -24.119 -11.087  0.00  0.00    +0.155 HD
ATOM     14  H   UNL     1      37.859 -23.700 -11.469  0.00  0.00    +0.155 HD
BRANCH   3  15
ATOM     15  C   UNL     1      32.392 -23.799 -14.488  0.00  0.00    +0.091 C 
ATOM     16  C   UNL     1      31.897 -22.818 -13.398  0.00  0.00    +0.023 C 
ATOM     17  C   UNL     1      31.269 -23.899 -15.547  0.00  0.00    +0.023 C 
BRANCH  15  18
ATOM     18  C   UNL     1      32.585 -25.191 -13.836  0.00  0.00    +0.155 C 
BRANCH  18  19
ATOM     19  O   UNL     1      32.799 -25.065 -12.434  0.00  0.00    -0.380 OA
ATOM     20  H   UNL     1      33.690 -25.381 -12.214  0.00  0.00    +0.211 HD
ENDBRANCH  18  19
ENDBRANCH  15  18
ENDBRANCH   3  15
ENDBRANCH   2  10
BRANCH   2  22
ATOM     21  N   UNL     1      32.517 -21.102 -19.965  0.00  0.00    -0.241 NA
ATOM     22  C   UNL     1      34.711 -21.422 -19.001  0.00  0.00    +0.059 C 
ATOM     23  C   UNL     1      35.237 -20.466 -19.863  0.00  0.00    +0.021 C 
ATOM     24  C   UNL     1      33.357 -21.702 -19.091  0.00  0.00    +0.102 C 
ATOM     25  C   UNL     1      34.404 -19.827 -20.776  0.00  0.00    +0.070 C 
ATOM     26  C   UNL     1      33.064 -20.178 -20.786  0.00  0.00    +0.113 C 
BRANCH  25  28
ATOM     27  O   UNL     1      33.779 -19.324 -23.669  0.00  0.00    -0.274 OA
ATOM     28  N   UNL     1      34.903 -18.867 -21.653  0.00  0.00    -0.282 N 
ATOM     29  C   UNL     1      34.577 -18.668 -23.006  0.00  0.00    +0.232 C 
ATOM     30  H   UNL     1      35.569 -18.248 -21.276  0.00  0.00    +0.155 HD
BRANCH  29  31
ATOM     31  C   UNL     1      35.357 -17.502 -23.594  0.00  0.00    +0.131 C 
BRANCH  31  34
ATOM     32 CL   UNL     1      32.821 -12.225 -22.541  0.00  0.00    -0.081 Cl
ATOM     33  N   UNL     1      34.838 -15.635 -22.123  0.00  0.00    -0.247 NA
ATOM     34  C   UNL     1      34.703 -16.166 -23.359  0.00  0.00    +0.068 C 
ATOM     35  C   UNL     1      34.011 -15.557 -24.394  0.00  0.00    +0.016 C 
ATOM     36  C   UNL     1      33.420 -14.323 -24.144  0.00  0.00    +0.014 C 
ATOM     37  C   UNL     1      34.250 -14.435 -21.917  0.00  0.00    +0.110 C 
ATOM     38  C   UNL     1      33.536 -13.745 -22.885  0.00  0.00    +0.077 C 
ENDBRANCH  31  34
ENDBRANCH  29  31
ENDBRANCH  25  28
ENDBRANCH   2  22
TORSDOF 8
ENDMDL
MODEL 4
REMARK VINA RESULT:     -11.1      8.769     16.885
REMARK  Name = 66571548
REMARK  8 active torsions:
REMARK  status: ('A' for Active; 'I' for Inactive)
REMARK    1  A    between atoms: C_2  and  C_10
REMARK    2  A    between atoms: C_2  and  C_22
REMARK    3  A    between atoms: N_3  and  C_15
REMARK    4  A    between atoms: C_15  and  C_18
REMARK    5  A    between atoms: C_18  and  O_19
REMARK    6  A    between atoms: C_25  and  N_28
REMARK    7  A    between atoms: C_29  and  C_31
REMARK    8  A    between atoms: C_31  and  C_34
REMARK                            x       y       z     vdW  Elec       q    Type
REMARK                         _______ _______ _______ _____ _____    ______ ____
ROOT
ATOM      1  O   UNL     1      35.620  -7.071 -22.499  0.00  0.00    -0.286 OA
ATOM      2  C   UNL     1      34.556  -7.136 -23.152  0.00  0.00    +0.199 C 
ENDROOT
BRANCH   2  10
ATOM      3  N   UNL     1      34.194  -4.648 -25.740  0.00  0.00    -0.261 N 
ATOM      4  N   UNL     1      32.184  -3.389 -25.302  0.00  0.00    -0.322 NA
ATOM      5  N   UNL     1      31.015  -4.134 -23.300  0.00  0.00    -0.170 NA
ATOM      6  N   UNL     1      30.199  -2.369 -24.603  0.00  0.00    -0.293 N 
ATOM      7  C   UNL     1      33.072  -4.356 -25.011  0.00  0.00    +0.201 C 
ATOM      8  C   UNL     1      34.863  -5.690 -25.154  0.00  0.00    +0.071 C 
ATOM      9  C   UNL     1      33.024  -5.230 -23.932  0.00  0.00    +0.069 C 
ATOM     10  C   UNL     1      34.161  -6.072 -24.029  0.00  0.00    +0.059 C 
ATOM     11  C   UNL     1      31.944  -5.089 -23.061  0.00  0.00    +0.116 C 
ATOM     12  C   UNL     1      31.191  -3.355 -24.391  0.00  0.00    +0.143 C 
ATOM     13  H   UNL     1      30.264  -1.766 -25.379  0.00  0.00    +0.155 HD
ATOM     14  H   UNL     1      29.444  -2.287 -23.977  0.00  0.00    +0.155 HD
BRANCH   3  15
ATOM     15  C   UNL     1      34.646  -3.924 -27.023  0.00  0.00    +0.091 C 
ATOM     16  C   UNL     1      34.866  -2.404 -26.833  0.00  0.00    +0.023 C 
ATOM     17  C   UNL     1      35.995  -4.519 -27.488  0.00  0.00    +0.023 C 
BRANCH  15  18
ATOM     18  C   UNL     1      33.601  -4.124 -28.150  0.00  0.00    +0.155 C 
BRANCH  18  19
ATOM     19  O   UNL     1      32.809  -2.952 -28.316  0.00  0.00    -0.380 OA
ATOM     20  H   UNL     1      32.599  -2.834 -29.255  0.00  0.00    +0.211 HD
ENDBRANCH  18  19
ENDBRANCH  15  18
ENDBRANCH   3  15
ENDBRANCH   2  10
BRANCH   2  22
ATOM     21  N   UNL     1      31.917  -9.499 -21.820  0.00  0.00    -0.241 NA
ATOM     22  C   UNL     1      33.738  -8.383 -22.954  0.00  0.00    +0.059 C 
ATOM     23  C   UNL     1      34.010  -9.542 -23.673  0.00  0.00    +0.021 C 
ATOM     24  C   UNL     1      32.691  -8.413 -22.047  0.00  0.00    +0.102 C 
ATOM     25  C   UNL     1      33.237 -10.679 -23.467  0.00  0.00    +0.070 C 
ATOM     26  C   UNL     1      32.211 -10.607 -22.538  0.00  0.00    +0.113 C 
BRANCH  25  28
ATOM     27  O   UNL     1      32.629 -13.534 -22.764  0.00  0.00    -0.274 OA
ATOM     28  N   UNL     1      33.486 -11.854 -24.172  0.00  0.00    -0.282 N 
ATOM     29  C   UNL     1      33.181 -13.175 -23.800  0.00  0.00    +0.232 C 
ATOM     30  H   UNL     1      33.934 -11.746 -25.041  0.00  0.00    +0.155 HD
BRANCH  29  31
ATOM     31  C   UNL     1      33.628 -14.164 -24.866  0.00  0.00    +0.131 C 
BRANCH  31  34
ATOM     32 CL   UNL     1      35.294 -19.470 -22.756  0.00  0.00    -0.081 Cl
ATOM     33  N   UNL     1      33.673 -16.593 -24.984  0.00  0.00    -0.247 NA
ATOM     34  C   UNL     1      34.066 -15.492 -24.306  0.00  0.00    +0.068 C 
ATOM     35  C   UNL     1      34.831 -15.523 -23.151  0.00  0.00    +0.016 C 
ATOM     36  C   UNL     1      35.219 -16.765 -22.661  0.00  0.00    +0.014 C 
ATOM     37  C   UNL     1      34.069 -17.783 -24.478  0.00  0.00    +0.110 C 
ATOM     38  C   UNL     1      34.834 -17.922 -23.330  0.00  0.00    +0.077 C 
ENDBRANCH  31  34
ENDBRANCH  29  31
ENDBRANCH  25  28
ENDBRANCH   2  22
TORSDOF 8
ENDMDL
MODEL 5
REMARK VINA RESULT:     -11.1      2.129      2.884
REMARK  Name = 66571548
REMARK  8 active torsions:
REMARK  status: ('A' for Active; 'I' for Inactive)
REMARK    1  A    between atoms: C_2  and  C_10
REMARK    2  A    between atoms: C_2  and  C_22
REMARK    3  A    between atoms: N_3  and  C_15
REMARK    4  A    between atoms: C_15  and  C_18
REMARK    5  A    between atoms: C_18  and  O_19
REMARK    6  A    between atoms: C_25  and  N_28
REMARK    7  A    between atoms: C_29  and  C_31
REMARK    8  A    between atoms: C_31  and  C_34
REMARK                            x       y       z     vdW  Elec       q    Type
REMARK                         _______ _______ _______ _____ _____    ______ ____
ROOT
ATOM      1  O   UNL     1      37.981 -20.697 -16.611  0.00  0.00    -0.286 OA
ATOM      2  C   UNL     1      37.128 -21.602 -16.744  0.00  0.00    +0.199 C 
ENDROOT
BRANCH   2  10
ATOM      3  N   UNL     1      37.594 -24.351 -14.453  0.00  0.00    -0.261 N 
ATOM      4  N   UNL     1      35.469 -24.850 -13.430  0.00  0.00    -0.322 NA
ATOM      5  N   UNL     1      33.674 -23.403 -14.215  0.00  0.00    -0.170 NA
ATOM      6  N   UNL     1      33.284 -25.081 -12.630  0.00  0.00    -0.293 N 
ATOM      7  C   UNL     1      36.253 -24.147 -14.265  0.00  0.00    +0.201 C 
ATOM      8  C   UNL     1      38.070 -23.452 -15.372  0.00  0.00    +0.071 C 
ATOM      9  C   UNL     1      35.862 -23.095 -15.084  0.00  0.00    +0.069 C 
ATOM     10  C   UNL     1      37.017 -22.661 -15.782  0.00  0.00    +0.059 C 
ATOM     11  C   UNL     1      34.516 -22.733 -15.036  0.00  0.00    +0.116 C 
ATOM     12  C   UNL     1      34.197 -24.406 -13.473  0.00  0.00    +0.143 C 
ATOM     13  H   UNL     1      33.595 -25.822 -12.061  0.00  0.00    +0.155 HD
ATOM     14  H   UNL     1      32.338 -24.809 -12.610  0.00  0.00    +0.155 HD
BRANCH   3  15
ATOM     15  C   UNL     1      38.449 -25.422 -13.748  0.00  0.00    +0.091 C 
ATOM     16  C   UNL     1      39.953 -25.348 -14.104  0.00  0.00    +0.023 C 
ATOM     17  C   UNL     1      38.340 -25.226 -12.218  0.00  0.00    +0.023 C 
BRANCH  15  18
ATOM     18  C   UNL     1      37.936 -26.840 -14.104  0.00  0.00    +0.155 C 
BRANCH  18  19
ATOM     19  O   UNL     1      37.315 -26.843 -15.386  0.00  0.00    -0.380 OA
ATOM     20  H   UNL     1      37.501 -27.684 -15.833  0.00  0.00    +0.211 HD
ENDBRANCH  18  19
ENDBRANCH  15  18
ENDBRANCH   3  15
ENDBRANCH   2  10
BRANCH   2  22
ATOM     21  N   UNL     1      34.302 -22.276 -19.168  0.00  0.00    -0.241 NA
ATOM     22  C   UNL     1      36.248 -21.502 -17.960  0.00  0.00    +0.059 C 
ATOM     23  C   UNL     1      36.527 -20.594 -18.976  0.00  0.00    +0.021 C 
ATOM     24  C   UNL     1      35.134 -22.313 -18.103  0.00  0.00    +0.102 C 
ATOM     25  C   UNL     1      35.695 -20.527 -20.088  0.00  0.00    +0.070 C 
ATOM     26  C   UNL     1      34.605 -21.381 -20.136  0.00  0.00    +0.113 C 
BRANCH  25  28
ATOM     27  O   UNL     1      33.907 -19.534 -22.287  0.00  0.00    -0.274 OA
ATOM     28  N   UNL     1      35.950 -19.629 -21.122  0.00  0.00    -0.282 N 
ATOM     29  C   UNL     1      35.076 -19.192 -22.133  0.00  0.00    +0.232 C 
ATOM     30  H   UNL     1      36.859 -19.252 -21.148  0.00  0.00    +0.155 HD
BRANCH  29  31
ATOM     31  C   UNL     1      35.762 -18.204 -23.063  0.00  0.00    +0.131 C 
BRANCH  31  34
ATOM     32 CL   UNL     1      33.035 -12.920 -23.259  0.00  0.00    -0.081 Cl
ATOM     33  N   UNL     1      35.096 -16.102 -22.035  0.00  0.00    -0.247 NA
ATOM     34  C   UNL     1      35.063 -16.872 -23.145  0.00  0.00    +0.068 C 
ATOM     35  C   UNL     1      34.432 -16.507 -24.324  0.00  0.00    +0.016 C 
ATOM     36  C   UNL     1      33.796 -15.271 -24.366  0.00  0.00    +0.014 C 
ATOM     37  C   UNL     1      34.468 -14.908 -22.113  0.00  0.00    +0.110 C 
ATOM     38  C   UNL     1      33.809 -14.451 -23.243  0.00  0.00    +0.077 C 
ENDBRANCH  31  34
ENDBRANCH  29  31
ENDBRANCH  25  28
ENDBRANCH   2  22
TORSDOF 8
ENDMDL
MODEL 6
REMARK VINA RESULT:     -11.0      1.678      2.190
REMARK  Name = 66571548
REMARK  8 active torsions:
REMARK  status: ('A' for Active; 'I' for Inactive)
REMARK    1  A    between atoms: C_2  and  C_10
REMARK    2  A    between atoms: C_2  and  C_22
REMARK    3  A    between atoms: N_3  and  C_15
REMARK    4  A    between atoms: C_15  and  C_18
REMARK    5  A    between atoms: C_18  and  O_19
REMARK    6  A    between atoms: C_25  and  N_28
REMARK    7  A    between atoms: C_29  and  C_31
REMARK    8  A    between atoms: C_31  and  C_34
REMARK                            x       y       z     vdW  Elec       q    Type
REMARK                         _______ _______ _______ _____ _____    ______ ____
ROOT
ATOM      1  O   UNL     1      37.050 -22.367 -17.548  0.00  0.00    -0.286 OA
ATOM      2  C   UNL     1      35.850 -22.416 -17.202  0.00  0.00    +0.199 C 
ENDROOT
BRANCH   2  10
ATOM      3  N   UNL     1      35.625 -23.695 -13.835  0.00  0.00    -0.261 N 
ATOM      4  N   UNL     1      33.339 -24.343 -13.424  0.00  0.00    -0.322 NA
ATOM      5  N   UNL     1      31.886 -23.963 -15.340  0.00  0.00    -0.170 NA
ATOM      6  N   UNL     1      31.063 -24.870 -13.345  0.00  0.00    -0.293 N 
ATOM      7  C   UNL     1      34.315 -23.846 -14.204  0.00  0.00    +0.201 C 
ATOM      8  C   UNL     1      36.336 -23.157 -14.877  0.00  0.00    +0.071 C 
ATOM      9  C   UNL     1      34.185 -23.397 -15.512  0.00  0.00    +0.069 C 
ATOM     10  C   UNL     1      35.468 -22.963 -15.931  0.00  0.00    +0.059 C 
ATOM     11  C   UNL     1      32.911 -23.471 -16.074  0.00  0.00    +0.116 C 
ATOM     12  C   UNL     1      32.161 -24.362 -14.077  0.00  0.00    +0.143 C 
ATOM     13  H   UNL     1      31.190 -25.178 -12.419  0.00  0.00    +0.155 HD
ATOM     14  H   UNL     1      30.171 -24.913 -13.760  0.00  0.00    +0.155 HD
BRANCH   3  15
ATOM     15  C   UNL     1      36.223 -24.067 -12.464  0.00  0.00    +0.091 C 
ATOM     16  C   UNL     1      35.198 -24.008 -11.305  0.00  0.00    +0.023 C 
ATOM     17  C   UNL     1      36.752 -25.519 -12.523  0.00  0.00    +0.023 C 
BRANCH  15  18
ATOM     18  C   UNL     1      37.401 -23.123 -12.116  0.00  0.00    +0.155 C 
BRANCH  18  19
ATOM     19  O   UNL     1      37.707 -23.190 -10.727  0.00  0.00    -0.380 OA
ATOM     20  H   UNL     1      36.886 -23.137 -10.213  0.00  0.00    +0.211 HD
ENDBRANCH  18  19
ENDBRANCH  15  18
ENDBRANCH   3  15
ENDBRANCH   2  10
BRANCH   2  22
ATOM     21  N   UNL     1      32.554 -21.638 -18.892  0.00  0.00    -0.241 NA
ATOM     22  C   UNL     1      34.857 -21.871 -18.192  0.00  0.00    +0.059 C 
ATOM     23  C   UNL     1      35.274 -21.127 -19.291  0.00  0.00    +0.021 C 
ATOM     24  C   UNL     1      33.498 -22.097 -18.040  0.00  0.00    +0.102 C 
ATOM     25  C   UNL     1      34.332 -20.638 -20.190  0.00  0.00    +0.070 C 
ATOM     26  C   UNL     1      32.997 -20.919 -19.948  0.00  0.00    +0.113 C 
BRANCH  25  28
ATOM     27  O   UNL     1      35.779 -18.013 -20.357  0.00  0.00    -0.274 OA
ATOM     28  N   UNL     1      34.719 -19.891 -21.300  0.00  0.00    -0.282 N 
ATOM     29  C   UNL     1      35.399 -18.661 -21.328  0.00  0.00    +0.232 C 
ATOM     30  H   UNL     1      34.487 -20.273 -22.176  0.00  0.00    +0.155 HD
BRANCH  29  31
ATOM     31  C   UNL     1      35.626 -18.191 -22.756  0.00  0.00    +0.131 C 
BRANCH  31  34
ATOM     32 CL   UNL     1      33.152 -12.886 -23.819  0.00  0.00    -0.081 Cl
ATOM     33  N   UNL     1      35.019 -15.938 -22.067  0.00  0.00    -0.247 NA
ATOM     34  C   UNL     1      34.992 -16.858 -23.057  0.00  0.00    +0.068 C 
ATOM     35  C   UNL     1      34.423 -16.642 -24.302  0.00  0.00    +0.016 C 
ATOM     36  C   UNL     1      33.846 -15.400 -24.547  0.00  0.00    +0.014 C 
ATOM     37  C   UNL     1      34.448 -14.744 -22.341  0.00  0.00    +0.110 C 
ATOM     38  C   UNL     1      33.854 -14.428 -23.553  0.00  0.00    +0.077 C 
ENDBRANCH  31  34
ENDBRANCH  29  31
ENDBRANCH  25  28
ENDBRANCH   2  22
TORSDOF 8
ENDMDL
MODEL 7
REMARK VINA RESULT:     -10.8      5.591     12.983
REMARK  Name = 66571548
REMARK  8 active torsions:
REMARK  status: ('A' for Active; 'I' for Inactive)
REMARK    1  A    between atoms: C_2  and  C_10
REMARK    2  A    between atoms: C_2  and  C_22
REMARK    3  A    between atoms: N_3  and  C_15
REMARK    4  A    between atoms: C_15  and  C_18
REMARK    5  A    between atoms: C_18  and  O_19
REMARK    6  A    between atoms: C_25  and  N_28
REMARK    7  A    between atoms: C_29  and  C_31
REMARK    8  A    between atoms: C_31  and  C_34
REMARK                            x       y       z     vdW  Elec       q    Type
REMARK                         _______ _______ _______ _____ _____    ______ ____
ROOT
ATOM      1  O   UNL     1      31.281 -12.849 -21.361  0.00  0.00    -0.286 OA
ATOM      2  C   UNL     1      32.240 -12.429 -22.043  0.00  0.00    +0.199 C 
ENDROOT
BRANCH   2  10
ATOM      3  N   UNL     1      33.370  -9.081 -22.777  0.00  0.00    -0.261 N 
ATOM      4  N   UNL     1      32.875  -7.684 -20.875  0.00  0.00    -0.322 NA
ATOM      5  N   UNL     1      31.792  -8.896 -19.062  0.00  0.00    -0.170 NA
ATOM      6  N   UNL     1      32.267  -6.610 -18.888  0.00  0.00    -0.293 N 
ATOM      7  C   UNL     1      32.873  -8.863 -21.519  0.00  0.00    +0.201 C 
ATOM      8  C   UNL     1      33.198 -10.398 -23.116  0.00  0.00    +0.071 C 
ATOM      9  C   UNL     1      32.374 -10.069 -21.042  0.00  0.00    +0.069 C 
ATOM     10  C   UNL     1      32.583 -11.036 -22.058  0.00  0.00    +0.059 C 
ATOM     11  C   UNL     1      31.820 -10.054 -19.763  0.00  0.00    +0.116 C 
ATOM     12  C   UNL     1      32.315  -7.798 -19.654  0.00  0.00    +0.143 C 
ATOM     13  H   UNL     1      32.629  -5.773 -19.258  0.00  0.00    +0.155 HD
ATOM     14  H   UNL     1      31.871  -6.621 -17.988  0.00  0.00    +0.155 HD
BRANCH   3  15
ATOM     15  C   UNL     1      34.024  -8.019 -23.682  0.00  0.00    +0.091 C 
ATOM     16  C   UNL     1      35.078  -7.149 -22.954  0.00  0.00    +0.023 C 
ATOM     17  C   UNL     1      34.753  -8.729 -24.846  0.00  0.00    +0.023 C 
BRANCH  15  18
ATOM     18  C   UNL     1      32.945  -7.077 -24.273  0.00  0.00    +0.155 C 
BRANCH  18  19
ATOM     19  O   UNL     1      32.619  -6.043 -23.349  0.00  0.00    -0.380 OA
ATOM     20  H   UNL     1      31.802  -5.603 -23.632  0.00  0.00    +0.211 HD
ENDBRANCH  18  19
ENDBRANCH  15  18
ENDBRANCH   3  15
ENDBRANCH   2  10
BRANCH   2  22
ATOM     21  N   UNL     1      33.557 -14.419 -24.981  0.00  0.00    -0.241 NA
ATOM     22  C   UNL     1      32.992 -13.468 -22.831  0.00  0.00    +0.059 C 
ATOM     23  C   UNL     1      33.789 -14.414 -22.195  0.00  0.00    +0.021 C 
ATOM     24  C   UNL     1      32.909 -13.513 -24.213  0.00  0.00    +0.102 C 
ATOM     25  C   UNL     1      34.470 -15.362 -22.950  0.00  0.00    +0.070 C 
ATOM     26  C   UNL     1      34.322 -15.322 -24.328  0.00  0.00    +0.113 C 
BRANCH  25  28
ATOM     27  O   UNL     1      34.666 -18.320 -23.427  0.00  0.00    -0.274 OA
ATOM     28  N   UNL     1      35.274 -16.322 -22.341  0.00  0.00    -0.282 N 
ATOM     29  C   UNL     1      35.332 -17.703 -22.600  0.00  0.00    +0.232 C 
ATOM     30  H   UNL     1      35.880 -15.991 -21.640  0.00  0.00    +0.155 HD
BRANCH  29  31
ATOM     31  C   UNL     1      36.353 -18.387 -21.705  0.00  0.00    +0.131 C 
BRANCH  31  34
ATOM     32 CL   UNL     1      34.117 -22.597 -18.146  0.00  0.00    -0.081 Cl
ATOM     33  N   UNL     1      36.612 -20.114 -20.010  0.00  0.00    -0.247 NA
ATOM     34  C   UNL     1      35.755 -19.447 -20.816  0.00  0.00    +0.068 C 
ATOM     35  C   UNL     1      34.391 -19.684 -20.863  0.00  0.00    +0.016 C 
ATOM     36  C   UNL     1      33.872 -20.668 -20.030  0.00  0.00    +0.014 C 
ATOM     37  C   UNL     1      36.071 -21.064 -19.214  0.00  0.00    +0.110 C 
ATOM     38  C   UNL     1      34.721 -21.377 -19.187  0.00  0.00    +0.077 C 
ENDBRANCH  31  34
ENDBRANCH  29  31
ENDBRANCH  25  28
ENDBRANCH   2  22
TORSDOF 8
ENDMDL
MODEL 8
REMARK VINA RESULT:     -10.8      1.798      2.521
REMARK  Name = 66571548
REMARK  8 active torsions:
REMARK  status: ('A' for Active; 'I' for Inactive)
REMARK    1  A    between atoms: C_2  and  C_10
REMARK    2  A    between atoms: C_2  and  C_22
REMARK    3  A    between atoms: N_3  and  C_15
REMARK    4  A    between atoms: C_15  and  C_18
REMARK    5  A    between atoms: C_18  and  O_19
REMARK    6  A    between atoms: C_25  and  N_28
REMARK    7  A    between atoms: C_29  and  C_31
REMARK    8  A    between atoms: C_31  and  C_34
REMARK                            x       y       z     vdW  Elec       q    Type
REMARK                         _______ _______ _______ _____ _____    ______ ____
ROOT
ATOM      1  O   UNL     1      33.524 -23.904 -18.924  0.00  0.00    -0.286 OA
ATOM      2  C   UNL     1      33.827 -23.207 -17.931  0.00  0.00    +0.199 C 
ENDROOT
BRANCH   2  10
ATOM      3  N   UNL     1      32.646 -23.705 -14.558  0.00  0.00    -0.261 N 
ATOM      4  N   UNL     1      30.305 -23.130 -14.485  0.00  0.00    -0.322 NA
ATOM      5  N   UNL     1      29.438 -22.404 -16.641  0.00  0.00    -0.170 NA
ATOM      6  N   UNL     1      28.067 -22.504 -14.746  0.00  0.00    -0.293 N 
ATOM      7  C   UNL     1      31.476 -23.275 -15.128  0.00  0.00    +0.201 C 
ATOM      8  C   UNL     1      33.635 -23.730 -15.506  0.00  0.00    +0.071 C 
ATOM      9  C   UNL     1      31.724 -23.021 -16.471  0.00  0.00    +0.069 C 
ATOM     10  C   UNL     1      33.092 -23.311 -16.703  0.00  0.00    +0.059 C 
ATOM     11  C   UNL     1      30.645 -22.571 -17.231  0.00  0.00    +0.116 C 
ATOM     12  C   UNL     1      29.345 -22.690 -15.323  0.00  0.00    +0.143 C 
ATOM     13  H   UNL     1      27.927 -22.693 -13.790  0.00  0.00    +0.155 HD
ATOM     14  H   UNL     1      27.319 -22.184 -15.300  0.00  0.00    +0.155 HD
BRANCH   3  15
ATOM     15  C   UNL     1      32.833 -24.104 -13.081  0.00  0.00    +0.091 C 
ATOM     16  C   UNL     1      34.310 -24.350 -12.689  0.00  0.00    +0.023 C 
ATOM     17  C   UNL     1      32.314 -22.959 -12.181  0.00  0.00    +0.023 C 
BRANCH  15  18
ATOM     18  C   UNL     1      32.027 -25.389 -12.764  0.00  0.00    +0.155 C 
BRANCH  18  19
ATOM     19  O   UNL     1      30.730 -25.062 -12.276  0.00  0.00    -0.380 OA
ATOM     20  H   UNL     1      30.676 -25.280 -11.332  0.00  0.00    +0.211 HD
ENDBRANCH  18  19
ENDBRANCH  15  18
ENDBRANCH   3  15
ENDBRANCH   2  10
BRANCH   2  22
ATOM     21  N   UNL     1      37.014 -21.294 -17.222  0.00  0.00    -0.241 NA
ATOM     22  C   UNL     1      34.991 -22.271 -18.115  0.00  0.00    +0.059 C 
ATOM     23  C   UNL     1      35.140 -21.532 -19.283  0.00  0.00    +0.021 C 
ATOM     24  C   UNL     1      35.945 -22.117 -17.123  0.00  0.00    +0.102 C 
ATOM     25  C   UNL     1      36.226 -20.674 -19.422  0.00  0.00    +0.070 C 
ATOM     26  C   UNL     1      37.127 -20.592 -18.372  0.00  0.00    +0.113 C 
BRANCH  25  28
ATOM     27  O   UNL     1      34.201 -19.496 -21.300  0.00  0.00    -0.274 OA
ATOM     28  N   UNL     1      36.402 -19.921 -20.581  0.00  0.00    -0.282 N 
ATOM     29  C   UNL     1      35.417 -19.387 -21.431  0.00  0.00    +0.232 C 
ATOM     30  H   UNL     1      37.334 -19.739 -20.836  0.00  0.00    +0.155 HD
BRANCH  29  31
ATOM     31  C   UNL     1      36.045 -18.627 -22.589  0.00  0.00    +0.131 C 
BRANCH  31  34
ATOM     32 CL   UNL     1      33.153 -13.593 -23.887  0.00  0.00    -0.081 Cl
ATOM     33  N   UNL     1      35.281 -16.390 -22.012  0.00  0.00    -0.247 NA
ATOM     34  C   UNL     1      35.305 -17.365 -22.948  0.00  0.00    +0.068 C 
ATOM     35  C   UNL     1      34.697 -17.264 -24.189  0.00  0.00    +0.016 C 
ATOM     36  C   UNL     1      34.022 -16.086 -24.489  0.00  0.00    +0.014 C 
ATOM     37  C   UNL     1      34.616 -15.259 -22.339  0.00  0.00    +0.110 C 
ATOM     38  C   UNL     1      33.976 -15.059 -23.552  0.00  0.00    +0.077 C 
ENDBRANCH  31  34
ENDBRANCH  29  31
ENDBRANCH  25  28
ENDBRANCH   2  22
TORSDOF 8
ENDMDL
MODEL 9
REMARK VINA RESULT:     -10.7      2.502      4.751
REMARK  Name = 66571548
REMARK  8 active torsions:
REMARK  status: ('A' for Active; 'I' for Inactive)
REMARK    1  A    between atoms: C_2  and  C_10
REMARK    2  A    between atoms: C_2  and  C_22
REMARK    3  A    between atoms: N_3  and  C_15
REMARK    4  A    between atoms: C_15  and  C_18
REMARK    5  A    between atoms: C_18  and  O_19
REMARK    6  A    between atoms: C_25  and  N_28
REMARK    7  A    between atoms: C_29  and  C_31
REMARK    8  A    between atoms: C_31  and  C_34
REMARK                            x       y       z     vdW  Elec       q    Type
REMARK                         _______ _______ _______ _____ _____    ______ ____
ROOT
ATOM      1  O   UNL     1      32.141 -25.091 -13.513  0.00  0.00    -0.286 OA
ATOM      2  C   UNL     1      33.071 -24.509 -14.113  0.00  0.00    +0.199 C 
ENDROOT
BRANCH   2  10
ATOM      3  N   UNL     1      36.250 -24.272 -12.422  0.00  0.00    -0.261 N 
ATOM      4  N   UNL     1      37.821 -25.701 -13.565  0.00  0.00    -0.322 NA
ATOM      5  N   UNL     1      36.842 -26.854 -15.473  0.00  0.00    -0.170 NA
ATOM      6  N   UNL     1      39.086 -27.160 -14.883  0.00  0.00    -0.293 N 
ATOM      7  C   UNL     1      36.601 -25.159 -13.405  0.00  0.00    +0.201 C 
ATOM      8  C   UNL     1      34.929 -23.933 -12.562  0.00  0.00    +0.071 C 
ATOM      9  C   UNL     1      35.480 -25.391 -14.192  0.00  0.00    +0.069 C 
ATOM     10  C   UNL     1      34.426 -24.611 -13.652  0.00  0.00    +0.059 C 
ATOM     11  C   UNL     1      35.637 -26.275 -15.259  0.00  0.00    +0.116 C 
ATOM     12  C   UNL     1      37.845 -26.535 -14.623  0.00  0.00    +0.143 C 
ATOM     13  H   UNL     1      39.861 -26.974 -14.304  0.00  0.00    +0.155 HD
ATOM     14  H   UNL     1      39.176 -27.782 -15.640  0.00  0.00    +0.155 HD
BRANCH   3  15
ATOM     15  C   UNL     1      37.185 -23.731 -11.323  0.00  0.00    +0.091 C 
ATOM     16  C   UNL     1      38.281 -24.735 -10.891  0.00  0.00    +0.023 C 
ATOM     17  C   UNL     1      37.912 -22.474 -11.856  0.00  0.00    +0.023 C 
BRANCH  15  18
ATOM     18  C   UNL     1      36.367 -23.337 -10.067  0.00  0.00    +0.155 C 
BRANCH  18  19
ATOM     19  O   UNL     1      36.393 -24.383  -9.102  0.00  0.00    -0.380 OA
ATOM     20  H   UNL     1      35.791 -25.091  -9.377  0.00  0.00    +0.211 HD
ENDBRANCH  18  19
ENDBRANCH  15  18
ENDBRANCH   3  15
ENDBRANCH   2  10
BRANCH   2  22
ATOM     21  N   UNL     1      30.920 -22.700 -16.647  0.00  0.00    -0.241 NA
ATOM     22  C   UNL     1      32.674 -23.711 -15.325  0.00  0.00    +0.059 C 
ATOM     23  C   UNL     1      33.629 -23.253 -16.227  0.00  0.00    +0.021 C 
ATOM     24  C   UNL     1      31.345 -23.411 -15.578  0.00  0.00    +0.102 C 
ATOM     25  C   UNL     1      33.230 -22.519 -17.339  0.00  0.00    +0.070 C 
ATOM     26  C   UNL     1      31.877 -22.271 -17.502  0.00  0.00    +0.113 C 
BRANCH  25  28
ATOM     27  O   UNL     1      32.864 -20.791 -19.767  0.00  0.00    -0.274 OA
ATOM     28  N   UNL     1      34.163 -22.048 -18.260  0.00  0.00    -0.282 N 
ATOM     29  C   UNL     1      33.943 -21.237 -19.387  0.00  0.00    +0.232 C 
ATOM     30  H   UNL     1      35.096 -22.318 -18.101  0.00  0.00    +0.155 HD
BRANCH  29  31
ATOM     31  C   UNL     1      35.243 -20.955 -20.124  0.00  0.00    +0.131 C 
BRANCH  31  34
ATOM     32 CL   UNL     1      35.111 -15.945 -23.329  0.00  0.00    -0.081 Cl
ATOM     33  N   UNL     1      35.596 -18.560 -20.363  0.00  0.00    -0.247 NA
ATOM     34  C   UNL     1      35.198 -19.704 -20.962  0.00  0.00    +0.068 C 
ATOM     35  C   UNL     1      34.761 -19.781 -22.275  0.00  0.00    +0.016 C 
ATOM     36  C   UNL     1      34.732 -18.608 -23.021  0.00  0.00    +0.014 C 
ATOM     37  C   UNL     1      35.554 -17.440 -21.119  0.00  0.00    +0.110 C 
ATOM     38  C   UNL     1      35.134 -17.411 -22.440  0.00  0.00    +0.077 C 
ENDBRANCH  31  34
ENDBRANCH  29  31
ENDBRANCH  25  28
ENDBRANCH   2  22
TORSDOF 8
ENDMDL
