MODEL 1
REMARK VINA RESULT:     -11.4      0.000      0.000
REMARK  Name = 447734
REMARK  5 active torsions:
REMARK  status: ('A' for Active; 'I' for Inactive)
REMARK    1  A    between atoms: C_3  and  C_19
REMARK    2  A    between atoms: C_9  and  C_13
REMARK    3  A    between atoms: N_18  and  C_24
REMARK    4  A    between atoms: C_21  and  O_27
REMARK    5  A    between atoms: O_27  and  C_28
REMARK                            x       y       z     vdW  Elec       q    Type
REMARK                         _______ _______ _______ _____ _____    ______ ____
ROOT
ATOM      1  C   UNL     1      35.524 -20.223 -20.240  0.00  0.00    +0.000 C 
ATOM      2  C   UNL     1      34.238 -20.080 -20.812  0.00  0.00    +0.000 C 
ATOM      3  C   UNL     1      34.611 -21.780 -18.609  0.00  0.00    +0.054 C 
ATOM      4  C   UNL     1      35.693 -21.078 -19.138  0.00  0.00    +0.005 C 
ATOM      5  C   UNL     1      33.159 -20.794 -20.267  0.00  0.00    +0.000 C 
ATOM      6  C   UNL     1      33.346 -21.639 -19.173  0.00  0.00    +0.005 C 
ATOM      7  C   UNL     1      34.069 -19.225 -21.915  0.00  0.00    +0.003 C 
ATOM      8  C   UNL     1      36.603 -19.508 -20.786  0.00  0.00    +0.000 C 
ATOM      9  C   UNL     1      35.151 -18.523 -22.445  0.00  0.00    +0.031 C 
ATOM     10  C   UNL     1      36.416 -18.665 -21.881  0.00  0.00    +0.003 C 
ENDROOT
BRANCH   9  13
ATOM     11  N   UNL     1      35.470 -16.346 -23.595  0.00  0.00    -0.343 N 
ATOM     12  N   UNL     1      34.283 -18.067 -24.638  0.00  0.00    -0.285 NA
ATOM     13  C   UNL     1      34.959 -17.643 -23.586  0.00  0.00    +0.117 C 
ATOM     14  H   UNL     1      35.329 -15.767 -24.379  0.00  0.00    +0.144 HD
ATOM     15  H   UNL     1      35.974 -16.010 -22.819  0.00  0.00    +0.144 HD
ATOM     16  H   UNL     1      34.152 -17.473 -25.412  0.00  0.00    +0.188 HD
ENDBRANCH   9  13
BRANCH   3  19
ATOM     17  O   UNL     1      34.135 -23.705 -17.391  0.00  0.00    -0.270 OA
ATOM     18  N   UNL     1      35.769 -22.253 -16.537  0.00  0.00    -0.280 N 
ATOM     19  C   UNL     1      34.803 -22.660 -17.467  0.00  0.00    +0.249 C 
ATOM     20  H   UNL     1      36.218 -21.399 -16.732  0.00  0.00    +0.155 HD
BRANCH  18  24
ATOM     21  C   UNL     1      37.876 -24.079 -14.117  0.00  0.00    +0.140 C 
ATOM     22  C   UNL     1      37.467 -23.430 -15.282  0.00  0.00    +0.052 C 
ATOM     23  C   UNL     1      36.996 -24.199 -13.041  0.00  0.00    +0.037 C 
ATOM     24  C   UNL     1      36.185 -22.911 -15.353  0.00  0.00    +0.054 C 
ATOM     25  C   UNL     1      35.709 -23.670 -13.130  0.00  0.00    +0.004 C 
ATOM     26  C   UNL     1      35.300 -23.022 -14.294  0.00  0.00    +0.015 C 
BRANCH  21  27
ATOM     27  O   UNL     1      39.132 -24.595 -14.030  0.00  0.00    -0.479 OA
BRANCH  27  28
ATOM     28  C   UNL     1      39.264 -25.877 -13.429  0.00  0.00    +0.166 C 
ATOM     29  C   UNL     1      40.658 -26.421 -13.700  0.00  0.00    +0.044 C 
ATOM     30  C   UNL     1      38.361 -26.884 -14.123  0.00  0.00    +0.044 C 
ATOM     31  C   UNL     1      40.586 -26.966 -15.127  0.00  0.00    +0.004 C 
ATOM     32  C   UNL     1      39.107 -27.233 -15.409  0.00  0.00    +0.004 C 
ENDBRANCH  27  28
ENDBRANCH  21  27
ENDBRANCH  18  24
ENDBRANCH   3  19
TORSDOF 5
ENDMDL
MODEL 2
REMARK VINA RESULT:     -11.2      2.165      3.077
REMARK  Name = 447734
REMARK  5 active torsions:
REMARK  status: ('A' for Active; 'I' for Inactive)
REMARK    1  A    between atoms: C_3  and  C_19
REMARK    2  A    between atoms: C_9  and  C_13
REMARK    3  A    between atoms: N_18  and  C_24
REMARK    4  A    between atoms: C_21  and  O_27
REMARK    5  A    between atoms: O_27  and  C_28
REMARK                            x       y       z     vdW  Elec       q    Type
REMARK                         _______ _______ _______ _____ _____    ______ ____
ROOT
ATOM      1  C   UNL     1      35.137 -20.363 -20.173  0.00  0.00    +0.000 C 
ATOM      2  C   UNL     1      33.893 -20.088 -20.789  0.00  0.00    +0.000 C 
ATOM      3  C   UNL     1      34.005 -21.754 -18.531  0.00  0.00    +0.054 C 
ATOM      4  C   UNL     1      35.176 -21.198 -19.045  0.00  0.00    +0.005 C 
ATOM      5  C   UNL     1      32.724 -20.656 -20.258  0.00  0.00    +0.000 C 
ATOM      6  C   UNL     1      32.781 -21.484 -19.137  0.00  0.00    +0.005 C 
ATOM      7  C   UNL     1      33.855 -19.252 -21.918  0.00  0.00    +0.003 C 
ATOM      8  C   UNL     1      36.307 -19.794 -20.704  0.00  0.00    +0.000 C 
ATOM      9  C   UNL     1      35.026 -18.696 -22.432  0.00  0.00    +0.031 C 
ATOM     10  C   UNL     1      36.250 -18.967 -21.827  0.00  0.00    +0.003 C 
ENDROOT
BRANCH   9  13
ATOM     11  N   UNL     1      35.507 -16.548 -23.580  0.00  0.00    -0.343 N 
ATOM     12  N   UNL     1      34.394 -18.263 -24.709  0.00  0.00    -0.285 NA
ATOM     13  C   UNL     1      34.969 -17.833 -23.601  0.00  0.00    +0.117 C 
ATOM     14  H   UNL     1      35.458 -15.980 -24.383  0.00  0.00    +0.144 HD
ATOM     15  H   UNL     1      35.938 -16.208 -22.762  0.00  0.00    +0.144 HD
ATOM     16  H   UNL     1      34.354 -17.681 -25.502  0.00  0.00    +0.188 HD
ENDBRANCH   9  13
BRANCH   3  19
ATOM     17  O   UNL     1      35.141 -23.150 -17.057  0.00  0.00    -0.270 OA
ATOM     18  N   UNL     1      32.864 -22.756 -16.646  0.00  0.00    -0.280 N 
ATOM     19  C   UNL     1      34.061 -22.617 -17.361  0.00  0.00    +0.249 C 
ATOM     20  H   UNL     1      32.089 -22.272 -17.011  0.00  0.00    +0.155 HD
BRANCH  18  24
ATOM     21  C   UNL     1      33.417 -24.414 -13.395  0.00  0.00    +0.140 C 
ATOM     22  C   UNL     1      33.653 -23.678 -14.555  0.00  0.00    +0.052 C 
ATOM     23  C   UNL     1      32.156 -24.964 -13.162  0.00  0.00    +0.037 C 
ATOM     24  C   UNL     1      32.624 -23.503 -15.466  0.00  0.00    +0.054 C 
ATOM     25  C   UNL     1      31.132 -24.778 -14.090  0.00  0.00    +0.004 C 
ATOM     26  C   UNL     1      31.367 -24.042 -15.250  0.00  0.00    +0.015 C 
BRANCH  21  27
ATOM     27  O   UNL     1      34.416 -24.596 -12.489  0.00  0.00    -0.479 OA
BRANCH  27  28
ATOM     28  C   UNL     1      35.705 -24.106 -12.840  0.00  0.00    +0.166 C 
ATOM     29  C   UNL     1      36.630 -25.278 -13.130  0.00  0.00    +0.044 C 
ATOM     30  C   UNL     1      36.361 -23.438 -11.642  0.00  0.00    +0.044 C 
ATOM     31  C   UNL     1      37.062 -25.775 -11.751  0.00  0.00    +0.004 C 
ATOM     32  C   UNL     1      36.860 -24.604 -10.790  0.00  0.00    +0.004 C 
ENDBRANCH  27  28
ENDBRANCH  21  27
ENDBRANCH  18  24
ENDBRANCH   3  19
TORSDOF 5
ENDMDL
MODEL 3
REMARK VINA RESULT:     -11.0      8.003     12.172
REMARK  Name = 447734
REMARK  5 active torsions:
REMARK  status: ('A' for Active; 'I' for Inactive)
REMARK    1  A    between atoms: C_3  and  C_19
REMARK    2  A    between atoms: C_9  and  C_13
REMARK    3  A    between atoms: N_18  and  C_24
REMARK    4  A    between atoms: C_21  and  O_27
REMARK    5  A    between atoms: O_27  and  C_28
REMARK                            x       y       z     vdW  Elec       q    Type
REMARK                         _______ _______ _______ _____ _____    ______ ____
ROOT
ATOM      1  C   UNL     1      32.104  -8.873 -22.538  0.00  0.00    +0.000 C 
ATOM      2  C   UNL     1      31.842  -8.359 -21.246  0.00  0.00    +0.000 C 
ATOM      3  C   UNL     1      32.263 -11.112 -21.601  0.00  0.00    +0.054 C 
ATOM      4  C   UNL     1      32.312 -10.253 -22.698  0.00  0.00    +0.005 C 
ATOM      5  C   UNL     1      31.796  -9.238 -20.152  0.00  0.00    +0.000 C 
ATOM      6  C   UNL     1      32.006 -10.606 -20.330  0.00  0.00    +0.005 C 
ATOM      7  C   UNL     1      31.633  -6.978 -21.085  0.00  0.00    +0.003 C 
ATOM      8  C   UNL     1      32.149  -7.993 -23.631  0.00  0.00    +0.000 C 
ATOM      9  C   UNL     1      31.681  -6.119 -22.183  0.00  0.00    +0.031 C 
ATOM     10  C   UNL     1      31.939  -6.625 -23.453  0.00  0.00    +0.003 C 
ENDROOT
BRANCH   9  13
ATOM     11  N   UNL     1      31.952  -3.762 -22.914  0.00  0.00    -0.343 N 
ATOM     12  N   UNL     1      30.794  -4.259 -20.946  0.00  0.00    -0.285 NA
ATOM     13  C   UNL     1      31.463  -4.693 -22.000  0.00  0.00    +0.117 C 
ATOM     14  H   UNL     1      31.793  -2.800 -22.770  0.00  0.00    +0.144 HD
ATOM     15  H   UNL     1      32.457  -4.065 -23.703  0.00  0.00    +0.144 HD
ATOM     16  H   UNL     1      30.644  -3.294 -20.821  0.00  0.00    +0.188 HD
ENDBRANCH   9  13
BRANCH   3  19
ATOM     17  O   UNL     1      31.834 -13.342 -21.093  0.00  0.00    -0.270 OA
ATOM     18  N   UNL     1      33.416 -12.893 -22.768  0.00  0.00    -0.280 N 
ATOM     19  C   UNL     1      32.483 -12.538 -21.783  0.00  0.00    +0.249 C 
ATOM     20  H   UNL     1      33.852 -12.143 -23.233  0.00  0.00    +0.155 HD
BRANCH  18  24
ATOM     21  C   UNL     1      34.892 -16.275 -22.698  0.00  0.00    +0.140 C 
ATOM     22  C   UNL     1      34.499 -15.000 -22.292  0.00  0.00    +0.052 C 
ATOM     23  C   UNL     1      34.592 -16.719 -23.986  0.00  0.00    +0.037 C 
ATOM     24  C   UNL     1      33.813 -14.188 -23.180  0.00  0.00    +0.054 C 
ATOM     25  C   UNL     1      33.901 -15.889 -24.867  0.00  0.00    +0.004 C 
ATOM     26  C   UNL     1      33.509 -14.614 -24.461  0.00  0.00    +0.015 C 
BRANCH  21  27
ATOM     27  O   UNL     1      35.567 -17.086 -21.838  0.00  0.00    -0.479 OA
BRANCH  27  28
ATOM     28  C   UNL     1      36.040 -18.324 -22.354  0.00  0.00    +0.166 C 
ATOM     29  C   UNL     1      35.115 -19.445 -21.904  0.00  0.00    +0.044 C 
ATOM     30  C   UNL     1      37.367 -18.694 -21.710  0.00  0.00    +0.044 C 
ATOM     31  C   UNL     1      35.545 -19.742 -20.467  0.00  0.00    +0.004 C 
ATOM     32  C   UNL     1      36.979 -19.231 -20.334  0.00  0.00    +0.004 C 
ENDBRANCH  27  28
ENDBRANCH  21  27
ENDBRANCH  18  24
ENDBRANCH   3  19
TORSDOF 5
ENDMDL
MODEL 4
REMARK VINA RESULT:     -10.7      3.319     10.874
REMARK  Name = 447734
REMARK  5 active torsions:
REMARK  status: ('A' for Active; 'I' for Inactive)
REMARK    1  A    between atoms: C_3  and  C_19
REMARK    2  A    between atoms: C_9  and  C_13
REMARK    3  A    between atoms: N_18  and  C_24
REMARK    4  A    between atoms: C_21  and  O_27
REMARK    5  A    between atoms: O_27  and  C_28
REMARK                            x       y       z     vdW  Elec       q    Type
REMARK                         _______ _______ _______ _____ _____    ______ ____
ROOT
ATOM      1  C   UNL     1      34.610 -22.526 -17.252  0.00  0.00    +0.000 C 
ATOM      2  C   UNL     1      35.990 -22.427 -16.952  0.00  0.00    +0.000 C 
ATOM      3  C   UNL     1      34.942 -21.102 -19.196  0.00  0.00    +0.054 C 
ATOM      4  C   UNL     1      34.103 -21.858 -18.377  0.00  0.00    +0.005 C 
ATOM      5  C   UNL     1      36.821 -21.662 -17.786  0.00  0.00    +0.000 C 
ATOM      6  C   UNL     1      36.299 -21.005 -18.901  0.00  0.00    +0.005 C 
ATOM      7  C   UNL     1      36.498 -23.096 -15.826  0.00  0.00    +0.003 C 
ATOM      8  C   UNL     1      33.779 -23.291 -16.417  0.00  0.00    +0.000 C 
ATOM      9  C   UNL     1      35.658 -23.852 -15.008  0.00  0.00    +0.031 C 
ATOM     10  C   UNL     1      34.301 -23.950 -15.303  0.00  0.00    +0.003 C 
ENDROOT
BRANCH   9  13
ATOM     11  N   UNL     1      36.169 -25.928 -13.745  0.00  0.00    -0.343 N 
ATOM     12  N   UNL     1      36.729 -23.841 -12.857  0.00  0.00    -0.285 NA
ATOM     13  C   UNL     1      36.200 -24.539 -13.846  0.00  0.00    +0.117 C 
ATOM     14  H   UNL     1      36.542 -26.373 -12.949  0.00  0.00    +0.144 HD
ATOM     15  H   UNL     1      35.775 -26.466 -14.470  0.00  0.00    +0.144 HD
ATOM     16  H   UNL     1      37.097 -24.303 -12.069  0.00  0.00    +0.188 HD
ENDBRANCH   9  13
BRANCH   3  19
ATOM     17  O   UNL     1      33.209 -20.590 -20.661  0.00  0.00    -0.270 OA
ATOM     18  N   UNL     1      35.289 -19.572 -21.039  0.00  0.00    -0.280 N 
ATOM     19  C   UNL     1      34.400 -20.415 -20.357  0.00  0.00    +0.249 C 
ATOM     20  H   UNL     1      36.205 -19.536 -20.680  0.00  0.00    +0.155 HD
BRANCH  18  24
ATOM     21  C   UNL     1      34.803 -16.593 -23.163  0.00  0.00    +0.140 C 
ATOM     22  C   UNL     1      35.048 -17.387 -22.043  0.00  0.00    +0.052 C 
ATOM     23  C   UNL     1      34.554 -17.189 -24.399  0.00  0.00    +0.037 C 
ATOM     24  C   UNL     1      35.041 -18.765 -22.176  0.00  0.00    +0.054 C 
ATOM     25  C   UNL     1      34.551 -18.579 -24.516  0.00  0.00    +0.004 C 
ATOM     26  C   UNL     1      34.796 -19.373 -23.396  0.00  0.00    +0.015 C 
BRANCH  21  27
ATOM     27  O   UNL     1      34.806 -15.237 -23.050  0.00  0.00    -0.479 OA
BRANCH  27  28
ATOM     28  C   UNL     1      33.544 -14.597 -22.898  0.00  0.00    +0.166 C 
ATOM     29  C   UNL     1      33.053 -14.120 -24.257  0.00  0.00    +0.044 C 
ATOM     30  C   UNL     1      33.697 -13.303 -22.115  0.00  0.00    +0.044 C 
ATOM     31  C   UNL     1      33.817 -12.820 -24.505  0.00  0.00    +0.004 C 
ATOM     32  C   UNL     1      34.258 -12.313 -23.133  0.00  0.00    +0.004 C 
ENDBRANCH  27  28
ENDBRANCH  21  27
ENDBRANCH  18  24
ENDBRANCH   3  19
TORSDOF 5
ENDMDL
MODEL 5
REMARK VINA RESULT:     -10.6      5.058     12.308
REMARK  Name = 447734
REMARK  5 active torsions:
REMARK  status: ('A' for Active; 'I' for Inactive)
REMARK    1  A    between atoms: C_3  and  C_19
REMARK    2  A    between atoms: C_9  and  C_13
REMARK    3  A    between atoms: N_18  and  C_24
REMARK    4  A    between atoms: C_21  and  O_27
REMARK    5  A    between atoms: O_27  and  C_28
REMARK                            x       y       z     vdW  Elec       q    Type
REMARK                         _______ _______ _______ _____ _____    ______ ____
ROOT
ATOM      1  C   UNL     1      34.736 -20.120 -20.231  0.00  0.00    +0.000 C 
ATOM      2  C   UNL     1      36.082 -20.166 -19.796  0.00  0.00    +0.000 C 
ATOM      3  C   UNL     1      35.347 -18.466 -21.907  0.00  0.00    +0.054 C 
ATOM      4  C   UNL     1      34.386 -19.264 -21.288  0.00  0.00    +0.005 C 
ATOM      5  C   UNL     1      37.037 -19.355 -20.430  0.00  0.00    +0.000 C 
ATOM      6  C   UNL     1      36.671 -18.511 -21.478  0.00  0.00    +0.005 C 
ATOM      7  C   UNL     1      36.433 -21.022 -18.739  0.00  0.00    +0.003 C 
ATOM      8  C   UNL     1      33.781 -20.932 -19.597  0.00  0.00    +0.000 C 
ATOM      9  C   UNL     1      35.472 -21.822 -18.120  0.00  0.00    +0.031 C 
ATOM     10  C   UNL     1      34.148 -21.777 -18.549  0.00  0.00    +0.003 C 
ENDROOT
BRANCH   9  13
ATOM     11  N   UNL     1      37.155 -22.726 -16.535  0.00  0.00    -0.343 N 
ATOM     12  N   UNL     1      34.953 -23.505 -16.487  0.00  0.00    -0.285 NA
ATOM     13  C   UNL     1      35.851 -22.703 -17.028  0.00  0.00    +0.117 C 
ATOM     14  H   UNL     1      37.390 -23.330 -15.794  0.00  0.00    +0.144 HD
ATOM     15  H   UNL     1      37.840 -22.138 -16.928  0.00  0.00    +0.144 HD
ATOM     16  H   UNL     1      35.207 -24.102 -15.746  0.00  0.00    +0.188 HD
ENDBRANCH   9  13
BRANCH   3  19
ATOM     17  O   UNL     1      34.907 -18.043 -24.152  0.00  0.00    -0.270 OA
ATOM     18  N   UNL     1      34.671 -16.261 -22.643  0.00  0.00    -0.280 N 
ATOM     19  C   UNL     1      34.967 -17.584 -22.999  0.00  0.00    +0.249 C 
ATOM     20  H   UNL     1      34.765 -16.044 -21.688  0.00  0.00    +0.155 HD
BRANCH  18  24
ATOM     21  C   UNL     1      33.860 -12.853 -23.806  0.00  0.00    +0.140 C 
ATOM     22  C   UNL     1      34.272 -13.902 -22.984  0.00  0.00    +0.052 C 
ATOM     23  C   UNL     1      33.437 -13.114 -25.109  0.00  0.00    +0.037 C 
ATOM     24  C   UNL     1      34.254 -15.196 -23.478  0.00  0.00    +0.054 C 
ATOM     25  C   UNL     1      33.425 -14.423 -25.590  0.00  0.00    +0.004 C 
ATOM     26  C   UNL     1      33.836 -15.471 -24.769  0.00  0.00    +0.015 C 
BRANCH  21  27
ATOM     27  O   UNL     1      33.872 -11.576 -23.337  0.00  0.00    -0.479 OA
BRANCH  27  28
ATOM     28  C   UNL     1      33.460 -10.553 -24.236  0.00  0.00    +0.166 C 
ATOM     29  C   UNL     1      34.684  -9.819 -24.762  0.00  0.00    +0.044 C 
ATOM     30  C   UNL     1      32.702  -9.467 -23.490  0.00  0.00    +0.044 C 
ATOM     31  C   UNL     1      35.060  -8.850 -23.641  0.00  0.00    +0.004 C 
ATOM     32  C   UNL     1      33.795  -8.648 -22.807  0.00  0.00    +0.004 C 
ENDBRANCH  27  28
ENDBRANCH  21  27
ENDBRANCH  18  24
ENDBRANCH   3  19
TORSDOF 5
ENDMDL
MODEL 6
REMARK VINA RESULT:     -10.4      9.545     15.931
REMARK  Name = 447734
REMARK  5 active torsions:
REMARK  status: ('A' for Active; 'I' for Inactive)
REMARK    1  A    between atoms: C_3  and  C_19
REMARK    2  A    between atoms: C_9  and  C_13
REMARK    3  A    between atoms: N_18  and  C_24
REMARK    4  A    between atoms: C_21  and  O_27
REMARK    5  A    between atoms: O_27  and  C_28
REMARK                            x       y       z     vdW  Elec       q    Type
REMARK                         _______ _______ _______ _____ _____    ______ ____
ROOT
ATOM      1  C   UNL     1      34.260 -14.133 -23.081  0.00  0.00    +0.000 C 
ATOM      2  C   UNL     1      33.852 -14.667 -24.326  0.00  0.00    +0.000 C 
ATOM      3  C   UNL     1      33.720 -11.898 -23.875  0.00  0.00    +0.054 C 
ATOM      4  C   UNL     1      34.188 -12.746 -22.872  0.00  0.00    +0.005 C 
ATOM      5  C   UNL     1      33.383 -13.799 -25.325  0.00  0.00    +0.000 C 
ATOM      6  C   UNL     1      33.318 -12.424 -25.100  0.00  0.00    +0.005 C 
ATOM      7  C   UNL     1      33.924 -16.055 -24.535  0.00  0.00    +0.003 C 
ATOM      8  C   UNL     1      34.729 -15.002 -22.081  0.00  0.00    +0.000 C 
ATOM      9  C   UNL     1      34.391 -16.903 -23.530  0.00  0.00    +0.031 C 
ATOM     10  C   UNL     1      34.793 -16.377 -22.306  0.00  0.00    +0.003 C 
ENDROOT
BRANCH   9  13
ATOM     11  N   UNL     1      35.263 -19.161 -22.978  0.00  0.00    -0.343 N 
ATOM     12  N   UNL     1      33.753 -18.879 -24.739  0.00  0.00    -0.285 NA
ATOM     13  C   UNL     1      34.459 -18.337 -23.763  0.00  0.00    +0.117 C 
ATOM     14  H   UNL     1      35.294 -20.129 -23.152  0.00  0.00    +0.144 HD
ATOM     15  H   UNL     1      35.799 -18.774 -22.247  0.00  0.00    +0.144 HD
ATOM     16  H   UNL     1      33.797 -19.850 -24.897  0.00  0.00    +0.188 HD
ENDBRANCH   9  13
BRANCH   3  19
ATOM     17  O   UNL     1      34.495  -9.726 -24.181  0.00  0.00    -0.270 OA
ATOM     18  N   UNL     1      32.599 -10.025 -22.830  0.00  0.00    -0.280 N 
ATOM     19  C   UNL     1      33.653 -10.464 -23.643  0.00  0.00    +0.249 C 
ATOM     20  H   UNL     1      32.011 -10.729 -22.474  0.00  0.00    +0.155 HD
BRANCH  18  24
ATOM     21  C   UNL     1      31.671  -6.460 -23.066  0.00  0.00    +0.140 C 
ATOM     22  C   UNL     1      31.993  -7.765 -23.437  0.00  0.00    +0.052 C 
ATOM     23  C   UNL     1      31.630  -6.109 -21.716  0.00  0.00    +0.037 C 
ATOM     24  C   UNL     1      32.270  -8.700 -22.453  0.00  0.00    +0.054 C 
ATOM     25  C   UNL     1      31.913  -7.062 -20.739  0.00  0.00    +0.004 C 
ATOM     26  C   UNL     1      32.235  -8.367 -21.110  0.00  0.00    +0.015 C 
BRANCH  21  27
ATOM     27  O   UNL     1      31.396  -5.529 -24.019  0.00  0.00    -0.479 OA
BRANCH  27  28
ATOM     28  C   UNL     1      32.249  -4.393 -24.080  0.00  0.00    +0.166 C 
ATOM     29  C   UNL     1      31.898  -3.562 -25.305  0.00  0.00    +0.044 C 
ATOM     30  C   UNL     1      33.682  -4.822 -24.355  0.00  0.00    +0.044 C 
ATOM     31  C   UNL     1      32.579  -4.286 -26.467  0.00  0.00    +0.004 C 
ATOM     32  C   UNL     1      33.704  -5.119 -25.852  0.00  0.00    +0.004 C 
ENDBRANCH  27  28
ENDBRANCH  21  27
ENDBRANCH  18  24
ENDBRANCH   3  19
TORSDOF 5
ENDMDL
MODEL 7
REMARK VINA RESULT:     -10.3      9.184     15.610
REMARK  Name = 447734
REMARK  5 active torsions:
REMARK  status: ('A' for Active; 'I' for Inactive)
REMARK    1  A    between atoms: C_3  and  C_19
REMARK    2  A    between atoms: C_9  and  C_13
REMARK    3  A    between atoms: N_18  and  C_24
REMARK    4  A    between atoms: C_21  and  O_27
REMARK    5  A    between atoms: O_27  and  C_28
REMARK                            x       y       z     vdW  Elec       q    Type
REMARK                         _______ _______ _______ _____ _____    ______ ____
ROOT
ATOM      1  C   UNL     1      34.036 -14.613 -21.625  0.00  0.00    +0.000 C 
ATOM      2  C   UNL     1      34.175 -15.063 -22.959  0.00  0.00    +0.000 C 
ATOM      3  C   UNL     1      32.898 -12.619 -22.428  0.00  0.00    +0.054 C 
ATOM      4  C   UNL     1      33.395 -13.389 -21.377  0.00  0.00    +0.005 C 
ATOM      5  C   UNL     1      33.670 -14.276 -24.006  0.00  0.00    +0.000 C 
ATOM      6  C   UNL     1      33.035 -13.062 -23.741  0.00  0.00    +0.005 C 
ATOM      7  C   UNL     1      34.817 -16.288 -23.207  0.00  0.00    +0.003 C 
ATOM      8  C   UNL     1      34.542 -15.401 -20.578  0.00  0.00    +0.000 C 
ATOM      9  C   UNL     1      35.313 -17.059 -22.155  0.00  0.00    +0.031 C 
ATOM     10  C   UNL     1      35.175 -16.616 -20.843  0.00  0.00    +0.003 C 
ENDROOT
BRANCH   9  13
ATOM     11  N   UNL     1      35.274 -19.409 -22.955  0.00  0.00    -0.343 N 
ATOM     12  N   UNL     1      37.263 -18.462 -22.174  0.00  0.00    -0.285 NA
ATOM     13  C   UNL     1      35.974 -18.324 -22.429  0.00  0.00    +0.117 C 
ATOM     14  H   UNL     1      35.742 -20.257 -23.134  0.00  0.00    +0.144 HD
ATOM     15  H   UNL     1      34.312 -19.327 -23.149  0.00  0.00    +0.144 HD
ATOM     16  H   UNL     1      37.713 -19.318 -22.359  0.00  0.00    +0.188 HD
ENDBRANCH   9  13
BRANCH   3  19
ATOM     17  O   UNL     1      31.159 -11.356 -21.538  0.00  0.00    -0.270 OA
ATOM     18  N   UNL     1      32.906 -10.205 -22.602  0.00  0.00    -0.280 N 
ATOM     19  C   UNL     1      32.237 -11.353 -22.154  0.00  0.00    +0.249 C 
ATOM     20  H   UNL     1      33.753 -10.361 -23.077  0.00  0.00    +0.155 HD
BRANCH  18  24
ATOM     21  C   UNL     1      32.034  -6.719 -23.447  0.00  0.00    +0.140 C 
ATOM     22  C   UNL     1      32.412  -8.054 -23.588  0.00  0.00    +0.052 C 
ATOM     23  C   UNL     1      31.772  -6.199 -22.179  0.00  0.00    +0.037 C 
ATOM     24  C   UNL     1      32.521  -8.849 -22.459  0.00  0.00    +0.054 C 
ATOM     25  C   UNL     1      31.887  -7.013 -21.053  0.00  0.00    +0.004 C 
ATOM     26  C   UNL     1      32.265  -8.348 -21.194  0.00  0.00    +0.015 C 
BRANCH  21  27
ATOM     27  O   UNL     1      31.922  -5.924 -24.545  0.00  0.00    -0.479 OA
BRANCH  27  28
ATOM     28  C   UNL     1      32.637  -4.694 -24.529  0.00  0.00    +0.166 C 
ATOM     29  C   UNL     1      32.374  -3.940 -25.824  0.00  0.00    +0.044 C 
ATOM     30  C   UNL     1      34.134  -4.951 -24.579  0.00  0.00    +0.044 C 
ATOM     31  C   UNL     1      33.297  -4.602 -26.847  0.00  0.00    +0.004 C 
ATOM     32  C   UNL     1      34.410  -5.278 -26.046  0.00  0.00    +0.004 C 
ENDBRANCH  27  28
ENDBRANCH  21  27
ENDBRANCH  18  24
ENDBRANCH   3  19
TORSDOF 5
ENDMDL
MODEL 8
REMARK VINA RESULT:     -10.0      8.452     14.845
REMARK  Name = 447734
REMARK  5 active torsions:
REMARK  status: ('A' for Active; 'I' for Inactive)
REMARK    1  A    between atoms: C_3  and  C_19
REMARK    2  A    between atoms: C_9  and  C_13
REMARK    3  A    between atoms: N_18  and  C_24
REMARK    4  A    between atoms: C_21  and  O_27
REMARK    5  A    between atoms: O_27  and  C_28
REMARK                            x       y       z     vdW  Elec       q    Type
REMARK                         _______ _______ _______ _____ _____    ______ ____
ROOT
ATOM      1  C   UNL     1      34.826 -16.093 -22.752  0.00  0.00    +0.000 C 
ATOM      2  C   UNL     1      34.826 -16.062 -21.337  0.00  0.00    +0.000 C 
ATOM      3  C   UNL     1      34.265 -13.726 -22.792  0.00  0.00    +0.054 C 
ATOM      4  C   UNL     1      34.543 -14.916 -23.464  0.00  0.00    +0.005 C 
ATOM      5  C   UNL     1      34.543 -14.855 -20.676  0.00  0.00    +0.000 C 
ATOM      6  C   UNL     1      34.265 -13.696 -21.401  0.00  0.00    +0.005 C 
ATOM      7  C   UNL     1      35.108 -17.239 -20.624  0.00  0.00    +0.003 C 
ATOM      8  C   UNL     1      35.108 -17.300 -23.412  0.00  0.00    +0.000 C 
ATOM      9  C   UNL     1      35.388 -18.429 -21.296  0.00  0.00    +0.031 C 
ATOM     10  C   UNL     1      35.388 -18.459 -22.688  0.00  0.00    +0.003 C 
ENDROOT
BRANCH   9  13
ATOM     11  N   UNL     1      34.697 -20.601 -20.312  0.00  0.00    -0.343 N 
ATOM     12  N   UNL     1      36.891 -19.837 -20.060  0.00  0.00    -0.285 NA
ATOM     13  C   UNL     1      35.678 -19.639 -20.543  0.00  0.00    +0.117 C 
ATOM     14  H   UNL     1      34.916 -21.414 -19.800  0.00  0.00    +0.144 HD
ATOM     15  H   UNL     1      33.786 -20.470 -20.662  0.00  0.00    +0.144 HD
ATOM     16  H   UNL     1      37.090 -20.656 -19.550  0.00  0.00    +0.188 HD
ENDBRANCH   9  13
BRANCH   3  19
ATOM     17  O   UNL     1      33.342 -12.606 -24.611  0.00  0.00    -0.270 OA
ATOM     18  N   UNL     1      34.423 -11.318 -22.974  0.00  0.00    -0.280 N 
ATOM     19  C   UNL     1      33.974 -12.517 -23.545  0.00  0.00    +0.249 C 
ATOM     20  H   UNL     1      34.911 -11.405 -22.124  0.00  0.00    +0.155 HD
BRANCH  18  24
ATOM     21  C   UNL     1      33.167  -7.868 -23.356  0.00  0.00    +0.140 C 
ATOM     22  C   UNL     1      33.323  -9.168 -22.876  0.00  0.00    +0.052 C 
ATOM     23  C   UNL     1      33.957  -7.416 -24.413  0.00  0.00    +0.037 C 
ATOM     24  C   UNL     1      34.266  -9.997 -23.461  0.00  0.00    +0.054 C 
ATOM     25  C   UNL     1      34.901  -8.264 -24.991  0.00  0.00    +0.004 C 
ATOM     26  C   UNL     1      35.057  -9.564 -24.511  0.00  0.00    +0.015 C 
BRANCH  21  27
ATOM     27  O   UNL     1      32.245  -7.040 -22.794  0.00  0.00    -0.479 OA
BRANCH  27  28
ATOM     28  C   UNL     1      32.738  -5.950 -22.025  0.00  0.00    +0.166 C 
ATOM     29  C   UNL     1      32.002  -5.895 -20.695  0.00  0.00    +0.044 C 
ATOM     30  C   UNL     1      32.365  -4.629 -22.679  0.00  0.00    +0.044 C 
ATOM     31  C   UNL     1      30.671  -5.218 -21.022  0.00  0.00    +0.004 C 
ATOM     32  C   UNL     1      30.896  -4.431 -22.313  0.00  0.00    +0.004 C 
ENDBRANCH  27  28
ENDBRANCH  21  27
ENDBRANCH  18  24
ENDBRANCH   3  19
TORSDOF 5
ENDMDL
MODEL 9
REMARK VINA RESULT:     -10.0      3.830      5.884
REMARK  Name = 447734
REMARK  5 active torsions:
REMARK  status: ('A' for Active; 'I' for Inactive)
REMARK    1  A    between atoms: C_3  and  C_19
REMARK    2  A    between atoms: C_9  and  C_13
REMARK    3  A    between atoms: N_18  and  C_24
REMARK    4  A    between atoms: C_21  and  O_27
REMARK    5  A    between atoms: O_27  and  C_28
REMARK                            x       y       z     vdW  Elec       q    Type
REMARK                         _______ _______ _______ _____ _____    ______ ____
ROOT
ATOM      1  C   UNL     1      34.726 -16.253 -21.975  0.00  0.00    +0.000 C 
ATOM      2  C   UNL     1      34.533 -16.614 -23.329  0.00  0.00    +0.000 C 
ATOM      3  C   UNL     1      35.237 -18.571 -21.441  0.00  0.00    +0.054 C 
ATOM      4  C   UNL     1      35.078 -17.244 -21.043  0.00  0.00    +0.005 C 
ATOM      5  C   UNL     1      34.697 -17.955 -23.713  0.00  0.00    +0.000 C 
ATOM      6  C   UNL     1      35.047 -18.926 -22.774  0.00  0.00    +0.005 C 
ATOM      7  C   UNL     1      34.182 -15.623 -24.261  0.00  0.00    +0.003 C 
ATOM      8  C   UNL     1      34.562 -14.912 -21.591  0.00  0.00    +0.000 C 
ATOM      9  C   UNL     1      34.024 -14.295 -23.863  0.00  0.00    +0.031 C 
ATOM     10  C   UNL     1      34.213 -13.940 -22.530  0.00  0.00    +0.003 C 
ENDROOT
BRANCH   9  13
ATOM     11  N   UNL     1      33.781 -11.923 -24.554  0.00  0.00    -0.343 N 
ATOM     12  N   UNL     1      33.197 -13.644 -26.023  0.00  0.00    -0.285 NA
ATOM     13  C   UNL     1      33.659 -13.282 -24.840  0.00  0.00    +0.117 C 
ATOM     14  H   UNL     1      33.529 -11.253 -25.230  0.00  0.00    +0.144 HD
ATOM     15  H   UNL     1      34.120 -11.633 -23.676  0.00  0.00    +0.144 HD
ATOM     16  H   UNL     1      32.951 -12.959 -26.686  0.00  0.00    +0.188 HD
ENDBRANCH   9  13
BRANCH   3  19
ATOM     17  O   UNL     1      36.801 -19.777 -20.213  0.00  0.00    -0.270 OA
ATOM     18  N   UNL     1      34.532 -20.260 -19.857  0.00  0.00    -0.280 N 
ATOM     19  C   UNL     1      35.600 -19.585 -20.465  0.00  0.00    +0.249 C 
ATOM     20  H   UNL     1      33.633 -19.999 -20.161  0.00  0.00    +0.155 HD
BRANCH  18  24
ATOM     21  C   UNL     1      33.443 -22.862 -17.476  0.00  0.00    +0.140 C 
ATOM     22  C   UNL     1      33.398 -21.870 -18.455  0.00  0.00    +0.052 C 
ATOM     23  C   UNL     1      34.666 -23.238 -16.921  0.00  0.00    +0.037 C 
ATOM     24  C   UNL     1      34.577 -21.269 -18.864  0.00  0.00    +0.054 C 
ATOM     25  C   UNL     1      35.844 -22.622 -17.343  0.00  0.00    +0.004 C 
ATOM     26  C   UNL     1      35.799 -21.630 -18.322  0.00  0.00    +0.015 C 
BRANCH  21  27
ATOM     27  O   UNL     1      32.295 -23.463 -17.063  0.00  0.00    -0.479 OA
BRANCH  27  28
ATOM     28  C   UNL     1      31.515 -22.773 -16.095  0.00  0.00    +0.166 C 
ATOM     29  C   UNL     1      32.016 -23.121 -14.701  0.00  0.00    +0.044 C 
ATOM     30  C   UNL     1      30.089 -23.300 -16.088  0.00  0.00    +0.044 C 
ATOM     31  C   UNL     1      31.398 -24.486 -14.402  0.00  0.00    +0.004 C 
ATOM     32  C   UNL     1      30.179 -24.614 -15.315  0.00  0.00    +0.004 C 
ENDBRANCH  27  28
ENDBRANCH  21  27
ENDBRANCH  18  24
ENDBRANCH   3  19
TORSDOF 5
ENDMDL
