MODEL 1
REMARK VINA RESULT:     -12.2      0.000      0.000
REMARK  Name = 54671008
REMARK  7 active torsions:
REMARK  status: ('A' for Active; 'I' for Inactive)
REMARK    1  A    between atoms: C_4  and  C_21
REMARK    2  A    between atoms: C_6  and  C_11
REMARK    3  A    between atoms: C_8  and  O_34
REMARK    4  A    between atoms: N_10  and  C_13
REMARK    5  A    between atoms: C_13  and  C_15
REMARK    6  A    between atoms: C_21  and  N_25
REMARK    7  A    between atoms: C_26  and  C_31
REMARK                            x       y       z     vdW  Elec       q    Type
REMARK                         _______ _______ _______ _____ _____    ______ ____
ROOT
ATOM      1  O   UNL     1      36.166 -23.305 -14.269  0.00  0.00    -0.271 OA
ATOM      2  N   UNL     1      33.847 -23.617 -14.181  0.00  0.00    -0.232 N 
ATOM      3  N   UNL     1      32.569 -23.369 -16.170  0.00  0.00    -0.386 NA
ATOM      4  C   UNL     1      32.654 -23.619 -14.900  0.00  0.00    +0.182 C 
ATOM      5  C   UNL     1      35.062 -23.335 -14.811  0.00  0.00    +0.265 C 
ATOM      6  C   UNL     1      33.736 -23.089 -16.828  0.00  0.00    +0.199 C 
ATOM      7  C   UNL     1      33.827 -23.915 -12.750  0.00  0.00    +0.122 C 
ATOM      8  C   UNL     1      34.953 -23.051 -16.268  0.00  0.00    +0.245 C 
ENDROOT
BRANCH   6  11
ATOM      9  O   UNL     1      33.747 -23.708 -19.093  0.00  0.00    -0.268 OA
ATOM     10  N   UNL     1      33.348 -21.481 -18.533  0.00  0.00    -0.295 N 
ATOM     11  C   UNL     1      33.614 -22.810 -18.266  0.00  0.00    +0.275 C 
ATOM     12  H   UNL     1      33.265 -20.858 -17.775  0.00  0.00    +0.150 HD
BRANCH  10  13
ATOM     13  C   UNL     1      33.186 -20.960 -19.872  0.00  0.00    +0.117 C 
BRANCH  13  15
ATOM     14  F   UNL     1      37.883 -18.497 -21.760  0.00  0.00    -0.204 F 
ATOM     15  C   UNL     1      34.438 -20.303 -20.376  0.00  0.00    -0.002 C 
ATOM     16  C   UNL     1      35.652 -20.525 -19.725  0.00  0.00    -0.000 C 
ATOM     17  C   UNL     1      34.389 -19.471 -21.494  0.00  0.00    -0.000 C 
ATOM     18  C   UNL     1      36.815 -19.914 -20.192  0.00  0.00    +0.029 C 
ATOM     19  C   UNL     1      35.552 -18.860 -21.961  0.00  0.00    +0.029 C 
ATOM     20  C   UNL     1      36.766 -19.082 -21.310  0.00  0.00    +0.140 C 
ENDBRANCH  13  15
ENDBRANCH  10  13
ENDBRANCH   6  11
BRANCH   4  21
ATOM     21  C   UNL     1      31.377 -23.932 -14.158  0.00  0.00    +0.117 C 
ATOM     22  C   UNL     1      31.294 -25.427 -13.884  0.00  0.00    +0.028 C 
ATOM     23  C   UNL     1      31.319 -23.125 -12.868  0.00  0.00    +0.028 C 
BRANCH  21  25
ATOM     24  O   UNL     1      28.634 -24.780 -14.167  0.00  0.00    -0.265 OA
ATOM     25  N   UNL     1      30.351 -23.515 -15.079  0.00  0.00    -0.293 N 
ATOM     26  C   UNL     1      29.045 -23.981 -15.004  0.00  0.00    +0.302 C 
ATOM     27  H   UNL     1      30.585 -22.873 -15.789  0.00  0.00    +0.150 HD
BRANCH  26  31
ATOM     28  O   UNL     1      27.453 -22.298 -15.852  0.00  0.00    -0.416 OA
ATOM     29  N   UNL     1      27.830 -24.054 -17.187  0.00  0.00    -0.102 NA
ATOM     30  N   UNL     1      26.922 -23.224 -17.818  0.00  0.00    -0.111 NA
ATOM     31  C   UNL     1      28.112 -23.474 -16.044  0.00  0.00    +0.304 A 
ATOM     32  C   UNL     1      26.732 -22.214 -17.003  0.00  0.00    +0.227 A 
ATOM     33  C   UNL     1      25.871 -21.035 -17.158  0.00  0.00    +0.097 C 
ENDBRANCH  26  31
ENDBRANCH  21  25
ENDBRANCH   4  21
BRANCH   8  34
ATOM     34  O   UNL     1      36.105 -22.764 -16.965  0.00  0.00    -0.370 OA
ATOM     35  H   UNL     1      36.680 -22.089 -16.662  0.00  0.00    +0.211 HD
ENDBRANCH   8  34
TORSDOF 7
ENDMDL
MODEL 2
REMARK VINA RESULT:     -10.5      3.610      7.287
REMARK  Name = 54671008
REMARK  7 active torsions:
REMARK  status: ('A' for Active; 'I' for Inactive)
REMARK    1  A    between atoms: C_4  and  C_21
REMARK    2  A    between atoms: C_6  and  C_11
REMARK    3  A    between atoms: C_8  and  O_34
REMARK    4  A    between atoms: N_10  and  C_13
REMARK    5  A    between atoms: C_13  and  C_15
REMARK    6  A    between atoms: C_21  and  N_25
REMARK    7  A    between atoms: C_26  and  C_31
REMARK                            x       y       z     vdW  Elec       q    Type
REMARK                         _______ _______ _______ _____ _____    ______ ____
ROOT
ATOM      1  O   UNL     1      32.966 -24.905 -12.770  0.00  0.00    -0.271 OA
ATOM      2  N   UNL     1      35.040 -24.219 -13.613  0.00  0.00    -0.232 N 
ATOM      3  N   UNL     1      35.142 -23.229 -15.772  0.00  0.00    -0.386 NA
ATOM      4  C   UNL     1      35.716 -23.638 -14.682  0.00  0.00    +0.182 C 
ATOM      5  C   UNL     1      33.655 -24.402 -13.656  0.00  0.00    +0.265 C 
ATOM      6  C   UNL     1      33.786 -23.386 -15.855  0.00  0.00    +0.199 C 
ATOM      7  C   UNL     1      35.789 -24.643 -12.431  0.00  0.00    +0.122 C 
ATOM      8  C   UNL     1      33.006 -23.928 -14.909  0.00  0.00    +0.245 C 
ENDROOT
BRANCH   6  11
ATOM      9  O   UNL     1      31.941 -22.981 -17.252  0.00  0.00    -0.268 OA
ATOM     10  N   UNL     1      34.074 -22.419 -18.007  0.00  0.00    -0.295 N 
ATOM     11  C   UNL     1      33.158 -22.914 -17.098  0.00  0.00    +0.275 C 
ATOM     12  H   UNL     1      35.027 -22.422 -17.760  0.00  0.00    +0.150 HD
BRANCH  10  13
ATOM     13  C   UNL     1      33.701 -21.897 -19.302  0.00  0.00    +0.117 C 
BRANCH  13  15
ATOM     14  F   UNL     1      37.555 -18.322 -21.320  0.00  0.00    -0.204 F 
ATOM     15  C   UNL     1      34.729 -20.944 -19.841  0.00  0.00    -0.002 C 
ATOM     16  C   UNL     1      36.060 -21.052 -19.437  0.00  0.00    -0.000 C 
ATOM     17  C   UNL     1      34.353 -19.950 -20.744  0.00  0.00    -0.000 C 
ATOM     18  C   UNL     1      37.014 -20.166 -19.937  0.00  0.00    +0.029 C 
ATOM     19  C   UNL     1      35.307 -19.064 -21.244  0.00  0.00    +0.029 C 
ATOM     20  C   UNL     1      36.638 -19.173 -20.840  0.00  0.00    +0.140 C 
ENDBRANCH  13  15
ENDBRANCH  10  13
ENDBRANCH   6  11
BRANCH   4  21
ATOM     21  C   UNL     1      37.213 -23.470 -14.572  0.00  0.00    +0.117 C 
ATOM     22  C   UNL     1      37.702 -22.499 -15.638  0.00  0.00    +0.028 C 
ATOM     23  C   UNL     1      37.575 -22.990 -13.173  0.00  0.00    +0.028 C 
BRANCH  21  25
ATOM     24  O   UNL     1      39.963 -24.294 -14.568  0.00  0.00    -0.265 OA
ATOM     25  N   UNL     1      37.712 -24.799 -14.811  0.00  0.00    -0.293 N 
ATOM     26  C   UNL     1      39.066 -25.104 -14.788  0.00  0.00    +0.302 C 
ATOM     27  H   UNL     1      37.067 -25.520 -14.997  0.00  0.00    +0.150 HD
BRANCH  26  31
ATOM     28  O   UNL     1      40.561 -26.806 -15.765  0.00  0.00    -0.416 OA
ATOM     29  N   UNL     1      38.729 -27.580 -14.741  0.00  0.00    -0.102 NA
ATOM     30  N   UNL     1      39.439 -28.663 -15.221  0.00  0.00    -0.111 NA
ATOM     31  C   UNL     1      39.420 -26.517 -15.080  0.00  0.00    +0.304 A 
ATOM     32  C   UNL     1      40.500 -28.165 -15.811  0.00  0.00    +0.227 A 
ATOM     33  C   UNL     1      41.601 -28.853 -16.496  0.00  0.00    +0.097 C 
ENDBRANCH  26  31
ENDBRANCH  21  25
ENDBRANCH   4  21
BRANCH   8  34
ATOM     34  O   UNL     1      31.643 -24.069 -15.032  0.00  0.00    -0.370 OA
ATOM     35  H   UNL     1      31.265 -24.257 -15.869  0.00  0.00    +0.211 HD
ENDBRANCH   8  34
TORSDOF 7
ENDMDL
MODEL 3
REMARK VINA RESULT:     -10.3      4.458      8.877
REMARK  Name = 54671008
REMARK  7 active torsions:
REMARK  status: ('A' for Active; 'I' for Inactive)
REMARK    1  A    between atoms: C_4  and  C_21
REMARK    2  A    between atoms: C_6  and  C_11
REMARK    3  A    between atoms: C_8  and  O_34
REMARK    4  A    between atoms: N_10  and  C_13
REMARK    5  A    between atoms: C_13  and  C_15
REMARK    6  A    between atoms: C_21  and  N_25
REMARK    7  A    between atoms: C_26  and  C_31
REMARK                            x       y       z     vdW  Elec       q    Type
REMARK                         _______ _______ _______ _____ _____    ______ ____
ROOT
ATOM      1  O   UNL     1      35.502 -22.767 -16.612  0.00  0.00    -0.271 OA
ATOM      2  N   UNL     1      36.173 -23.399 -14.460  0.00  0.00    -0.232 N 
ATOM      3  N   UNL     1      34.519 -23.993 -12.859  0.00  0.00    -0.386 NA
ATOM      4  C   UNL     1      35.759 -23.815 -13.197  0.00  0.00    +0.182 C 
ATOM      5  C   UNL     1      35.242 -23.140 -15.469  0.00  0.00    +0.265 C 
ATOM      6  C   UNL     1      33.574 -23.753 -13.818  0.00  0.00    +0.199 C 
ATOM      7  C   UNL     1      37.600 -23.232 -14.732  0.00  0.00    +0.122 C 
ATOM      8  C   UNL     1      33.823 -23.349 -15.071  0.00  0.00    +0.245 C 
ENDROOT
BRANCH   6  11
ATOM      9  O   UNL     1      31.725 -23.415 -12.409  0.00  0.00    -0.268 OA
ATOM     10  N   UNL     1      31.492 -24.809 -14.263  0.00  0.00    -0.295 N 
ATOM     11  C   UNL     1      32.177 -23.962 -13.412  0.00  0.00    +0.275 C 
ATOM     12  H   UNL     1      31.973 -25.184 -15.036  0.00  0.00    +0.150 HD
BRANCH  10  13
ATOM     13  C   UNL     1      30.105 -25.170 -14.075  0.00  0.00    +0.117 C 
BRANCH  13  15
ATOM     14  F   UNL     1      26.650 -21.910 -17.096  0.00  0.00    -0.204 F 
ATOM     15  C   UNL     1      29.184 -24.301 -14.880  0.00  0.00    -0.002 C 
ATOM     16  C   UNL     1      28.755 -24.719 -16.140  0.00  0.00    -0.000 C 
ATOM     17  C   UNL     1      28.757 -23.075 -14.370  0.00  0.00    -0.000 C 
ATOM     18  C   UNL     1      27.899 -23.911 -16.889  0.00  0.00    +0.029 C 
ATOM     19  C   UNL     1      27.901 -22.267 -15.118  0.00  0.00    +0.029 C 
ATOM     20  C   UNL     1      27.472 -22.685 -16.378  0.00  0.00    +0.140 C 
ENDBRANCH  13  15
ENDBRANCH  10  13
ENDBRANCH   6  11
BRANCH   4  21
ATOM     21  C   UNL     1      36.817 -24.078 -12.152  0.00  0.00    +0.117 C 
ATOM     22  C   UNL     1      37.307 -22.758 -11.574  0.00  0.00    +0.028 C 
ATOM     23  C   UNL     1      36.254 -24.986 -11.067  0.00  0.00    +0.028 C 
BRANCH  21  25
ATOM     24  O   UNL     1      37.155 -26.910 -12.479  0.00  0.00    -0.265 OA
ATOM     25  N   UNL     1      37.858 -24.739 -12.895  0.00  0.00    -0.293 N 
ATOM     26  C   UNL     1      37.940 -26.121 -12.998  0.00  0.00    +0.302 C 
ATOM     27  H   UNL     1      38.537 -24.188 -13.349  0.00  0.00    +0.150 HD
BRANCH  26  31
ATOM     28  O   UNL     1      38.866 -27.399 -14.894  0.00  0.00    -0.416 OA
ATOM     29  N   UNL     1      40.361 -26.468 -13.513  0.00  0.00    -0.102 NA
ATOM     30  N   UNL     1      41.054 -27.137 -14.505  0.00  0.00    -0.111 NA
ATOM     31  C   UNL     1      39.089 -26.648 -13.780  0.00  0.00    +0.304 A 
ATOM     32  C   UNL     1      40.142 -27.665 -15.287  0.00  0.00    +0.227 A 
ATOM     33  C   UNL     1      40.304 -28.480 -16.497  0.00  0.00    +0.097 C 
ENDBRANCH  26  31
ENDBRANCH  21  25
ENDBRANCH   4  21
BRANCH   8  34
ATOM     34  O   UNL     1      32.842 -23.116 -16.008  0.00  0.00    -0.370 OA
ATOM     35  H   UNL     1      31.946 -23.044 -15.740  0.00  0.00    +0.211 HD
ENDBRANCH   8  34
TORSDOF 7
ENDMDL
MODEL 4
REMARK VINA RESULT:     -10.3      2.331      5.923
REMARK  Name = 54671008
REMARK  7 active torsions:
REMARK  status: ('A' for Active; 'I' for Inactive)
REMARK    1  A    between atoms: C_4  and  C_21
REMARK    2  A    between atoms: C_6  and  C_11
REMARK    3  A    between atoms: C_8  and  O_34
REMARK    4  A    between atoms: N_10  and  C_13
REMARK    5  A    between atoms: C_13  and  C_15
REMARK    6  A    between atoms: C_21  and  N_25
REMARK    7  A    between atoms: C_26  and  C_31
REMARK                            x       y       z     vdW  Elec       q    Type
REMARK                         _______ _______ _______ _____ _____    ______ ____
ROOT
ATOM      1  O   UNL     1      30.270 -22.520 -17.032  0.00  0.00    -0.271 OA
ATOM      2  N   UNL     1      31.362 -23.373 -15.145  0.00  0.00    -0.232 N 
ATOM      3  N   UNL     1      33.736 -23.496 -15.138  0.00  0.00    -0.386 NA
ATOM      4  C   UNL     1      32.589 -23.682 -14.562  0.00  0.00    +0.182 C 
ATOM      5  C   UNL     1      31.298 -22.825 -16.429  0.00  0.00    +0.265 C 
ATOM      6  C   UNL     1      33.720 -22.959 -16.396  0.00  0.00    +0.199 C 
ATOM      7  C   UNL     1      30.128 -23.624 -14.403  0.00  0.00    +0.122 C 
ATOM      8  C   UNL     1      32.620 -22.614 -17.080  0.00  0.00    +0.245 C 
ENDROOT
BRANCH   6  11
ATOM      9  O   UNL     1      36.055 -23.184 -16.500  0.00  0.00    -0.268 OA
ATOM     10  N   UNL     1      34.952 -22.059 -18.218  0.00  0.00    -0.295 N 
ATOM     11  C   UNL     1      35.032 -22.756 -17.027  0.00  0.00    +0.275 C 
ATOM     12  H   UNL     1      34.065 -21.770 -18.532  0.00  0.00    +0.150 HD
BRANCH  10  13
ATOM     13  C   UNL     1      36.106 -21.734 -19.024  0.00  0.00    +0.117 C 
BRANCH  13  15
ATOM     14  F   UNL     1      35.062 -17.509 -22.596  0.00  0.00    -0.204 F 
ATOM     15  C   UNL     1      35.828 -20.608 -19.977  0.00  0.00    -0.002 C 
ATOM     16  C   UNL     1      36.829 -19.683 -20.274  0.00  0.00    -0.000 C 
ATOM     17  C   UNL     1      34.569 -20.486 -20.565  0.00  0.00    -0.000 C 
ATOM     18  C   UNL     1      36.570 -18.636 -21.159  0.00  0.00    +0.029 C 
ATOM     19  C   UNL     1      34.310 -19.439 -21.449  0.00  0.00    +0.029 C 
ATOM     20  C   UNL     1      35.311 -18.514 -21.746  0.00  0.00    +0.140 C 
ENDBRANCH  13  15
ENDBRANCH  10  13
ENDBRANCH   6  11
BRANCH   4  21
ATOM     21  C   UNL     1      32.588 -24.272 -13.172  0.00  0.00    +0.117 C 
ATOM     22  C   UNL     1      32.358 -23.171 -12.146  0.00  0.00    +0.028 C 
ATOM     23  C   UNL     1      31.523 -25.356 -13.073  0.00  0.00    +0.028 C 
BRANCH  21  25
ATOM     24  O   UNL     1      34.529 -23.650 -11.151  0.00  0.00    -0.265 OA
ATOM     25  N   UNL     1      33.910 -24.829 -13.050  0.00  0.00    -0.293 N 
ATOM     26  C   UNL     1      34.783 -24.466 -12.033  0.00  0.00    +0.302 C 
ATOM     27  H   UNL     1      34.206 -25.495 -13.713  0.00  0.00    +0.150 HD
BRANCH  26  31
ATOM     28  O   UNL     1      36.966 -24.881 -13.103  0.00  0.00    -0.416 OA
ATOM     29  N   UNL     1      36.613 -25.924 -11.155  0.00  0.00    -0.102 NA
ATOM     30  N   UNL     1      37.874 -26.271 -11.602  0.00  0.00    -0.111 NA
ATOM     31  C   UNL     1      36.120 -25.112 -12.061  0.00  0.00    +0.304 A 
ATOM     32  C   UNL     1      38.037 -25.640 -12.741  0.00  0.00    +0.227 A 
ATOM     33  C   UNL     1      39.186 -25.639 -13.655  0.00  0.00    +0.097 C 
ENDBRANCH  26  31
ENDBRANCH  21  25
ENDBRANCH   4  21
BRANCH   8  34
ATOM     34  O   UNL     1      32.645 -22.077 -18.346  0.00  0.00    -0.370 OA
ATOM     35  H   UNL     1      32.298 -21.220 -18.499  0.00  0.00    +0.211 HD
ENDBRANCH   8  34
TORSDOF 7
ENDMDL
MODEL 5
REMARK VINA RESULT:     -10.3      2.118      3.182
REMARK  Name = 54671008
REMARK  7 active torsions:
REMARK  status: ('A' for Active; 'I' for Inactive)
REMARK    1  A    between atoms: C_4  and  C_21
REMARK    2  A    between atoms: C_6  and  C_11
REMARK    3  A    between atoms: C_8  and  O_34
REMARK    4  A    between atoms: N_10  and  C_13
REMARK    5  A    between atoms: C_13  and  C_15
REMARK    6  A    between atoms: C_21  and  N_25
REMARK    7  A    between atoms: C_26  and  C_31
REMARK                            x       y       z     vdW  Elec       q    Type
REMARK                         _______ _______ _______ _____ _____    ______ ____
ROOT
ATOM      1  O   UNL     1      38.251 -21.203 -16.277  0.00  0.00    -0.271 OA
ATOM      2  N   UNL     1      36.682 -22.666 -15.338  0.00  0.00    -0.232 N 
ATOM      3  N   UNL     1      34.749 -23.251 -16.591  0.00  0.00    -0.386 NA
ATOM      4  C   UNL     1      35.474 -23.335 -15.519  0.00  0.00    +0.182 C 
ATOM      5  C   UNL     1      37.199 -21.838 -16.338  0.00  0.00    +0.265 C 
ATOM      6  C   UNL     1      35.218 -22.451 -17.597  0.00  0.00    +0.199 C 
ATOM      7  C   UNL     1      37.419 -22.835 -14.087  0.00  0.00    +0.122 C 
ATOM      8  C   UNL     1      36.359 -21.749 -17.564  0.00  0.00    +0.245 C 
ENDROOT
BRANCH   6  11
ATOM      9  O   UNL     1      33.752 -23.353 -19.195  0.00  0.00    -0.268 OA
ATOM     10  N   UNL     1      34.401 -21.123 -19.390  0.00  0.00    -0.295 N 
ATOM     11  C   UNL     1      34.380 -22.373 -18.802  0.00  0.00    +0.275 C 
ATOM     12  H   UNL     1      34.949 -20.419 -18.973  0.00  0.00    +0.150 HD
BRANCH  10  13
ATOM     13  C   UNL     1      33.658 -20.797 -20.586  0.00  0.00    +0.117 C 
BRANCH  13  15
ATOM     14  F   UNL     1      35.949 -16.481 -23.383  0.00  0.00    -0.204 F 
ATOM     15  C   UNL     1      34.269 -19.646 -21.332  0.00  0.00    -0.002 C 
ATOM     16  C   UNL     1      34.030 -19.495 -22.698  0.00  0.00    -0.000 C 
ATOM     17  C   UNL     1      35.075 -18.727 -20.659  0.00  0.00    -0.000 C 
ATOM     18  C   UNL     1      34.598 -18.426 -23.390  0.00  0.00    +0.029 C 
ATOM     19  C   UNL     1      35.643 -17.658 -21.352  0.00  0.00    +0.029 C 
ATOM     20  C   UNL     1      35.404 -17.508 -22.718  0.00  0.00    +0.140 C 
ENDBRANCH  13  15
ENDBRANCH  10  13
ENDBRANCH   6  11
BRANCH   4  21
ATOM     21  C   UNL     1      34.973 -24.215 -14.399  0.00  0.00    +0.117 C 
ATOM     22  C   UNL     1      35.601 -25.597 -14.510  0.00  0.00    +0.028 C 
ATOM     23  C   UNL     1      35.284 -23.568 -13.056  0.00  0.00    +0.028 C 
BRANCH  21  25
ATOM     24  O   UNL     1      32.941 -24.842 -12.470  0.00  0.00    -0.265 OA
ATOM     25  N   UNL     1      33.553 -24.269 -14.633  0.00  0.00    -0.293 N 
ATOM     26  C   UNL     1      32.642 -24.582 -13.633  0.00  0.00    +0.302 C 
ATOM     27  H   UNL     1      33.215 -24.075 -15.538  0.00  0.00    +0.150 HD
BRANCH  26  31
ATOM     28  O   UNL     1      30.610 -23.496 -14.512  0.00  0.00    -0.416 OA
ATOM     29  N   UNL     1      30.421 -25.667 -14.003  0.00  0.00    -0.102 NA
ATOM     30  N   UNL     1      29.198 -25.231 -14.476  0.00  0.00    -0.111 NA
ATOM     31  C   UNL     1      31.214 -24.622 -14.042  0.00  0.00    +0.304 A 
ATOM     32  C   UNL     1      29.354 -23.959 -14.760  0.00  0.00    +0.227 A 
ATOM     33  C   UNL     1      28.387 -22.993 -15.296  0.00  0.00    +0.097 C 
ENDBRANCH  26  31
ENDBRANCH  21  25
ENDBRANCH   4  21
BRANCH   8  34
ATOM     34  O   UNL     1      36.797 -20.954 -18.599  0.00  0.00    -0.370 OA
ATOM     35  H   UNL     1      36.272 -20.235 -18.891  0.00  0.00    +0.211 HD
ENDBRANCH   8  34
TORSDOF 7
ENDMDL
MODEL 6
REMARK VINA RESULT:      -9.8      2.747      6.444
REMARK  Name = 54671008
REMARK  7 active torsions:
REMARK  status: ('A' for Active; 'I' for Inactive)
REMARK    1  A    between atoms: C_4  and  C_21
REMARK    2  A    between atoms: C_6  and  C_11
REMARK    3  A    between atoms: C_8  and  O_34
REMARK    4  A    between atoms: N_10  and  C_13
REMARK    5  A    between atoms: C_13  and  C_15
REMARK    6  A    between atoms: C_21  and  N_25
REMARK    7  A    between atoms: C_26  and  C_31
REMARK                            x       y       z     vdW  Elec       q    Type
REMARK                         _______ _______ _______ _____ _____    ______ ____
ROOT
ATOM      1  O   UNL     1      30.551 -22.425 -16.796  0.00  0.00    -0.271 OA
ATOM      2  N   UNL     1      32.289 -23.301 -15.494  0.00  0.00    -0.232 N 
ATOM      3  N   UNL     1      34.493 -23.344 -16.383  0.00  0.00    -0.386 NA
ATOM      4  C   UNL     1      33.650 -23.587 -15.427  0.00  0.00    +0.182 C 
ATOM      5  C   UNL     1      31.736 -22.715 -16.636  0.00  0.00    +0.265 C 
ATOM      6  C   UNL     1      33.995 -22.769 -17.519  0.00  0.00    +0.199 C 
ATOM      7  C   UNL     1      31.429 -23.616 -14.354  0.00  0.00    +0.122 C 
ATOM      8  C   UNL     1      32.712 -22.439 -17.725  0.00  0.00    +0.245 C 
ENDROOT
BRANCH   6  11
ATOM      9  O   UNL     1      35.008 -23.207 -19.592  0.00  0.00    -0.268 OA
ATOM     10  N   UNL     1      35.781 -21.418 -18.312  0.00  0.00    -0.295 N 
ATOM     11  C   UNL     1      34.969 -22.502 -18.587  0.00  0.00    +0.275 C 
ATOM     12  H   UNL     1      35.647 -20.935 -17.465  0.00  0.00    +0.150 HD
BRANCH  10  13
ATOM     13  C   UNL     1      36.818 -20.959 -19.209  0.00  0.00    +0.117 C 
BRANCH  13  15
ATOM     14  F   UNL     1      34.793 -17.534 -23.193  0.00  0.00    -0.204 F 
ATOM     15  C   UNL     1      36.278 -20.045 -20.271  0.00  0.00    -0.002 C 
ATOM     16  C   UNL     1      34.948 -20.157 -20.677  0.00  0.00    -0.000 C 
ATOM     17  C   UNL     1      37.106 -19.085 -20.853  0.00  0.00    -0.000 C 
ATOM     18  C   UNL     1      34.447 -19.309 -21.664  0.00  0.00    +0.029 C 
ATOM     19  C   UNL     1      36.605 -18.237 -21.840  0.00  0.00    +0.029 C 
ATOM     20  C   UNL     1      35.275 -18.349 -22.246  0.00  0.00    +0.140 C 
ENDBRANCH  13  15
ENDBRANCH  10  13
ENDBRANCH   6  11
BRANCH   4  21
ATOM     21  C   UNL     1      34.183 -24.220 -14.164  0.00  0.00    +0.117 C 
ATOM     22  C   UNL     1      34.066 -23.237 -13.007  0.00  0.00    +0.028 C 
ATOM     23  C   UNL     1      33.429 -25.511 -13.877  0.00  0.00    +0.028 C 
BRANCH  21  25
ATOM     24  O   UNL     1      36.168 -25.328 -12.411  0.00  0.00    -0.265 OA
ATOM     25  N   UNL     1      35.562 -24.484 -14.484  0.00  0.00    -0.293 N 
ATOM     26  C   UNL     1      36.452 -25.025 -13.566  0.00  0.00    +0.302 C 
ATOM     27  H   UNL     1      35.886 -24.273 -15.390  0.00  0.00    +0.150 HD
BRANCH  26  31
ATOM     28  O   UNL     1      38.303 -26.461 -14.339  0.00  0.00    -0.416 OA
ATOM     29  N   UNL     1      38.741 -24.270 -14.227  0.00  0.00    -0.102 NA
ATOM     30  N   UNL     1      39.881 -24.911 -14.674  0.00  0.00    -0.111 NA
ATOM     31  C   UNL     1      37.846 -25.212 -14.044  0.00  0.00    +0.304 A 
ATOM     32  C   UNL     1      39.579 -26.187 -14.724  0.00  0.00    +0.227 A 
ATOM     33  C   UNL     1      40.407 -27.331 -15.128  0.00  0.00    +0.097 C 
ENDBRANCH  26  31
ENDBRANCH  21  25
ENDBRANCH   4  21
BRANCH   8  34
ATOM     34  O   UNL     1      32.249 -21.862 -18.886  0.00  0.00    -0.370 OA
ATOM     35  H   UNL     1      31.359 -21.576 -18.944  0.00  0.00    +0.211 HD
ENDBRANCH   8  34
TORSDOF 7
ENDMDL
MODEL 7
REMARK VINA RESULT:      -9.6      3.275      6.913
REMARK  Name = 54671008
REMARK  7 active torsions:
REMARK  status: ('A' for Active; 'I' for Inactive)
REMARK    1  A    between atoms: C_4  and  C_21
REMARK    2  A    between atoms: C_6  and  C_11
REMARK    3  A    between atoms: C_8  and  O_34
REMARK    4  A    between atoms: N_10  and  C_13
REMARK    5  A    between atoms: C_13  and  C_15
REMARK    6  A    between atoms: C_21  and  N_25
REMARK    7  A    between atoms: C_26  and  C_31
REMARK                            x       y       z     vdW  Elec       q    Type
REMARK                         _______ _______ _______ _____ _____    ______ ____
ROOT
ATOM      1  O   UNL     1      31.673 -22.567 -17.610  0.00  0.00    -0.271 OA
ATOM      2  N   UNL     1      33.378 -23.184 -16.129  0.00  0.00    -0.232 N 
ATOM      3  N   UNL     1      35.638 -22.733 -16.713  0.00  0.00    -0.386 NA
ATOM      4  C   UNL     1      34.751 -23.205 -15.893  0.00  0.00    +0.182 C 
ATOM      5  C   UNL     1      32.863 -22.633 -17.305  0.00  0.00    +0.265 C 
ATOM      6  C   UNL     1      35.177 -22.182 -17.877  0.00  0.00    +0.199 C 
ATOM      7  C   UNL     1      32.466 -23.744 -15.133  0.00  0.00    +0.122 C 
ATOM      8  C   UNL     1      33.890 -22.093 -18.238  0.00  0.00    +0.245 C 
ENDROOT
BRANCH   6  11
ATOM      9  O   UNL     1      37.212 -22.303 -19.044  0.00  0.00    -0.268 OA
ATOM     10  N   UNL     1      35.885 -20.401 -19.282  0.00  0.00    -0.295 N 
ATOM     11  C   UNL     1      36.202 -21.653 -18.789  0.00  0.00    +0.275 C 
ATOM     12  H   UNL     1      35.039 -19.986 -18.997  0.00  0.00    +0.150 HD
BRANCH  10  13
ATOM     13  C   UNL     1      36.734 -19.672 -20.196  0.00  0.00    +0.117 C 
BRANCH  13  15
ATOM     14  F   UNL     1      33.801 -17.357 -24.408  0.00  0.00    -0.204 F 
ATOM     15  C   UNL     1      35.952 -19.055 -21.320  0.00  0.00    -0.002 C 
ATOM     16  C   UNL     1      35.087 -19.841 -22.081  0.00  0.00    -0.000 C 
ATOM     17  C   UNL     1      36.091 -17.696 -21.602  0.00  0.00    -0.000 C 
ATOM     18  C   UNL     1      34.361 -19.267 -23.124  0.00  0.00    +0.029 C 
ATOM     19  C   UNL     1      35.365 -17.122 -22.646  0.00  0.00    +0.029 C 
ATOM     20  C   UNL     1      34.499 -17.908 -23.407  0.00  0.00    +0.140 C 
ENDBRANCH  13  15
ENDBRANCH  10  13
ENDBRANCH   6  11
BRANCH   4  21
ATOM     21  C   UNL     1      35.241 -23.815 -14.601  0.00  0.00    +0.117 C 
ATOM     22  C   UNL     1      35.425 -22.725 -13.555  0.00  0.00    +0.028 C 
ATOM     23  C   UNL     1      34.261 -24.880 -14.130  0.00  0.00    +0.028 C 
BRANCH  21  25
ATOM     24  O   UNL     1      37.078 -25.171 -12.861  0.00  0.00    -0.265 OA
ATOM     25  N   UNL     1      36.505 -24.399 -14.972  0.00  0.00    -0.293 N 
ATOM     26  C   UNL     1      37.329 -25.038 -14.056  0.00  0.00    +0.302 C 
ATOM     27  H   UNL     1      36.794 -24.342 -15.912  0.00  0.00    +0.150 HD
BRANCH  26  31
ATOM     28  O   UNL     1      38.709 -26.872 -14.959  0.00  0.00    -0.416 OA
ATOM     29  N   UNL     1      39.722 -24.886 -14.762  0.00  0.00    -0.102 NA
ATOM     30  N   UNL     1      40.637 -25.783 -15.279  0.00  0.00    -0.111 NA
ATOM     31  C   UNL     1      38.611 -25.565 -14.592  0.00  0.00    +0.304 A 
ATOM     32  C   UNL     1      40.004 -26.928 -15.377  0.00  0.00    +0.227 A 
ATOM     33  C   UNL     1      40.486 -28.227 -15.863  0.00  0.00    +0.097 C 
ENDBRANCH  26  31
ENDBRANCH  21  25
ENDBRANCH   4  21
BRANCH   8  34
ATOM     34  O   UNL     1      33.466 -21.531 -19.421  0.00  0.00    -0.370 OA
ATOM     35  H   UNL     1      32.567 -21.294 -19.531  0.00  0.00    +0.211 HD
ENDBRANCH   8  34
TORSDOF 7
ENDMDL
