MODEL 1
REMARK VINA RESULT:     -11.5      0.000      0.000
REMARK  Name = 46937030
REMARK  7 active torsions:
REMARK  status: ('A' for Active; 'I' for Inactive)
REMARK    1  A    between atoms: C_3  and  C_10
REMARK    2  A    between atoms: C_7  and  C_25
REMARK    3  A    between atoms: N_9  and  C_12
REMARK    4  A    between atoms: C_12  and  C_13
REMARK    5  A    between atoms: C_18  and  C_21
REMARK    6  A    between atoms: C_25  and  N_26
REMARK    7  A    between atoms: N_26  and  C_29
REMARK                            x       y       z     vdW  Elec       q    Type
REMARK                         _______ _______ _______ _____ _____    ______ ____
ROOT
ATOM      1  O   UNL     1      35.489 -25.408 -11.377  0.00  0.00    -0.277 OA
ATOM      2  N   UNL     1      36.181 -24.218 -13.232  0.00  0.00    -0.275 N 
ATOM      3  C   UNL     1      36.032 -23.172 -14.243  0.00  0.00    +0.152 C 
ATOM      4  C   UNL     1      37.461 -22.838 -14.659  0.00  0.00    +0.031 C 
ATOM      5  C   UNL     1      37.544 -24.733 -13.208  0.00  0.00    +0.094 C 
ATOM      6  C   UNL     1      38.209 -24.151 -14.445  0.00  0.00    +0.024 C 
ATOM      7  C   UNL     1      35.248 -24.613 -12.287  0.00  0.00    +0.204 C 
ENDROOT
BRANCH   3  10
ATOM      8  O   UNL     1      35.064 -24.956 -15.501  0.00  0.00    -0.273 OA
ATOM      9  N   UNL     1      34.858 -22.776 -16.292  0.00  0.00    -0.299 N 
ATOM     10  C   UNL     1      35.266 -23.749 -15.395  0.00  0.00    +0.241 C 
ATOM     11  H   UNL     1      35.080 -21.837 -16.098  0.00  0.00    +0.150 HD
BRANCH   9  12
ATOM     12  C   UNL     1      34.122 -23.072 -17.500  0.00  0.00    +0.116 C 
BRANCH  12  13
ATOM     13  C   UNL     1      34.350 -22.038 -18.565  0.00  0.00    -0.003 C 
ATOM     14  C   UNL     1      35.650 -21.650 -18.891  0.00  0.00    -0.003 C 
ATOM     15  C   UNL     1      33.264 -21.466 -19.226  0.00  0.00    -0.003 C 
ATOM     16  C   UNL     1      35.863 -20.689 -19.880  0.00  0.00    +0.002 C 
ATOM     17  C   UNL     1      33.477 -20.505 -20.215  0.00  0.00    +0.002 C 
ATOM     18  C   UNL     1      34.776 -20.117 -20.542  0.00  0.00    +0.031 C 
BRANCH  18  21
ATOM     19  N   UNL     1      34.529 -19.299 -22.873  0.00  0.00    -0.343 N 
ATOM     20  N   UNL     1      35.660 -18.010 -21.286  0.00  0.00    -0.285 NA
ATOM     21  C   UNL     1      34.998 -19.117 -21.573  0.00  0.00    +0.117 C 
ATOM     22  H   UNL     1      34.690 -18.608 -23.556  0.00  0.00    +0.144 HD
ATOM     23  H   UNL     1      34.037 -20.118 -23.108  0.00  0.00    +0.144 HD
ATOM     24  H   UNL     1      35.811 -17.331 -21.983  0.00  0.00    +0.188 HD
ENDBRANCH  18  21
ENDBRANCH  12  13
ENDBRANCH   9  12
ENDBRANCH   3  10
BRANCH   7  25
ATOM     25  C   UNL     1      33.873 -24.008 -12.419  0.00  0.00    +0.006 C 
BRANCH  25  26
ATOM     26  N   UNL     1      33.050 -24.974 -13.128  0.00  0.00    +0.391 N 
ATOM     27  H   UNL     1      33.317 -24.983 -14.114  0.00  0.00    -0.084 HD
ATOM     28  H   UNL     1      33.195 -25.895 -12.716  0.00  0.00    -0.084 HD
BRANCH  26  29
ATOM     29  C   UNL     1      31.631 -24.623 -13.017  0.00  0.00    -0.061 C 
ATOM     30  C   UNL     1      31.429 -23.123 -13.270  0.00  0.00    -0.021 C 
ATOM     31  C   UNL     1      30.810 -25.588 -13.886  0.00  0.00    -0.021 C 
ATOM     32  C   UNL     1      29.332 -25.222 -14.034  0.00  0.00    -0.002 C 
ATOM     33  C   UNL     1      31.801 -22.581 -14.650  0.00  0.00    -0.002 C 
ATOM     34  C   UNL     1      28.966 -24.595 -15.382  0.00  0.00    -0.000 C 
ATOM     35  C   UNL     1      31.016 -23.108 -15.851  0.00  0.00    -0.000 C 
ATOM     36  C   UNL     1      29.501 -23.186 -15.655  0.00  0.00    -0.000 C 
ENDBRANCH  26  29
ENDBRANCH  25  26
ENDBRANCH   7  25
TORSDOF 7
ENDMDL
MODEL 2
REMARK VINA RESULT:     -10.1      2.210      6.656
REMARK  Name = 46937030
REMARK  7 active torsions:
REMARK  status: ('A' for Active; 'I' for Inactive)
REMARK    1  A    between atoms: C_3  and  C_10
REMARK    2  A    between atoms: C_7  and  C_25
REMARK    3  A    between atoms: N_9  and  C_12
REMARK    4  A    between atoms: C_12  and  C_13
REMARK    5  A    between atoms: C_18  and  C_21
REMARK    6  A    between atoms: C_25  and  N_26
REMARK    7  A    between atoms: N_26  and  C_29
REMARK                            x       y       z     vdW  Elec       q    Type
REMARK                         _______ _______ _______ _____ _____    ______ ____
ROOT
ATOM      1  O   UNL     1      38.202 -22.439 -15.940  0.00  0.00    -0.277 OA
ATOM      2  N   UNL     1      37.214 -24.210 -14.834  0.00  0.00    -0.275 N 
ATOM      3  C   UNL     1      36.130 -25.163 -14.600  0.00  0.00    +0.152 C 
ATOM      4  C   UNL     1      36.816 -26.376 -13.980  0.00  0.00    +0.031 C 
ATOM      5  C   UNL     1      38.435 -24.630 -14.158  0.00  0.00    +0.094 C 
ATOM      6  C   UNL     1      38.012 -25.772 -13.248  0.00  0.00    +0.024 C 
ATOM      7  C   UNL     1      37.206 -23.120 -15.690  0.00  0.00    +0.204 C 
ENDROOT
BRANCH   3  10
ATOM      8  O   UNL     1      35.536 -23.725 -12.789  0.00  0.00    -0.273 OA
ATOM      9  N   UNL     1      33.881 -25.017 -13.794  0.00  0.00    -0.299 N 
ATOM     10  C   UNL     1      35.171 -24.543 -13.630  0.00  0.00    +0.241 C 
ATOM     11  H   UNL     1      33.709 -25.675 -14.507  0.00  0.00    +0.150 HD
BRANCH   9  12
ATOM     12  C   UNL     1      32.771 -24.595 -12.969  0.00  0.00    +0.116 C 
BRANCH  12  13
ATOM     13  C   UNL     1      31.537 -24.327 -13.781  0.00  0.00    -0.003 C 
ATOM     14  C   UNL     1      31.468 -23.191 -14.588  0.00  0.00    -0.003 C 
ATOM     15  C   UNL     1      30.461 -25.212 -13.728  0.00  0.00    -0.003 C 
ATOM     16  C   UNL     1      30.322 -22.941 -15.343  0.00  0.00    +0.002 C 
ATOM     17  C   UNL     1      29.315 -24.962 -14.483  0.00  0.00    +0.002 C 
ATOM     18  C   UNL     1      29.245 -23.827 -15.291  0.00  0.00    +0.031 C 
BRANCH  18  21
ATOM     19  N   UNL     1      27.215 -22.488 -15.793  0.00  0.00    -0.343 N 
ATOM     20  N   UNL     1      27.738 -24.366 -17.083  0.00  0.00    -0.285 NA
ATOM     21  C   UNL     1      28.051 -23.567 -16.078  0.00  0.00    +0.117 C 
ATOM     22  H   UNL     1      26.412 -22.331 -16.340  0.00  0.00    +0.144 HD
ATOM     23  H   UNL     1      27.429 -21.884 -15.047  0.00  0.00    +0.144 HD
ATOM     24  H   UNL     1      26.929 -24.192 -17.617  0.00  0.00    +0.188 HD
ENDBRANCH  18  21
ENDBRANCH  12  13
ENDBRANCH   9  12
ENDBRANCH   3  10
BRANCH   7  25
ATOM     25  C   UNL     1      35.881 -22.789 -16.329  0.00  0.00    +0.006 C 
BRANCH  25  26
ATOM     26  N   UNL     1      36.056 -21.537 -17.046  0.00  0.00    +0.391 N 
ATOM     27  H   UNL     1      35.305 -20.895 -16.790  0.00  0.00    -0.084 HD
ATOM     28  H   UNL     1      36.961 -21.138 -16.796  0.00  0.00    -0.084 HD
BRANCH  26  29
ATOM     29  C   UNL     1      36.024 -21.763 -18.495  0.00  0.00    -0.061 C 
ATOM     30  C   UNL     1      34.742 -22.507 -18.891  0.00  0.00    -0.021 C 
ATOM     31  C   UNL     1      36.303 -20.433 -19.212  0.00  0.00    -0.021 C 
ATOM     32  C   UNL     1      36.101 -20.465 -20.728  0.00  0.00    -0.002 C 
ATOM     33  C   UNL     1      33.408 -21.807 -18.631  0.00  0.00    -0.002 C 
ATOM     34  C   UNL     1      34.807 -19.802 -21.209  0.00  0.00    -0.000 C 
ATOM     35  C   UNL     1      33.137 -20.502 -19.378  0.00  0.00    -0.000 C 
ATOM     36  C   UNL     1      33.497 -20.515 -20.864  0.00  0.00    -0.000 C 
ENDBRANCH  26  29
ENDBRANCH  25  26
ENDBRANCH   7  25
TORSDOF 7
ENDMDL
MODEL 3
REMARK VINA RESULT:      -9.7      1.561      2.058
REMARK  Name = 46937030
REMARK  7 active torsions:
REMARK  status: ('A' for Active; 'I' for Inactive)
REMARK    1  A    between atoms: C_3  and  C_10
REMARK    2  A    between atoms: C_7  and  C_25
REMARK    3  A    between atoms: N_9  and  C_12
REMARK    4  A    between atoms: C_12  and  C_13
REMARK    5  A    between atoms: C_18  and  C_21
REMARK    6  A    between atoms: C_25  and  N_26
REMARK    7  A    between atoms: N_26  and  C_29
REMARK                            x       y       z     vdW  Elec       q    Type
REMARK                         _______ _______ _______ _____ _____    ______ ____
ROOT
ATOM      1  O   UNL     1      34.488 -25.421 -11.171  0.00  0.00    -0.277 OA
ATOM      2  N   UNL     1      36.188 -24.042 -11.908  0.00  0.00    -0.275 N 
ATOM      3  C   UNL     1      36.719 -22.926 -12.690  0.00  0.00    +0.152 C 
ATOM      4  C   UNL     1      37.955 -22.474 -11.919  0.00  0.00    +0.031 C 
ATOM      5  C   UNL     1      37.145 -24.475 -10.898  0.00  0.00    +0.094 C 
ATOM      6  C   UNL     1      38.438 -23.754 -11.241  0.00  0.00    +0.024 C 
ATOM      7  C   UNL     1      34.907 -24.569 -11.956  0.00  0.00    +0.204 C 
ENDROOT
BRANCH   3  10
ATOM      8  O   UNL     1      37.270 -24.648 -14.249  0.00  0.00    -0.273 OA
ATOM      9  N   UNL     1      37.246 -22.436 -14.973  0.00  0.00    -0.299 N 
ATOM     10  C   UNL     1      37.099 -23.450 -14.042  0.00  0.00    +0.241 C 
ATOM     11  H   UNL     1      37.080 -21.509 -14.688  0.00  0.00    +0.150 HD
BRANCH   9  12
ATOM     12  C   UNL     1      37.630 -22.673 -16.347  0.00  0.00    +0.116 C 
BRANCH  12  13
ATOM     13  C   UNL     1      36.592 -22.180 -17.314  0.00  0.00    -0.003 C 
ATOM     14  C   UNL     1      36.965 -21.355 -18.375  0.00  0.00    -0.003 C 
ATOM     15  C   UNL     1      35.257 -22.546 -17.150  0.00  0.00    -0.003 C 
ATOM     16  C   UNL     1      36.001 -20.897 -19.274  0.00  0.00    +0.002 C 
ATOM     17  C   UNL     1      34.293 -22.088 -18.048  0.00  0.00    +0.002 C 
ATOM     18  C   UNL     1      34.665 -21.264 -19.110  0.00  0.00    +0.031 C 
BRANCH  18  21
ATOM     19  N   UNL     1      34.011 -20.030 -21.163  0.00  0.00    -0.343 N 
ATOM     20  N   UNL     1      32.385 -21.068 -19.845  0.00  0.00    -0.285 NA
ATOM     21  C   UNL     1      33.661 -20.788 -20.047  0.00  0.00    +0.117 C 
ATOM     22  H   UNL     1      33.314 -19.718 -21.785  0.00  0.00    +0.144 HD
ATOM     23  H   UNL     1      34.955 -19.808 -21.330  0.00  0.00    +0.144 HD
ATOM     24  H   UNL     1      31.703 -20.746 -20.477  0.00  0.00    +0.188 HD
ENDBRANCH  18  21
ENDBRANCH  12  13
ENDBRANCH   9  12
ENDBRANCH   3  10
BRANCH   7  25
ATOM     25  C   UNL     1      34.012 -24.038 -13.047  0.00  0.00    +0.006 C 
BRANCH  25  26
ATOM     26  N   UNL     1      33.023 -25.066 -13.323  0.00  0.00    +0.391 N 
ATOM     27  H   UNL     1      33.166 -25.425 -14.267  0.00  0.00    -0.084 HD
ATOM     28  H   UNL     1      33.129 -25.817 -12.641  0.00  0.00    -0.084 HD
BRANCH  26  29
ATOM     29  C   UNL     1      31.667 -24.519 -13.215  0.00  0.00    -0.061 C 
ATOM     30  C   UNL     1      31.651 -23.043 -13.634  0.00  0.00    -0.021 C 
ATOM     31  C   UNL     1      30.693 -25.457 -13.947  0.00  0.00    -0.021 C 
ATOM     32  C   UNL     1      29.270 -24.916 -14.098  0.00  0.00    -0.002 C 
ATOM     33  C   UNL     1      32.033 -22.712 -15.077  0.00  0.00    -0.002 C 
ATOM     34  C   UNL     1      28.934 -24.398 -15.499  0.00  0.00    -0.000 C 
ATOM     35  C   UNL     1      31.139 -23.258 -16.188  0.00  0.00    -0.000 C 
ATOM     36  C   UNL     1      29.636 -23.112 -15.946  0.00  0.00    -0.000 C 
ENDBRANCH  26  29
ENDBRANCH  25  26
ENDBRANCH   7  25
TORSDOF 7
ENDMDL
MODEL 4
REMARK VINA RESULT:      -9.5      2.554      6.696
REMARK  Name = 46937030
REMARK  7 active torsions:
REMARK  status: ('A' for Active; 'I' for Inactive)
REMARK    1  A    between atoms: C_3  and  C_10
REMARK    2  A    between atoms: C_7  and  C_25
REMARK    3  A    between atoms: N_9  and  C_12
REMARK    4  A    between atoms: C_12  and  C_13
REMARK    5  A    between atoms: C_18  and  C_21
REMARK    6  A    between atoms: C_25  and  N_26
REMARK    7  A    between atoms: N_26  and  C_29
REMARK                            x       y       z     vdW  Elec       q    Type
REMARK                         _______ _______ _______ _____ _____    ______ ____
ROOT
ATOM      1  O   UNL     1      32.064 -20.988 -18.845  0.00  0.00    -0.277 OA
ATOM      2  N   UNL     1      34.336 -21.270 -19.159  0.00  0.00    -0.275 N 
ATOM      3  C   UNL     1      35.579 -22.035 -19.086  0.00  0.00    +0.152 C 
ATOM      4  C   UNL     1      36.446 -21.462 -20.203  0.00  0.00    +0.031 C 
ATOM      5  C   UNL     1      34.485 -20.111 -20.029  0.00  0.00    +0.094 C 
ATOM      6  C   UNL     1      35.976 -20.013 -20.308  0.00  0.00    +0.024 C 
ATOM      7  C   UNL     1      33.103 -21.616 -18.629  0.00  0.00    +0.204 C 
ENDROOT
BRANCH   3  10
ATOM      8  O   UNL     1      37.056 -20.912 -17.584  0.00  0.00    -0.273 OA
ATOM      9  N   UNL     1      35.716 -22.634 -16.772  0.00  0.00    -0.299 N 
ATOM     10  C   UNL     1      36.202 -21.779 -17.747  0.00  0.00    +0.241 C 
ATOM     11  H   UNL     1      35.027 -23.291 -17.025  0.00  0.00    +0.150 HD
BRANCH   9  12
ATOM     12  C   UNL     1      36.170 -22.609 -15.400  0.00  0.00    +0.116 C 
BRANCH  12  13
ATOM     13  C   UNL     1      37.177 -23.688 -15.122  0.00  0.00    -0.003 C 
ATOM     14  C   UNL     1      36.755 -24.924 -14.632  0.00  0.00    -0.003 C 
ATOM     15  C   UNL     1      38.532 -23.454 -15.352  0.00  0.00    -0.003 C 
ATOM     16  C   UNL     1      37.690 -25.927 -14.373  0.00  0.00    +0.002 C 
ATOM     17  C   UNL     1      39.467 -24.457 -15.093  0.00  0.00    +0.002 C 
ATOM     18  C   UNL     1      39.045 -25.693 -14.604  0.00  0.00    +0.031 C 
BRANCH  18  21
ATOM     19  N   UNL     1      39.960 -27.970 -14.985  0.00  0.00    -0.343 N 
ATOM     20  N   UNL     1      40.983 -26.531 -13.456  0.00  0.00    -0.285 NA
ATOM     21  C   UNL     1      40.020 -26.739 -14.335  0.00  0.00    +0.117 C 
ATOM     22  H   UNL     1      40.631 -28.664 -14.788  0.00  0.00    +0.144 HD
ATOM     23  H   UNL     1      39.248 -28.146 -15.642  0.00  0.00    +0.144 HD
ATOM     24  H   UNL     1      41.644 -27.237 -13.272  0.00  0.00    +0.188 HD
ENDBRANCH  18  21
ENDBRANCH  12  13
ENDBRANCH   9  12
ENDBRANCH   3  10
BRANCH   7  25
ATOM     25  C   UNL     1      33.080 -22.837 -17.745  0.00  0.00    +0.006 C 
BRANCH  25  26
ATOM     26  N   UNL     1      31.716 -22.988 -17.264  0.00  0.00    +0.391 N 
ATOM     27  H   UNL     1      31.123 -22.288 -17.711  0.00  0.00    -0.084 HD
ATOM     28  H   UNL     1      31.388 -23.926 -17.492  0.00  0.00    -0.084 HD
BRANCH  26  29
ATOM     29  C   UNL     1      31.661 -22.808 -15.810  0.00  0.00    -0.061 C 
ATOM     30  C   UNL     1      30.212 -22.905 -15.314  0.00  0.00    -0.021 C 
ATOM     31  C   UNL     1      32.682 -23.750 -15.153  0.00  0.00    -0.021 C 
ATOM     32  C   UNL     1      32.599 -23.827 -13.628  0.00  0.00    -0.002 C 
ATOM     33  C   UNL     1      29.481 -24.233 -15.516  0.00  0.00    -0.002 C 
ATOM     34  C   UNL     1      31.931 -25.096 -13.092  0.00  0.00    -0.000 C 
ATOM     35  C   UNL     1      30.036 -25.462 -14.797  0.00  0.00    -0.000 C 
ATOM     36  C   UNL     1      30.427 -25.239 -13.335  0.00  0.00    -0.000 C 
ENDBRANCH  26  29
ENDBRANCH  25  26
ENDBRANCH   7  25
TORSDOF 7
ENDMDL
MODEL 5
REMARK VINA RESULT:      -9.4      7.755     13.351
REMARK  Name = 46937030
REMARK  7 active torsions:
REMARK  status: ('A' for Active; 'I' for Inactive)
REMARK    1  A    between atoms: C_3  and  C_10
REMARK    2  A    between atoms: C_7  and  C_25
REMARK    3  A    between atoms: N_9  and  C_12
REMARK    4  A    between atoms: C_12  and  C_13
REMARK    5  A    between atoms: C_18  and  C_21
REMARK    6  A    between atoms: C_25  and  N_26
REMARK    7  A    between atoms: N_26  and  C_29
REMARK                            x       y       z     vdW  Elec       q    Type
REMARK                         _______ _______ _______ _____ _____    ______ ____
ROOT
ATOM      1  O   UNL     1      31.360 -11.879 -22.326  0.00  0.00    -0.277 OA
ATOM      2  N   UNL     1      33.004 -13.278 -21.503  0.00  0.00    -0.275 N 
ATOM      3  C   UNL     1      34.360 -13.823 -21.472  0.00  0.00    +0.152 C 
ATOM      4  C   UNL     1      34.547 -14.301 -20.036  0.00  0.00    +0.031 C 
ATOM      5  C   UNL     1      32.268 -13.637 -20.298  0.00  0.00    +0.094 C 
ATOM      6  C   UNL     1      33.132 -14.675 -19.600  0.00  0.00    +0.024 C 
ATOM      7  C   UNL     1      32.469 -12.405 -22.437  0.00  0.00    +0.204 C 
ENDROOT
BRANCH   3  10
ATOM      8  O   UNL     1      33.900 -14.925 -23.540  0.00  0.00    -0.273 OA
ATOM      9  N   UNL     1      35.079 -16.068 -21.890  0.00  0.00    -0.299 N 
ATOM     10  C   UNL     1      34.416 -14.978 -22.426  0.00  0.00    +0.241 C 
ATOM     11  H   UNL     1      35.453 -15.990 -20.982  0.00  0.00    +0.150 HD
BRANCH   9  12
ATOM     12  C   UNL     1      35.251 -17.317 -22.598  0.00  0.00    +0.116 C 
BRANCH  12  13
ATOM     13  C   UNL     1      35.373 -18.483 -21.659  0.00  0.00    -0.003 C 
ATOM     14  C   UNL     1      34.269 -19.299 -21.415  0.00  0.00    -0.003 C 
ATOM     15  C   UNL     1      36.590 -18.748 -21.031  0.00  0.00    -0.003 C 
ATOM     16  C   UNL     1      34.382 -20.382 -20.542  0.00  0.00    +0.002 C 
ATOM     17  C   UNL     1      36.703 -19.831 -20.159  0.00  0.00    +0.002 C 
ATOM     18  C   UNL     1      35.599 -20.648 -19.915  0.00  0.00    +0.031 C 
BRANCH  18  21
ATOM     19  N   UNL     1      36.727 -21.833 -18.047  0.00  0.00    -0.343 N 
ATOM     20  N   UNL     1      34.860 -22.780 -19.086  0.00  0.00    -0.285 NA
ATOM     21  C   UNL     1      35.718 -21.777 -19.007  0.00  0.00    +0.117 C 
ATOM     22  H   UNL     1      36.788 -22.607 -17.442  0.00  0.00    +0.144 HD
ATOM     23  H   UNL     1      37.378 -21.098 -17.974  0.00  0.00    +0.144 HD
ATOM     24  H   UNL     1      34.939 -23.545 -18.472  0.00  0.00    +0.188 HD
ENDBRANCH  18  21
ENDBRANCH  12  13
ENDBRANCH   9  12
ENDBRANCH   3  10
BRANCH   7  25
ATOM     25  C   UNL     1      33.330 -12.112 -23.640  0.00  0.00    +0.006 C 
BRANCH  25  26
ATOM     26  N   UNL     1      34.193 -10.998 -23.283  0.00  0.00    +0.391 N 
ATOM     27  H   UNL     1      34.098 -10.806 -22.285  0.00  0.00    -0.084 HD
ATOM     28  H   UNL     1      35.157 -11.244 -23.505  0.00  0.00    -0.084 HD
BRANCH  26  29
ATOM     29  C   UNL     1      33.825  -9.798 -24.041  0.00  0.00    -0.061 C 
ATOM     30  C   UNL     1      32.552  -9.168 -23.460  0.00  0.00    -0.021 C 
ATOM     31  C   UNL     1      35.056  -8.887 -24.159  0.00  0.00    -0.021 C 
ATOM     32  C   UNL     1      34.779  -7.502 -24.747  0.00  0.00    -0.002 C 
ATOM     33  C   UNL     1      32.610  -8.651 -22.022  0.00  0.00    -0.002 C 
ATOM     34  C   UNL     1      34.744  -6.371 -23.716  0.00  0.00    -0.000 C 
ATOM     35  C   UNL     1      33.573  -7.504 -21.722  0.00  0.00    -0.000 C 
ATOM     36  C   UNL     1      33.565  -6.363 -22.740  0.00  0.00    -0.000 C 
ENDBRANCH  26  29
ENDBRANCH  25  26
ENDBRANCH   7  25
TORSDOF 7
ENDMDL
MODEL 6
REMARK VINA RESULT:      -9.3      2.291      5.386
REMARK  Name = 46937030
REMARK  7 active torsions:
REMARK  status: ('A' for Active; 'I' for Inactive)
REMARK    1  A    between atoms: C_3  and  C_10
REMARK    2  A    between atoms: C_7  and  C_25
REMARK    3  A    between atoms: N_9  and  C_12
REMARK    4  A    between atoms: C_12  and  C_13
REMARK    5  A    between atoms: C_18  and  C_21
REMARK    6  A    between atoms: C_25  and  N_26
REMARK    7  A    between atoms: N_26  and  C_29
REMARK                            x       y       z     vdW  Elec       q    Type
REMARK                         _______ _______ _______ _____ _____    ______ ____
ROOT
ATOM      1  O   UNL     1      32.844 -23.377 -13.842  0.00  0.00    -0.277 OA
ATOM      2  N   UNL     1      33.422 -23.171 -16.070  0.00  0.00    -0.275 N 
ATOM      3  C   UNL     1      34.280 -23.427 -17.226  0.00  0.00    +0.152 C 
ATOM      4  C   UNL     1      33.345 -23.315 -18.426  0.00  0.00    +0.031 C 
ATOM      5  C   UNL     1      32.128 -22.644 -16.484  0.00  0.00    +0.094 C 
ATOM      6  C   UNL     1      32.287 -22.317 -17.960  0.00  0.00    +0.024 C 
ATOM      7  C   UNL     1      33.672 -23.501 -14.747  0.00  0.00    +0.204 C 
ENDROOT
BRANCH   3  10
ATOM      8  O   UNL     1      35.788 -21.858 -16.245  0.00  0.00    -0.273 OA
ATOM      9  N   UNL     1      35.671 -22.012 -18.564  0.00  0.00    -0.299 N 
ATOM     10  C   UNL     1      35.328 -22.357 -17.268  0.00  0.00    +0.241 C 
ATOM     11  H   UNL     1      35.232 -22.485 -19.308  0.00  0.00    +0.150 HD
BRANCH   9  12
ATOM     12  C   UNL     1      36.643 -20.989 -18.880  0.00  0.00    +0.116 C 
BRANCH  12  13
ATOM     13  C   UNL     1      36.219 -20.154 -20.054  0.00  0.00    -0.003 C 
ATOM     14  C   UNL     1      34.927 -20.279 -20.567  0.00  0.00    -0.003 C 
ATOM     15  C   UNL     1      37.116 -19.256 -20.632  0.00  0.00    -0.003 C 
ATOM     16  C   UNL     1      34.533 -19.503 -21.657  0.00  0.00    +0.002 C 
ATOM     17  C   UNL     1      36.721 -18.481 -21.722  0.00  0.00    +0.002 C 
ATOM     18  C   UNL     1      35.429 -18.604 -22.235  0.00  0.00    +0.031 C 
BRANCH  18  21
ATOM     19  N   UNL     1      35.379 -16.453 -23.474  0.00  0.00    -0.343 N 
ATOM     20  N   UNL     1      34.283 -18.331 -24.330  0.00  0.00    -0.285 NA
ATOM     21  C   UNL     1      35.018 -17.795 -23.371  0.00  0.00    +0.117 C 
ATOM     22  H   UNL     1      35.090 -15.924 -24.252  0.00  0.00    +0.144 HD
ATOM     23  H   UNL     1      35.923 -16.034 -22.769  0.00  0.00    +0.144 HD
ATOM     24  H   UNL     1      34.004 -17.785 -25.099  0.00  0.00    +0.188 HD
ENDBRANCH  18  21
ENDBRANCH  12  13
ENDBRANCH   9  12
ENDBRANCH   3  10
BRANCH   7  25
ATOM     25  C   UNL     1      35.048 -24.038 -14.447  0.00  0.00    +0.006 C 
BRANCH  25  26
ATOM     26  N   UNL     1      35.636 -23.164 -13.443  0.00  0.00    +0.391 N 
ATOM     27  H   UNL     1      35.355 -22.201 -13.631  0.00  0.00    -0.084 HD
ATOM     28  H   UNL     1      35.307 -23.453 -12.522  0.00  0.00    -0.084 HD
BRANCH  26  29
ATOM     29  C   UNL     1      37.099 -23.255 -13.474  0.00  0.00    -0.061 C 
ATOM     30  C   UNL     1      37.638 -23.664 -12.097  0.00  0.00    -0.021 C 
ATOM     31  C   UNL     1      37.518 -24.125 -14.668  0.00  0.00    -0.021 C 
ATOM     32  C   UNL     1      39.005 -24.481 -14.715  0.00  0.00    -0.002 C 
ATOM     33  C   UNL     1      37.228 -25.034 -11.554  0.00  0.00    -0.002 C 
ATOM     34  C   UNL     1      39.328 -25.914 -14.282  0.00  0.00    -0.000 C 
ATOM     35  C   UNL     1      37.679 -26.267 -12.336  0.00  0.00    -0.000 C 
ATOM     36  C   UNL     1      39.136 -26.247 -12.801  0.00  0.00    -0.000 C 
ENDBRANCH  26  29
ENDBRANCH  25  26
ENDBRANCH   7  25
TORSDOF 7
ENDMDL
MODEL 7
REMARK VINA RESULT:      -9.0      2.523      6.711
REMARK  Name = 46937030
REMARK  7 active torsions:
REMARK  status: ('A' for Active; 'I' for Inactive)
REMARK    1  A    between atoms: C_3  and  C_10
REMARK    2  A    between atoms: C_7  and  C_25
REMARK    3  A    between atoms: N_9  and  C_12
REMARK    4  A    between atoms: C_12  and  C_13
REMARK    5  A    between atoms: C_18  and  C_21
REMARK    6  A    between atoms: C_25  and  N_26
REMARK    7  A    between atoms: N_26  and  C_29
REMARK                            x       y       z     vdW  Elec       q    Type
REMARK                         _______ _______ _______ _____ _____    ______ ____
ROOT
ATOM      1  O   UNL     1      32.173 -21.355 -18.502  0.00  0.00    -0.277 OA
ATOM      2  N   UNL     1      34.299 -21.192 -19.390  0.00  0.00    -0.275 N 
ATOM      3  C   UNL     1      35.668 -21.661 -19.596  0.00  0.00    +0.152 C 
ATOM      4  C   UNL     1      36.074 -21.073 -20.944  0.00  0.00    +0.031 C 
ATOM      5  C   UNL     1      33.951 -20.155 -20.353  0.00  0.00    +0.094 C 
ATOM      6  C   UNL     1      35.262 -19.784 -21.027  0.00  0.00    +0.024 C 
ATOM      7  C   UNL     1      33.351 -21.715 -18.525  0.00  0.00    +0.204 C 
ENDROOT
BRANCH   3  10
ATOM      8  O   UNL     1      37.080 -20.015 -18.599  0.00  0.00    -0.273 OA
ATOM      9  N   UNL     1      36.595 -21.957 -17.409  0.00  0.00    -0.299 N 
ATOM     10  C   UNL     1      36.518 -21.103 -18.496  0.00  0.00    +0.241 C 
ATOM     11  H   UNL     1      36.098 -22.806 -17.443  0.00  0.00    +0.150 HD
BRANCH   9  12
ATOM     12  C   UNL     1      37.371 -21.663 -16.225  0.00  0.00    +0.116 C 
BRANCH  12  13
ATOM     13  C   UNL     1      37.245 -22.742 -15.189  0.00  0.00    -0.003 C 
ATOM     14  C   UNL     1      38.211 -23.745 -15.107  0.00  0.00    -0.003 C 
ATOM     15  C   UNL     1      36.162 -22.742 -14.309  0.00  0.00    -0.003 C 
ATOM     16  C   UNL     1      38.094 -24.748 -14.144  0.00  0.00    +0.002 C 
ATOM     17  C   UNL     1      36.045 -23.745 -13.347  0.00  0.00    +0.002 C 
ATOM     18  C   UNL     1      37.012 -24.748 -13.264  0.00  0.00    +0.031 C 
BRANCH  18  21
ATOM     19  N   UNL     1      37.217 -27.117 -12.548  0.00  0.00    -0.343 N 
ATOM     20  N   UNL     1      36.458 -25.494 -11.048  0.00  0.00    -0.285 NA
ATOM     21  C   UNL     1      36.890 -25.793 -12.260  0.00  0.00    +0.117 C 
ATOM     22  H   UNL     1      37.127 -27.808 -11.853  0.00  0.00    +0.144 HD
ATOM     23  H   UNL     1      37.537 -27.360 -13.446  0.00  0.00    +0.144 HD
ATOM     24  H   UNL     1      36.374 -26.200 -10.367  0.00  0.00    +0.188 HD
ENDBRANCH  18  21
ENDBRANCH  12  13
ENDBRANCH   9  12
ENDBRANCH   3  10
BRANCH   7  25
ATOM     25  C   UNL     1      33.836 -22.784 -17.579  0.00  0.00    +0.006 C 
BRANCH  25  26
ATOM     26  N   UNL     1      32.666 -23.532 -17.148  0.00  0.00    +0.391 N 
ATOM     27  H   UNL     1      31.885 -23.322 -17.770  0.00  0.00    -0.084 HD
ATOM     28  H   UNL     1      32.882 -24.528 -17.179  0.00  0.00    -0.084 HD
BRANCH  26  29
ATOM     29  C   UNL     1      32.299 -23.170 -15.775  0.00  0.00    -0.061 C 
ATOM     30  C   UNL     1      30.790 -22.910 -15.676  0.00  0.00    -0.021 C 
ATOM     31  C   UNL     1      32.887 -24.214 -14.813  0.00  0.00    -0.021 C 
ATOM     32  C   UNL     1      32.419 -24.086 -13.362  0.00  0.00    -0.002 C 
ATOM     33  C   UNL     1      29.849 -24.076 -15.978  0.00  0.00    -0.002 C 
ATOM     34  C   UNL     1      31.369 -25.118 -12.941  0.00  0.00    -0.000 C 
ATOM     35  C   UNL     1      29.916 -25.295 -15.060  0.00  0.00    -0.000 C 
ATOM     36  C   UNL     1      29.978 -24.981 -13.564  0.00  0.00    -0.000 C 
ENDBRANCH  26  29
ENDBRANCH  25  26
ENDBRANCH   7  25
TORSDOF 7
ENDMDL
MODEL 8
REMARK VINA RESULT:      -8.9     12.927     18.406
REMARK  Name = 46937030
REMARK  7 active torsions:
REMARK  status: ('A' for Active; 'I' for Inactive)
REMARK    1  A    between atoms: C_3  and  C_10
REMARK    2  A    between atoms: C_7  and  C_25
REMARK    3  A    between atoms: N_9  and  C_12
REMARK    4  A    between atoms: C_12  and  C_13
REMARK    5  A    between atoms: C_18  and  C_21
REMARK    6  A    between atoms: C_25  and  N_26
REMARK    7  A    between atoms: N_26  and  C_29
REMARK                            x       y       z     vdW  Elec       q    Type
REMARK                         _______ _______ _______ _____ _____    ______ ____
ROOT
ATOM      1  O   UNL     1      30.599  -3.973 -22.127  0.00  0.00    -0.277 OA
ATOM      2  N   UNL     1      31.815  -5.897 -21.735  0.00  0.00    -0.275 N 
ATOM      3  C   UNL     1      32.642  -7.028 -22.153  0.00  0.00    +0.152 C 
ATOM      4  C   UNL     1      33.464  -7.377 -20.917  0.00  0.00    +0.031 C 
ATOM      5  C   UNL     1      31.864  -5.720 -20.289  0.00  0.00    +0.094 C 
ATOM      6  C   UNL     1      32.557  -6.965 -19.760  0.00  0.00    +0.024 C 
ATOM      7  C   UNL     1      31.168  -4.981 -22.549  0.00  0.00    +0.204 C 
ENDROOT
BRANCH   3  10
ATOM      8  O   UNL     1      30.871  -8.042 -23.391  0.00  0.00    -0.273 OA
ATOM      9  N   UNL     1      31.965  -9.289 -21.758  0.00  0.00    -0.299 N 
ATOM     10  C   UNL     1      31.729  -8.158 -22.520  0.00  0.00    +0.241 C 
ATOM     11  H   UNL     1      32.686  -9.262 -21.087  0.00  0.00    +0.150 HD
BRANCH   9  12
ATOM     12  C   UNL     1      31.205 -10.511 -21.899  0.00  0.00    +0.116 C 
BRANCH  12  13
ATOM     13  C   UNL     1      32.069 -11.730 -21.751  0.00  0.00    -0.003 C 
ATOM     14  C   UNL     1      32.980 -12.064 -22.753  0.00  0.00    -0.003 C 
ATOM     15  C   UNL     1      31.960 -12.529 -20.612  0.00  0.00    -0.003 C 
ATOM     16  C   UNL     1      33.783 -13.197 -22.616  0.00  0.00    +0.002 C 
ATOM     17  C   UNL     1      32.763 -13.661 -20.475  0.00  0.00    +0.002 C 
ATOM     18  C   UNL     1      33.675 -13.995 -21.477  0.00  0.00    +0.031 C 
BRANCH  18  21
ATOM     19  N   UNL     1      34.984 -15.868 -22.447  0.00  0.00    -0.343 N 
ATOM     20  N   UNL     1      34.834 -15.612 -20.129  0.00  0.00    -0.285 NA
ATOM     21  C   UNL     1      34.512 -15.175 -21.334  0.00  0.00    +0.117 C 
ATOM     22  H   UNL     1      35.550 -16.665 -22.326  0.00  0.00    +0.144 HD
ATOM     23  H   UNL     1      34.753 -15.561 -23.353  0.00  0.00    +0.144 HD
ATOM     24  H   UNL     1      35.400 -16.411 -20.030  0.00  0.00    +0.188 HD
ENDBRANCH  18  21
ENDBRANCH  12  13
ENDBRANCH   9  12
ENDBRANCH   3  10
BRANCH   7  25
ATOM     25  C   UNL     1      31.189  -5.277 -24.027  0.00  0.00    +0.006 C 
BRANCH  25  26
ATOM     26  N   UNL     1      31.930  -4.200 -24.665  0.00  0.00    +0.391 N 
ATOM     27  H   UNL     1      31.271  -3.545 -25.088  0.00  0.00    -0.084 HD
ATOM     28  H   UNL     1      32.494  -3.726 -23.960  0.00  0.00    -0.084 HD
BRANCH  26  29
ATOM     29  C   UNL     1      32.818  -4.730 -25.704  0.00  0.00    -0.061 C 
ATOM     30  C   UNL     1      32.749  -3.855 -26.963  0.00  0.00    -0.021 C 
ATOM     31  C   UNL     1      34.210  -4.961 -25.097  0.00  0.00    -0.021 C 
ATOM     32  C   UNL     1      35.301  -5.320 -26.107  0.00  0.00    -0.002 C 
ATOM     33  C   UNL     1      33.205  -2.401 -26.841  0.00  0.00    -0.002 C 
ATOM     34  C   UNL     1      36.259  -4.173 -26.440  0.00  0.00    -0.000 C 
ATOM     35  C   UNL     1      34.669  -2.147 -26.484  0.00  0.00    -0.000 C 
ATOM     36  C   UNL     1      35.683  -3.004 -27.244  0.00  0.00    -0.000 C 
ENDBRANCH  26  29
ENDBRANCH  25  26
ENDBRANCH   7  25
TORSDOF 7
ENDMDL
MODEL 9
REMARK VINA RESULT:      -8.5      8.600     13.322
REMARK  Name = 46937030
REMARK  7 active torsions:
REMARK  status: ('A' for Active; 'I' for Inactive)
REMARK    1  A    between atoms: C_3  and  C_10
REMARK    2  A    between atoms: C_7  and  C_25
REMARK    3  A    between atoms: N_9  and  C_12
REMARK    4  A    between atoms: C_12  and  C_13
REMARK    5  A    between atoms: C_18  and  C_21
REMARK    6  A    between atoms: C_25  and  N_26
REMARK    7  A    between atoms: N_26  and  C_29
REMARK                            x       y       z     vdW  Elec       q    Type
REMARK                         _______ _______ _______ _____ _____    ______ ____
ROOT
ATOM      1  O   UNL     1      33.639 -16.484 -24.794  0.00  0.00    -0.277 OA
ATOM      2  N   UNL     1      33.768 -14.218 -24.364  0.00  0.00    -0.275 N 
ATOM      3  C   UNL     1      34.213 -13.058 -23.593  0.00  0.00    +0.152 C 
ATOM      4  C   UNL     1      34.239 -11.916 -24.604  0.00  0.00    +0.031 C 
ATOM      5  C   UNL     1      33.261 -13.816 -25.669  0.00  0.00    +0.094 C 
ATOM      6  C   UNL     1      33.151 -12.301 -25.603  0.00  0.00    +0.024 C 
ATOM      7  C   UNL     1      33.916 -15.556 -24.033  0.00  0.00    +0.204 C 
ENDROOT
BRANCH   3  10
ATOM      8  O   UNL     1      32.811 -13.682 -21.764  0.00  0.00    -0.273 OA
ATOM      9  N   UNL     1      32.758 -11.484 -22.528  0.00  0.00    -0.299 N 
ATOM     10  C   UNL     1      33.196 -12.797 -22.523  0.00  0.00    +0.241 C 
ATOM     11  H   UNL     1      33.143 -10.863 -23.188  0.00  0.00    +0.150 HD
BRANCH   9  12
ATOM     12  C   UNL     1      31.761 -10.979 -21.611  0.00  0.00    +0.116 C 
BRANCH  12  13
ATOM     13  C   UNL     1      31.718  -9.478 -21.599  0.00  0.00    -0.003 C 
ATOM     14  C   UNL     1      32.087  -8.780 -20.450  0.00  0.00    -0.003 C 
ATOM     15  C   UNL     1      31.307  -8.783 -22.737  0.00  0.00    -0.003 C 
ATOM     16  C   UNL     1      32.047  -7.385 -20.437  0.00  0.00    +0.002 C 
ATOM     17  C   UNL     1      31.267  -7.388 -22.724  0.00  0.00    +0.002 C 
ATOM     18  C   UNL     1      31.637  -6.690 -21.575  0.00  0.00    +0.031 C 
BRANCH  18  21
ATOM     19  N   UNL     1      32.290  -4.484 -22.509  0.00  0.00    -0.343 N 
ATOM     20  N   UNL     1      30.893  -4.605 -20.640  0.00  0.00    -0.285 NA
ATOM     21  C   UNL     1      31.596  -5.236 -21.564  0.00  0.00    +0.117 C 
ATOM     22  H   UNL     1      32.248  -3.500 -22.482  0.00  0.00    +0.144 HD
ATOM     23  H   UNL     1      32.822  -4.935 -23.203  0.00  0.00    +0.144 HD
ATOM     24  H   UNL     1      30.865  -3.621 -20.630  0.00  0.00    +0.188 HD
ENDBRANCH  18  21
ENDBRANCH  12  13
ENDBRANCH   9  12
ENDBRANCH   3  10
BRANCH   7  25
ATOM     25  C   UNL     1      34.453 -15.842 -22.653  0.00  0.00    +0.006 C 
BRANCH  25  26
ATOM     26  N   UNL     1      35.691 -16.584 -22.824  0.00  0.00    +0.391 N 
ATOM     27  H   UNL     1      36.105 -16.343 -23.724  0.00  0.00    -0.084 HD
ATOM     28  H   UNL     1      36.328 -16.340 -22.066  0.00  0.00    -0.084 HD
BRANCH  26  29
ATOM     29  C   UNL     1      35.436 -18.028 -22.782  0.00  0.00    -0.061 C 
ATOM     30  C   UNL     1      36.759 -18.804 -22.744  0.00  0.00    -0.021 C 
ATOM     31  C   UNL     1      34.428 -18.322 -21.660  0.00  0.00    -0.021 C 
ATOM     32  C   UNL     1      34.217 -19.807 -21.358  0.00  0.00    -0.002 C 
ATOM     33  C   UNL     1      37.672 -18.589 -21.535  0.00  0.00    -0.002 C 
ATOM     34  C   UNL     1      34.915 -20.301 -20.089  0.00  0.00    -0.000 C 
ATOM     35  C   UNL     1      37.139 -19.006 -20.165  0.00  0.00    -0.000 C 
ATOM     36  C   UNL     1      36.444 -20.367 -20.123  0.00  0.00    -0.000 C 
ENDBRANCH  26  29
ENDBRANCH  25  26
ENDBRANCH   7  25
TORSDOF 7
ENDMDL
