MODEL 1
REMARK VINA RESULT:     -12.3      0.000      0.000
REMARK  Name = 9826451
REMARK  9 active torsions:
REMARK  status: ('A' for Active; 'I' for Inactive)
REMARK    1  A    between atoms: C_1  and  N_2
REMARK    2  A    between atoms: C_1  and  C_19
REMARK    3  A    between atoms: C_8  and  O_10
REMARK    4  A    between atoms: O_10  and  C_11
REMARK    5  A    between atoms: C_14  and  O_17
REMARK    6  A    between atoms: C_19  and  O_20
REMARK    7  A    between atoms: O_20  and  C_24
REMARK    8  A    between atoms: C_21  and  C_27
REMARK    9  A    between atoms: C_27  and  C_32
REMARK                            x       y       z     vdW  Elec       q    Type
REMARK                         _______ _______ _______ _____ _____    ______ ____
ROOT
ATOM      1  C   UNL     1      33.720 -14.898 -24.584  0.00  0.00    +0.139 C 
ENDROOT
BRANCH   1   2
ATOM      2  N   UNL     1      34.312 -15.546 -23.437  0.00  0.00    -0.291 N 
ATOM      3  C   UNL     1      34.702 -14.722 -22.292  0.00  0.00    +0.113 C 
ATOM      4  N   UNL     1      34.158 -17.667 -24.479  0.00  0.00    -0.233 NA
ATOM      5  N   UNL     1      34.960 -19.624 -23.326  0.00  0.00    -0.214 NA
ATOM      6  C   UNL     1      34.527 -16.930 -23.411  0.00  0.00    +0.115 C 
ATOM      7  C   UNL     1      35.111 -17.461 -22.279  0.00  0.00    +0.146 C 
ATOM      8  C   UNL     1      35.305 -18.828 -22.292  0.00  0.00    +0.210 C 
ATOM      9  C   UNL     1      34.400 -18.987 -24.371  0.00  0.00    +0.254 C 
BRANCH   8  10
ATOM     10  O   UNL     1      35.879 -19.432 -21.205  0.00  0.00    -0.440 OA
BRANCH  10  11
ATOM     11  C   UNL     1      35.069 -20.229 -20.421  0.00  0.00    +0.147 C 
ATOM     12  C   UNL     1      33.683 -20.082 -20.473  0.00  0.00    +0.041 C 
ATOM     13  C   UNL     1      35.638 -21.183 -19.576  0.00  0.00    +0.041 C 
ATOM     14  C   UNL     1      33.434 -21.841 -18.837  0.00  0.00    +0.139 C 
ATOM     15  C   UNL     1      32.865 -20.888 -19.681  0.00  0.00    +0.040 C 
ATOM     16  C   UNL     1      34.821 -21.990 -18.785  0.00  0.00    +0.040 C 
BRANCH  14  17
ATOM     17  O   UNL     1      32.636 -22.629 -18.065  0.00  0.00    -0.471 OA
ATOM     18  C   UNL     1      33.226 -23.210 -16.902  0.00  0.00    +0.252 C 
ENDBRANCH  14  17
ENDBRANCH  10  11
ENDBRANCH   8  10
ENDBRANCH   1   2
BRANCH   1  19
ATOM     19  C   UNL     1      33.126 -13.560 -24.176  0.00  0.00    +0.227 C 
BRANCH  19  20
ATOM     20  O   UNL     1      33.862 -12.506 -24.794  0.00  0.00    -0.474 OA
BRANCH  20  24
ATOM     21  C   UNL     1      33.697  -8.773 -22.987  0.00  0.00    -0.021 C 
ATOM     22  C   UNL     1      34.666  -9.037 -23.954  0.00  0.00    -0.001 C 
ATOM     23  C   UNL     1      32.783  -9.764 -22.626  0.00  0.00    -0.001 C 
ATOM     24  C   UNL     1      33.808 -11.282 -24.201  0.00  0.00    +0.139 C 
ATOM     25  C   UNL     1      34.722 -10.291 -24.562  0.00  0.00    +0.037 C 
ATOM     26  C   UNL     1      32.839 -11.018 -23.233  0.00  0.00    +0.037 C 
BRANCH  21  27
ATOM     27  C   UNL     1      33.637  -7.418 -22.331  0.00  0.00    +0.047 C 
BRANCH  27  32
ATOM     28  S   UNL     1      31.383  -5.940 -22.899  0.00  0.00    -0.048 S 
ATOM     29  O   UNL     1      32.871  -6.913 -19.474  0.00  0.00    -0.274 OA
ATOM     30  O   UNL     1      30.499  -3.716 -21.814  0.00  0.00    -0.263 OA
ATOM     31  N   UNL     1      31.662  -5.210 -20.468  0.00  0.00    -0.246 N 
ATOM     32  C   UNL     1      32.249  -7.104 -21.801  0.00  0.00    +0.137 C 
ATOM     33  C   UNL     1      32.312  -6.426 -20.451  0.00  0.00    +0.239 C 
ATOM     34  C   UNL     1      31.102  -4.763 -21.635  0.00  0.00    +0.279 C 
ATOM     35  H   UNL     1      31.602  -4.668 -19.648  0.00  0.00    +0.158 HD
ENDBRANCH  27  32
ENDBRANCH  21  27
ENDBRANCH  20  24
ENDBRANCH  19  20
ENDBRANCH   1  19
TORSDOF 9
ENDMDL
MODEL 2
REMARK VINA RESULT:     -11.6      5.036      9.546
REMARK  Name = 9826451
REMARK  9 active torsions:
REMARK  status: ('A' for Active; 'I' for Inactive)
REMARK    1  A    between atoms: C_1  and  N_2
REMARK    2  A    between atoms: C_1  and  C_19
REMARK    3  A    between atoms: C_8  and  O_10
REMARK    4  A    between atoms: O_10  and  C_11
REMARK    5  A    between atoms: C_14  and  O_17
REMARK    6  A    between atoms: C_19  and  O_20
REMARK    7  A    between atoms: O_20  and  C_24
REMARK    8  A    between atoms: C_21  and  C_27
REMARK    9  A    between atoms: C_27  and  C_32
REMARK                            x       y       z     vdW  Elec       q    Type
REMARK                         _______ _______ _______ _____ _____    ______ ____
ROOT
ATOM      1  C   UNL     1      36.108 -22.036 -17.311  0.00  0.00    +0.139 C 
ENDROOT
BRANCH   1   2
ATOM      2  N   UNL     1      34.937 -22.675 -16.761  0.00  0.00    -0.291 N 
ATOM      3  C   UNL     1      33.755 -22.820 -17.612  0.00  0.00    +0.113 C 
ATOM      4  N   UNL     1      36.014 -22.997 -14.677  0.00  0.00    -0.233 NA
ATOM      5  N   UNL     1      34.827 -24.062 -12.872  0.00  0.00    -0.214 NA
ATOM      6  C   UNL     1      34.911 -23.142 -15.440  0.00  0.00    +0.115 C 
ATOM      7  C   UNL     1      33.744 -23.728 -14.996  0.00  0.00    +0.146 C 
ATOM      8  C   UNL     1      33.760 -24.175 -13.689  0.00  0.00    +0.210 C 
ATOM      9  C   UNL     1      35.904 -23.472 -13.422  0.00  0.00    +0.254 C 
BRANCH   8  10
ATOM     10  O   UNL     1      32.639 -24.770 -13.173  0.00  0.00    -0.440 OA
BRANCH  10  11
ATOM     11  C   UNL     1      31.424 -24.429 -13.734  0.00  0.00    +0.147 C 
ATOM     12  C   UNL     1      31.057 -23.088 -13.844  0.00  0.00    +0.041 C 
ATOM     13  C   UNL     1      30.563 -25.427 -14.193  0.00  0.00    +0.041 C 
ATOM     14  C   UNL     1      28.971 -23.741 -14.869  0.00  0.00    +0.139 C 
ATOM     15  C   UNL     1      29.831 -22.744 -14.411  0.00  0.00    +0.040 C 
ATOM     16  C   UNL     1      29.338 -25.083 -14.761  0.00  0.00    +0.040 C 
BRANCH  14  17
ATOM     17  O   UNL     1      27.773 -23.406 -15.424  0.00  0.00    -0.471 OA
ATOM     18  C   UNL     1      27.751 -23.176 -16.831  0.00  0.00    +0.252 C 
ENDBRANCH  14  17
ENDBRANCH  10  11
ENDBRANCH   8  10
ENDBRANCH   1   2
BRANCH   1  19
ATOM     19  C   UNL     1      35.912 -21.776 -18.795  0.00  0.00    +0.227 C 
BRANCH  19  20
ATOM     20  O   UNL     1      36.609 -20.588 -19.166  0.00  0.00    -0.474 OA
BRANCH  20  24
ATOM     21  C   UNL     1      35.141 -18.472 -22.420  0.00  0.00    -0.021 C 
ATOM     22  C   UNL     1      36.457 -18.280 -22.000  0.00  0.00    -0.001 C 
ATOM     23  C   UNL     1      34.318 -19.375 -21.746  0.00  0.00    -0.001 C 
ATOM     24  C   UNL     1      36.128 -19.894 -20.233  0.00  0.00    +0.139 C 
ATOM     25  C   UNL     1      36.951 -18.991 -20.906  0.00  0.00    +0.037 C 
ATOM     26  C   UNL     1      34.812 -20.085 -20.652  0.00  0.00    +0.037 C 
BRANCH  21  27
ATOM     27  C   UNL     1      34.608 -17.704 -23.602  0.00  0.00    +0.047 C 
BRANCH  27  32
ATOM     28  S   UNL     1      34.746 -15.605 -21.824  0.00  0.00    -0.048 S 
ATOM     29  O   UNL     1      33.880 -15.572 -25.584  0.00  0.00    -0.274 OA
ATOM     30  O   UNL     1      33.135 -13.553 -21.498  0.00  0.00    -0.263 OA
ATOM     31  N   UNL     1      33.390 -14.423 -23.637  0.00  0.00    -0.246 N 
ATOM     32  C   UNL     1      34.953 -16.227 -23.521  0.00  0.00    +0.137 C 
ATOM     33  C   UNL     1      34.028 -15.395 -24.380  0.00  0.00    +0.239 C 
ATOM     34  C   UNL     1      33.620 -14.348 -22.289  0.00  0.00    +0.279 C 
ATOM     35  H   UNL     1      32.775 -13.790 -24.073  0.00  0.00    +0.158 HD
ENDBRANCH  27  32
ENDBRANCH  21  27
ENDBRANCH  20  24
ENDBRANCH  19  20
ENDBRANCH   1  19
TORSDOF 9
ENDMDL
MODEL 3
REMARK VINA RESULT:     -11.5      4.227     12.694
REMARK  Name = 9826451
REMARK  9 active torsions:
REMARK  status: ('A' for Active; 'I' for Inactive)
REMARK    1  A    between atoms: C_1  and  N_2
REMARK    2  A    between atoms: C_1  and  C_19
REMARK    3  A    between atoms: C_8  and  O_10
REMARK    4  A    between atoms: O_10  and  C_11
REMARK    5  A    between atoms: C_14  and  O_17
REMARK    6  A    between atoms: C_19  and  O_20
REMARK    7  A    between atoms: O_20  and  C_24
REMARK    8  A    between atoms: C_21  and  C_27
REMARK    9  A    between atoms: C_27  and  C_32
REMARK                            x       y       z     vdW  Elec       q    Type
REMARK                         _______ _______ _______ _____ _____    ______ ____
ROOT
ATOM      1  C   UNL     1      35.938 -17.893 -22.365  0.00  0.00    +0.139 C 
ENDROOT
BRANCH   1   2
ATOM      2  N   UNL     1      35.099 -16.956 -23.072  0.00  0.00    -0.291 N 
ATOM      3  C   UNL     1      34.748 -17.243 -24.464  0.00  0.00    +0.113 C 
ATOM      4  N   UNL     1      34.969 -15.544 -21.175  0.00  0.00    -0.233 NA
ATOM      5  N   UNL     1      33.705 -13.497 -21.295  0.00  0.00    -0.214 NA
ATOM      6  C   UNL     1      34.632 -15.786 -22.459  0.00  0.00    +0.115 C 
ATOM      7  C   UNL     1      33.845 -14.941 -23.216  0.00  0.00    +0.146 C 
ATOM      8  C   UNL     1      33.406 -13.800 -22.575  0.00  0.00    +0.210 C 
ATOM      9  C   UNL     1      34.480 -14.399 -20.663  0.00  0.00    +0.254 C 
BRANCH   8  10
ATOM     10  O   UNL     1      32.619 -12.911 -23.259  0.00  0.00    -0.440 OA
BRANCH  10  11
ATOM     11  C   UNL     1      33.121 -11.639 -23.454  0.00  0.00    +0.147 C 
ATOM     12  C   UNL     1      32.589 -10.562 -22.746  0.00  0.00    +0.041 C 
ATOM     13  C   UNL     1      34.163 -11.433 -24.360  0.00  0.00    +0.041 C 
ATOM     14  C   UNL     1      34.137  -9.072 -23.849  0.00  0.00    +0.139 C 
ATOM     15  C   UNL     1      33.097  -9.278 -22.943  0.00  0.00    +0.040 C 
ATOM     16  C   UNL     1      34.671 -10.150 -24.556  0.00  0.00    +0.040 C 
BRANCH  14  17
ATOM     17  O   UNL     1      34.634  -7.819 -24.041  0.00  0.00    -0.471 OA
ATOM     18  C   UNL     1      34.925  -7.049 -22.875  0.00  0.00    +0.252 C 
ENDBRANCH  14  17
ENDBRANCH  10  11
ENDBRANCH   8  10
ENDBRANCH   1   2
BRANCH   1  19
ATOM     19  C   UNL     1      35.083 -18.950 -21.687  0.00  0.00    +0.227 C 
BRANCH  19  20
ATOM     20  O   UNL     1      35.863 -19.638 -20.712  0.00  0.00    -0.474 OA
BRANCH  20  24
ATOM     21  C   UNL     1      33.897 -22.411 -18.331  0.00  0.00    -0.021 C 
ATOM     22  C   UNL     1      35.286 -22.309 -18.279  0.00  0.00    -0.001 C 
ATOM     23  C   UNL     1      33.167 -21.582 -19.184  0.00  0.00    -0.001 C 
ATOM     24  C   UNL     1      35.219 -20.548 -19.931  0.00  0.00    +0.139 C 
ATOM     25  C   UNL     1      35.948 -21.378 -19.079  0.00  0.00    +0.037 C 
ATOM     26  C   UNL     1      33.829 -20.652 -19.984  0.00  0.00    +0.037 C 
BRANCH  21  27
ATOM     27  C   UNL     1      33.183 -23.419 -17.466  0.00  0.00    +0.047 C 
BRANCH  27  32
ATOM     28  S   UNL     1      33.654 -23.573 -14.757  0.00  0.00    -0.048 S 
ATOM     29  O   UNL     1      30.379 -22.757 -16.627  0.00  0.00    -0.274 OA
ATOM     30  O   UNL     1      32.219 -24.671 -12.849  0.00  0.00    -0.263 OA
ATOM     31  N   UNL     1      31.108 -23.746 -14.668  0.00  0.00    -0.246 N 
ATOM     32  C   UNL     1      32.745 -22.820 -16.142  0.00  0.00    +0.137 C 
ATOM     33  C   UNL     1      31.283 -23.090 -15.868  0.00  0.00    +0.239 C 
ATOM     34  C   UNL     1      32.205 -24.090 -13.923  0.00  0.00    +0.279 C 
ATOM     35  H   UNL     1      30.203 -23.965 -14.349  0.00  0.00    +0.158 HD
ENDBRANCH  27  32
ENDBRANCH  21  27
ENDBRANCH  20  24
ENDBRANCH  19  20
ENDBRANCH   1  19
TORSDOF 9
ENDMDL
MODEL 4
REMARK VINA RESULT:     -11.4      3.165      6.314
REMARK  Name = 9826451
REMARK  9 active torsions:
REMARK  status: ('A' for Active; 'I' for Inactive)
REMARK    1  A    between atoms: C_1  and  N_2
REMARK    2  A    between atoms: C_1  and  C_19
REMARK    3  A    between atoms: C_8  and  O_10
REMARK    4  A    between atoms: O_10  and  C_11
REMARK    5  A    between atoms: C_14  and  O_17
REMARK    6  A    between atoms: C_19  and  O_20
REMARK    7  A    between atoms: O_20  and  C_24
REMARK    8  A    between atoms: C_21  and  C_27
REMARK    9  A    between atoms: C_27  and  C_32
REMARK                            x       y       z     vdW  Elec       q    Type
REMARK                         _______ _______ _______ _____ _____    ______ ____
ROOT
ATOM      1  C   UNL     1      35.231 -19.591 -20.629  0.00  0.00    +0.139 C 
ENDROOT
BRANCH   1   2
ATOM      2  N   UNL     1      34.536 -20.596 -19.860  0.00  0.00    -0.291 N 
ATOM      3  C   UNL     1      33.139 -20.885 -20.186  0.00  0.00    +0.113 C 
ATOM      4  N   UNL     1      36.457 -20.996 -18.533  0.00  0.00    -0.233 NA
ATOM      5  N   UNL     1      36.368 -22.632 -16.767  0.00  0.00    -0.214 NA
ATOM      6  C   UNL     1      35.168 -21.280 -18.813  0.00  0.00    +0.115 C 
ATOM      7  C   UNL     1      34.423 -22.215 -18.123  0.00  0.00    +0.146 C 
ATOM      8  C   UNL     1      35.082 -22.867 -17.100  0.00  0.00    +0.210 C 
ATOM      9  C   UNL     1      36.986 -21.698 -17.513  0.00  0.00    +0.254 C 
BRANCH   8  10
ATOM     10  O   UNL     1      34.411 -23.811 -16.368  0.00  0.00    -0.440 OA
BRANCH  10  11
ATOM     11  C   UNL     1      33.171 -23.464 -15.870  0.00  0.00    +0.147 C 
ATOM     12  C   UNL     1      32.997 -23.272 -14.500  0.00  0.00    +0.041 C 
ATOM     13  C   UNL     1      32.090 -23.304 -16.739  0.00  0.00    +0.041 C 
ATOM     14  C   UNL     1      30.665 -22.761 -14.866  0.00  0.00    +0.139 C 
ATOM     15  C   UNL     1      31.745 -22.921 -13.997  0.00  0.00    +0.040 C 
ATOM     16  C   UNL     1      30.838 -22.952 -16.237  0.00  0.00    +0.040 C 
BRANCH  14  17
ATOM     17  O   UNL     1      29.442 -22.417 -14.376  0.00  0.00    -0.471 OA
ATOM     18  C   UNL     1      28.310 -22.707 -15.194  0.00  0.00    +0.252 C 
ENDBRANCH  14  17
ENDBRANCH  10  11
ENDBRANCH   8  10
ENDBRANCH   1   2
BRANCH   1  19
ATOM     19  C   UNL     1      34.679 -19.545 -22.044  0.00  0.00    +0.227 C 
BRANCH  19  20
ATOM     20  O   UNL     1      35.495 -18.692 -22.844  0.00  0.00    -0.474 OA
BRANCH  20  24
ATOM     21  C   UNL     1      33.940 -14.978 -23.848  0.00  0.00    -0.021 C 
ATOM     22  C   UNL     1      34.623 -15.145 -22.644  0.00  0.00    -0.001 C 
ATOM     23  C   UNL     1      33.780 -16.059 -24.716  0.00  0.00    -0.001 C 
ATOM     24  C   UNL     1      34.985 -17.474 -23.173  0.00  0.00    +0.139 C 
ATOM     25  C   UNL     1      35.145 -16.393 -22.306  0.00  0.00    +0.037 C 
ATOM     26  C   UNL     1      34.301 -17.306 -24.377  0.00  0.00    +0.037 C 
BRANCH  21  27
ATOM     27  C   UNL     1      33.375 -13.629 -24.213  0.00  0.00    +0.047 C 
BRANCH  27  32
ATOM     28  S   UNL     1      32.368 -12.471 -21.925  0.00  0.00    -0.048 S 
ATOM     29  O   UNL     1      34.571 -10.917 -24.687  0.00  0.00    -0.274 OA
ATOM     30  O   UNL     1      31.263 -10.114 -21.567  0.00  0.00    -0.263 OA
ATOM     31  N   UNL     1      32.923 -10.316 -23.178  0.00  0.00    -0.246 N 
ATOM     32  C   UNL     1      33.696 -12.578 -23.165  0.00  0.00    +0.137 C 
ATOM     33  C   UNL     1      33.798 -11.199 -23.777  0.00  0.00    +0.239 C 
ATOM     34  C   UNL     1      32.089 -10.764 -22.189  0.00  0.00    +0.279 C 
ATOM     35  H   UNL     1      32.899  -9.374 -23.461  0.00  0.00    +0.158 HD
ENDBRANCH  27  32
ENDBRANCH  21  27
ENDBRANCH  20  24
ENDBRANCH  19  20
ENDBRANCH   1  19
TORSDOF 9
ENDMDL
MODEL 5
REMARK VINA RESULT:     -11.4      5.539     13.682
REMARK  Name = 9826451
REMARK  9 active torsions:
REMARK  status: ('A' for Active; 'I' for Inactive)
REMARK    1  A    between atoms: C_1  and  N_2
REMARK    2  A    between atoms: C_1  and  C_19
REMARK    3  A    between atoms: C_8  and  O_10
REMARK    4  A    between atoms: O_10  and  C_11
REMARK    5  A    between atoms: C_14  and  O_17
REMARK    6  A    between atoms: C_19  and  O_20
REMARK    7  A    between atoms: O_20  and  C_24
REMARK    8  A    between atoms: C_21  and  C_27
REMARK    9  A    between atoms: C_27  and  C_32
REMARK                            x       y       z     vdW  Elec       q    Type
REMARK                         _______ _______ _______ _____ _____    ______ ____
ROOT
ATOM      1  C   UNL     1      34.436 -21.310 -18.765  0.00  0.00    +0.139 C 
ENDROOT
BRANCH   1   2
ATOM      2  N   UNL     1      34.097 -20.594 -19.971  0.00  0.00    -0.291 N 
ATOM      3  C   UNL     1      32.720 -20.663 -20.462  0.00  0.00    +0.113 C 
ATOM      4  N   UNL     1      36.319 -19.808 -20.203  0.00  0.00    -0.233 NA
ATOM      5  N   UNL     1      36.900 -18.407 -22.074  0.00  0.00    -0.214 NA
ATOM      6  C   UNL     1      35.056 -19.856 -20.676  0.00  0.00    +0.115 C 
ATOM      7  C   UNL     1      34.645 -19.214 -21.827  0.00  0.00    +0.146 C 
ATOM      8  C   UNL     1      35.620 -18.497 -22.491  0.00  0.00    +0.210 C 
ATOM      9  C   UNL     1      37.176 -19.077 -20.940  0.00  0.00    +0.254 C 
BRANCH   8  10
ATOM     10  O   UNL     1      35.292 -17.831 -23.642  0.00  0.00    -0.440 OA
BRANCH  10  11
ATOM     11  C   UNL     1      34.757 -16.564 -23.512  0.00  0.00    +0.147 C 
ATOM     12  C   UNL     1      34.936 -15.849 -22.328  0.00  0.00    +0.041 C 
ATOM     13  C   UNL     1      34.039 -15.999 -24.566  0.00  0.00    +0.041 C 
ATOM     14  C   UNL     1      33.679 -14.005 -23.250  0.00  0.00    +0.139 C 
ATOM     15  C   UNL     1      34.397 -14.570 -22.197  0.00  0.00    +0.040 C 
ATOM     16  C   UNL     1      33.500 -14.720 -24.435  0.00  0.00    +0.040 C 
BRANCH  14  17
ATOM     17  O   UNL     1      33.153 -12.756 -23.123  0.00  0.00    -0.471 OA
ATOM     18  C   UNL     1      33.790 -11.706 -23.849  0.00  0.00    +0.252 C 
ENDBRANCH  14  17
ENDBRANCH  10  11
ENDBRANCH   8  10
ENDBRANCH   1   2
BRANCH   1  19
ATOM     19  C   UNL     1      33.614 -22.584 -18.667  0.00  0.00    +0.227 C 
BRANCH  19  20
ATOM     20  O   UNL     1      32.786 -22.527 -17.507  0.00  0.00    -0.474 OA
BRANCH  20  24
ATOM     21  C   UNL     1      34.258 -24.279 -14.045  0.00  0.00    -0.021 C 
ATOM     22  C   UNL     1      32.946 -23.811 -14.084  0.00  0.00    -0.001 C 
ATOM     23  C   UNL     1      35.077 -24.159 -15.168  0.00  0.00    -0.001 C 
ATOM     24  C   UNL     1      33.268 -23.101 -16.371  0.00  0.00    +0.139 C 
ATOM     25  C   UNL     1      32.450 -23.221 -15.247  0.00  0.00    +0.037 C 
ATOM     26  C   UNL     1      34.582 -23.570 -16.331  0.00  0.00    +0.037 C 
BRANCH  21  27
ATOM     27  C   UNL     1      34.793 -24.916 -12.787  0.00  0.00    +0.047 C 
BRANCH  27  32
ATOM     28  S   UNL     1      36.851 -23.100 -12.553  0.00  0.00    -0.048 S 
ATOM     29  O   UNL     1      35.107 -25.187  -9.815  0.00  0.00    -0.274 OA
ATOM     30  O   UNL     1      39.070 -23.229 -11.150  0.00  0.00    -0.263 OA
ATOM     31  N   UNL     1      37.172 -24.268 -10.304  0.00  0.00    -0.246 N 
ATOM     32  C   UNL     1      35.376 -23.887 -11.835  0.00  0.00    +0.137 C 
ATOM     33  C   UNL     1      35.839 -24.528 -10.545  0.00  0.00    +0.239 C 
ATOM     34  C   UNL     1      37.891 -23.540 -11.216  0.00  0.00    +0.279 C 
ATOM     35  H   UNL     1      37.603 -24.603  -9.485  0.00  0.00    +0.158 HD
ENDBRANCH  27  32
ENDBRANCH  21  27
ENDBRANCH  20  24
ENDBRANCH  19  20
ENDBRANCH   1  19
TORSDOF 9
ENDMDL
MODEL 6
REMARK VINA RESULT:     -11.0      5.381     13.292
REMARK  Name = 9826451
REMARK  9 active torsions:
REMARK  status: ('A' for Active; 'I' for Inactive)
REMARK    1  A    between atoms: C_1  and  N_2
REMARK    2  A    between atoms: C_1  and  C_19
REMARK    3  A    between atoms: C_8  and  O_10
REMARK    4  A    between atoms: O_10  and  C_11
REMARK    5  A    between atoms: C_14  and  O_17
REMARK    6  A    between atoms: C_19  and  O_20
REMARK    7  A    between atoms: O_20  and  C_24
REMARK    8  A    between atoms: C_21  and  C_27
REMARK    9  A    between atoms: C_27  and  C_32
REMARK                            x       y       z     vdW  Elec       q    Type
REMARK                         _______ _______ _______ _____ _____    ______ ____
ROOT
ATOM      1  C   UNL     1      35.153 -20.144 -21.347  0.00  0.00    +0.139 C 
ENDROOT
BRANCH   1   2
ATOM      2  N   UNL     1      35.423 -18.729 -21.451  0.00  0.00    -0.291 N 
ATOM      3  C   UNL     1      36.211 -18.088 -20.397  0.00  0.00    +0.113 C 
ATOM      4  N   UNL     1      34.213 -18.586 -23.482  0.00  0.00    -0.233 NA
ATOM      5  N   UNL     1      34.007 -16.462 -24.600  0.00  0.00    -0.214 NA
ATOM      6  C   UNL     1      34.937 -17.971 -22.524  0.00  0.00    +0.115 C 
ATOM      7  C   UNL     1      35.233 -16.622 -22.534  0.00  0.00    +0.146 C 
ATOM      8  C   UNL     1      34.736 -15.911 -23.609  0.00  0.00    +0.210 C 
ATOM      9  C   UNL     1      33.786 -17.784 -24.476  0.00  0.00    +0.254 C 
BRANCH   8  10
ATOM     10  O   UNL     1      34.987 -14.566 -23.692  0.00  0.00    -0.440 OA
BRANCH  10  11
ATOM     11  C   UNL     1      34.091 -13.714 -23.078  0.00  0.00    +0.147 C 
ATOM     12  C   UNL     1      33.527 -14.060 -21.850  0.00  0.00    +0.041 C 
ATOM     13  C   UNL     1      33.749 -12.506 -23.686  0.00  0.00    +0.041 C 
ATOM     14  C   UNL     1      32.281 -11.992 -21.838  0.00  0.00    +0.139 C 
ATOM     15  C   UNL     1      32.622 -13.200 -21.230  0.00  0.00    +0.040 C 
ATOM     16  C   UNL     1      32.845 -11.645 -23.066  0.00  0.00    +0.040 C 
BRANCH  14  17
ATOM     17  O   UNL     1      31.398 -11.151 -21.233  0.00  0.00    -0.471 OA
ATOM     18  C   UNL     1      31.776  -9.779 -21.126  0.00  0.00    +0.252 C 
ENDBRANCH  14  17
ENDBRANCH  10  11
ENDBRANCH   8  10
ENDBRANCH   1   2
BRANCH   1  19
ATOM     19  C   UNL     1      34.273 -20.418 -20.139  0.00  0.00    +0.227 C 
BRANCH  19  20
ATOM     20  O   UNL     1      34.391 -21.790 -19.768  0.00  0.00    -0.474 OA
BRANCH  20  24
ATOM     21  C   UNL     1      36.123 -22.611 -16.086  0.00  0.00    -0.021 C 
ATOM     22  C   UNL     1      34.798 -22.971 -16.329  0.00  0.00    -0.001 C 
ATOM     23  C   UNL     1      36.867 -21.975 -17.081  0.00  0.00    -0.001 C 
ATOM     24  C   UNL     1      34.959 -22.059 -18.560  0.00  0.00    +0.139 C 
ATOM     25  C   UNL     1      34.215 -22.695 -17.565  0.00  0.00    +0.037 C 
ATOM     26  C   UNL     1      36.284 -21.699 -18.317  0.00  0.00    +0.037 C 
BRANCH  21  27
ATOM     27  C   UNL     1      36.752 -22.909 -14.749  0.00  0.00    +0.047 C 
BRANCH  27  32
ATOM     28  S   UNL     1      35.867 -25.017 -13.212  0.00  0.00    -0.048 S 
ATOM     29  O   UNL     1      39.360 -24.393 -14.729  0.00  0.00    -0.274 OA
ATOM     30  O   UNL     1      37.028 -26.251 -11.203  0.00  0.00    -0.263 OA
ATOM     31  N   UNL     1      38.372 -25.393 -12.892  0.00  0.00    -0.246 N 
ATOM     32  C   UNL     1      36.951 -24.399 -14.536  0.00  0.00    +0.137 C 
ATOM     33  C   UNL     1      38.363 -24.711 -14.091  0.00  0.00    +0.239 C 
ATOM     34  C   UNL     1      37.187 -25.663 -12.261  0.00  0.00    +0.279 C 
ATOM     35  H   UNL     1      39.225 -25.683 -12.493  0.00  0.00    +0.158 HD
ENDBRANCH  27  32
ENDBRANCH  21  27
ENDBRANCH  20  24
ENDBRANCH  19  20
ENDBRANCH   1  19
TORSDOF 9
ENDMDL
MODEL 7
REMARK VINA RESULT:     -10.9      2.223      3.228
REMARK  Name = 9826451
REMARK  9 active torsions:
REMARK  status: ('A' for Active; 'I' for Inactive)
REMARK    1  A    between atoms: C_1  and  N_2
REMARK    2  A    between atoms: C_1  and  C_19
REMARK    3  A    between atoms: C_8  and  O_10
REMARK    4  A    between atoms: O_10  and  C_11
REMARK    5  A    between atoms: C_14  and  O_17
REMARK    6  A    between atoms: C_19  and  O_20
REMARK    7  A    between atoms: O_20  and  C_24
REMARK    8  A    between atoms: C_21  and  C_27
REMARK    9  A    between atoms: C_27  and  C_32
REMARK                            x       y       z     vdW  Elec       q    Type
REMARK                         _______ _______ _______ _____ _____    ______ ____
ROOT
ATOM      1  C   UNL     1      33.118 -12.668 -21.622  0.00  0.00    +0.139 C 
ENDROOT
BRANCH   1   2
ATOM      2  N   UNL     1      33.806 -13.936 -21.649  0.00  0.00    -0.291 N 
ATOM      3  C   UNL     1      34.390 -14.443 -20.406  0.00  0.00    +0.113 C 
ATOM      4  N   UNL     1      33.386 -14.184 -23.967  0.00  0.00    -0.233 NA
ATOM      5  N   UNL     1      34.198 -16.134 -25.125  0.00  0.00    -0.214 NA
ATOM      6  C   UNL     1      33.933 -14.673 -22.834  0.00  0.00    +0.115 C 
ATOM      7  C   UNL     1      34.618 -15.869 -22.769  0.00  0.00    +0.146 C 
ATOM      8  C   UNL     1      34.720 -16.564 -23.958  0.00  0.00    +0.210 C 
ATOM      9  C   UNL     1      33.554 -14.954 -25.059  0.00  0.00    +0.254 C 
BRANCH   8  10
ATOM     10  O   UNL     1      35.386 -17.762 -23.976  0.00  0.00    -0.440 OA
BRANCH  10  11
ATOM     11  C   UNL     1      35.461 -18.464 -22.790  0.00  0.00    +0.147 C 
ATOM     12  C   UNL     1      36.595 -18.355 -21.985  0.00  0.00    +0.041 C 
ATOM     13  C   UNL     1      34.402 -19.283 -22.396  0.00  0.00    +0.041 C 
ATOM     14  C   UNL     1      35.612 -19.882 -20.393  0.00  0.00    +0.139 C 
ATOM     15  C   UNL     1      36.670 -19.064 -20.786  0.00  0.00    +0.040 C 
ATOM     16  C   UNL     1      34.477 -19.991 -21.198  0.00  0.00    +0.040 C 
BRANCH  14  17
ATOM     17  O   UNL     1      35.684 -20.574 -19.223  0.00  0.00    -0.471 OA
ATOM     18  C   UNL     1      34.898 -21.760 -19.119  0.00  0.00    +0.252 C 
ENDBRANCH  14  17
ENDBRANCH  10  11
ENDBRANCH   8  10
ENDBRANCH   1   2
BRANCH   1  19
ATOM     19  C   UNL     1      32.218 -12.590 -20.401  0.00  0.00    +0.227 C 
BRANCH  19  20
ATOM     20  O   UNL     1      31.184 -11.635 -20.633  0.00  0.00    -0.474 OA
BRANCH  20  24
ATOM     21  C   UNL     1      32.354  -7.748 -21.496  0.00  0.00    -0.021 C 
ATOM     22  C   UNL     1      31.981  -8.609 -22.528  0.00  0.00    -0.001 C 
ATOM     23  C   UNL     1      32.335  -8.194 -20.174  0.00  0.00    -0.001 C 
ATOM     24  C   UNL     1      31.568 -10.361 -20.917  0.00  0.00    +0.139 C 
ATOM     25  C   UNL     1      31.587  -9.915 -22.239  0.00  0.00    +0.037 C 
ATOM     26  C   UNL     1      31.943  -9.500 -19.885  0.00  0.00    +0.037 C 
BRANCH  21  27
ATOM     27  C   UNL     1      32.779  -6.337 -21.810  0.00  0.00    +0.047 C 
BRANCH  27  32
ATOM     28  S   UNL     1      32.366  -4.403 -23.728  0.00  0.00    -0.048 S 
ATOM     29  O   UNL     1      30.351  -5.135 -20.519  0.00  0.00    -0.274 OA
ATOM     30  O   UNL     1      31.744  -1.863 -23.465  0.00  0.00    -0.263 OA
ATOM     31  N   UNL     1      30.936  -3.363 -21.886  0.00  0.00    -0.246 N 
ATOM     32  C   UNL     1      31.676  -5.552 -22.497  0.00  0.00    +0.137 C 
ATOM     33  C   UNL     1      30.914  -4.691 -21.514  0.00  0.00    +0.239 C 
ATOM     34  C   UNL     1      31.628  -2.990 -23.007  0.00  0.00    +0.279 C 
ATOM     35  H   UNL     1      30.458  -2.690 -21.350  0.00  0.00    +0.158 HD
ENDBRANCH  27  32
ENDBRANCH  21  27
ENDBRANCH  20  24
ENDBRANCH  19  20
ENDBRANCH   1  19
TORSDOF 9
ENDMDL
MODEL 8
REMARK VINA RESULT:     -10.9      1.651      2.136
REMARK  Name = 9826451
REMARK  9 active torsions:
REMARK  status: ('A' for Active; 'I' for Inactive)
REMARK    1  A    between atoms: C_1  and  N_2
REMARK    2  A    between atoms: C_1  and  C_19
REMARK    3  A    between atoms: C_8  and  O_10
REMARK    4  A    between atoms: O_10  and  C_11
REMARK    5  A    between atoms: C_14  and  O_17
REMARK    6  A    between atoms: C_19  and  O_20
REMARK    7  A    between atoms: O_20  and  C_24
REMARK    8  A    between atoms: C_21  and  C_27
REMARK    9  A    between atoms: C_27  and  C_32
REMARK                            x       y       z     vdW  Elec       q    Type
REMARK                         _______ _______ _______ _____ _____    ______ ____
ROOT
ATOM      1  C   UNL     1      33.157 -13.522 -23.400  0.00  0.00    +0.139 C 
ENDROOT
BRANCH   1   2
ATOM      2  N   UNL     1      33.844 -14.784 -23.534  0.00  0.00    -0.291 N 
ATOM      3  C   UNL     1      33.982 -15.367 -24.870  0.00  0.00    +0.113 C 
ATOM      4  N   UNL     1      34.222 -14.898 -21.199  0.00  0.00    -0.233 NA
ATOM      5  N   UNL     1      35.384 -16.793 -20.269  0.00  0.00    -0.214 NA
ATOM      6  C   UNL     1      34.362 -15.456 -22.420  0.00  0.00    +0.115 C 
ATOM      7  C   UNL     1      34.992 -16.664 -22.642  0.00  0.00    +0.146 C 
ATOM      8  C   UNL     1      35.489 -17.294 -21.517  0.00  0.00    +0.210 C 
ATOM      9  C   UNL     1      34.748 -15.609 -20.184  0.00  0.00    +0.254 C 
BRANCH   8  10
ATOM     10  O   UNL     1      36.129 -18.498 -21.654  0.00  0.00    -0.440 OA
BRANCH  10  11
ATOM     11  C   UNL     1      35.752 -19.517 -20.803  0.00  0.00    +0.147 C 
ATOM     12  C   UNL     1      34.415 -19.904 -20.726  0.00  0.00    +0.041 C 
ATOM     13  C   UNL     1      36.711 -20.161 -20.019  0.00  0.00    +0.041 C 
ATOM     14  C   UNL     1      34.992 -21.577 -19.083  0.00  0.00    +0.139 C 
ATOM     15  C   UNL     1      34.034 -20.934 -19.867  0.00  0.00    +0.040 C 
ATOM     16  C   UNL     1      36.331 -21.191 -19.160  0.00  0.00    +0.040 C 
BRANCH  14  17
ATOM     17  O   UNL     1      34.622 -22.583 -18.244  0.00  0.00    -0.471 OA
ATOM     18  C   UNL     1      33.254 -22.621 -17.838  0.00  0.00    +0.252 C 
ENDBRANCH  14  17
ENDBRANCH  10  11
ENDBRANCH   8  10
ENDBRANCH   1   2
BRANCH   1  19
ATOM     19  C   UNL     1      34.163 -12.386 -23.336  0.00  0.00    +0.227 C 
BRANCH  19  20
ATOM     20  O   UNL     1      33.826 -11.398 -24.308  0.00  0.00    -0.474 OA
BRANCH  20  24
ATOM     21  C   UNL     1      33.423  -7.489 -22.974  0.00  0.00    -0.021 C 
ATOM     22  C   UNL     1      34.602  -7.894 -23.599  0.00  0.00    -0.001 C 
ATOM     23  C   UNL     1      32.380  -8.397 -22.797  0.00  0.00    -0.001 C 
ATOM     24  C   UNL     1      33.695 -10.116 -23.870  0.00  0.00    +0.139 C 
ATOM     25  C   UNL     1      34.739  -9.207 -24.047  0.00  0.00    +0.037 C 
ATOM     26  C   UNL     1      32.516  -9.710 -23.244  0.00  0.00    +0.037 C 
BRANCH  21  27
ATOM     27  C   UNL     1      33.278  -6.069 -22.489  0.00  0.00    +0.047 C 
BRANCH  27  32
ATOM     28  S   UNL     1      32.123  -4.082 -24.009  0.00  0.00    -0.048 S 
ATOM     29  O   UNL     1      30.960  -5.579 -20.647  0.00  0.00    -0.274 OA
ATOM     30  O   UNL     1      31.075  -1.786 -23.278  0.00  0.00    -0.263 OA
ATOM     31  N   UNL     1      30.904  -3.587 -21.820  0.00  0.00    -0.246 N 
ATOM     32  C   UNL     1      31.928  -5.479 -22.859  0.00  0.00    +0.137 C 
ATOM     33  C   UNL     1      31.219  -4.918 -21.647  0.00  0.00    +0.239 C 
ATOM     34  C   UNL     1      31.275  -2.952 -22.976  0.00  0.00    +0.279 C 
ATOM     35  H   UNL     1      30.417  -3.097 -21.119  0.00  0.00    +0.158 HD
ENDBRANCH  27  32
ENDBRANCH  21  27
ENDBRANCH  20  24
ENDBRANCH  19  20
ENDBRANCH   1  19
TORSDOF 9
ENDMDL
MODEL 9
REMARK VINA RESULT:     -10.9      3.613      6.741
REMARK  Name = 9826451
REMARK  9 active torsions:
REMARK  status: ('A' for Active; 'I' for Inactive)
REMARK    1  A    between atoms: C_1  and  N_2
REMARK    2  A    between atoms: C_1  and  C_19
REMARK    3  A    between atoms: C_8  and  O_10
REMARK    4  A    between atoms: O_10  and  C_11
REMARK    5  A    between atoms: C_14  and  O_17
REMARK    6  A    between atoms: C_19  and  O_20
REMARK    7  A    between atoms: O_20  and  C_24
REMARK    8  A    between atoms: C_21  and  C_27
REMARK    9  A    between atoms: C_27  and  C_32
REMARK                            x       y       z     vdW  Elec       q    Type
REMARK                         _______ _______ _______ _____ _____    ______ ____
ROOT
ATOM      1  C   UNL     1      35.295 -19.689 -20.614  0.00  0.00    +0.139 C 
ENDROOT
BRANCH   1   2
ATOM      2  N   UNL     1      34.540 -20.644 -19.838  0.00  0.00    -0.291 N 
ATOM      3  C   UNL     1      33.131 -20.859 -20.172  0.00  0.00    +0.113 C 
ATOM      4  N   UNL     1      36.425 -21.133 -18.490  0.00  0.00    -0.233 NA
ATOM      5  N   UNL     1      36.231 -22.739 -16.705  0.00  0.00    -0.214 NA
ATOM      6  C   UNL     1      35.124 -21.349 -18.778  0.00  0.00    +0.115 C 
ATOM      7  C   UNL     1      34.323 -22.232 -18.083  0.00  0.00    +0.146 C 
ATOM      8  C   UNL     1      34.937 -22.906 -17.046  0.00  0.00    +0.210 C 
ATOM      9  C   UNL     1      36.906 -21.850 -17.457  0.00  0.00    +0.254 C 
BRANCH   8  10
ATOM     10  O   UNL     1      34.208 -23.802 -16.308  0.00  0.00    -0.440 OA
BRANCH  10  11
ATOM     11  C   UNL     1      34.720 -24.179 -15.083  0.00  0.00    +0.147 C 
ATOM     12  C   UNL     1      35.654 -25.212 -15.004  0.00  0.00    +0.041 C 
ATOM     13  C   UNL     1      34.303 -23.526 -13.922  0.00  0.00    +0.041 C 
ATOM     14  C   UNL     1      35.754 -24.939 -12.606  0.00  0.00    +0.139 C 
ATOM     15  C   UNL     1      36.171 -25.592 -13.766  0.00  0.00    +0.040 C 
ATOM     16  C   UNL     1      34.820 -23.905 -12.684  0.00  0.00    +0.040 C 
BRANCH  14  17
ATOM     17  O   UNL     1      36.259 -25.309 -11.397  0.00  0.00    -0.471 OA
ATOM     18  C   UNL     1      35.748 -24.639 -10.246  0.00  0.00    +0.252 C 
ENDBRANCH  14  17
ENDBRANCH  10  11
ENDBRANCH   8  10
ENDBRANCH   1   2
BRANCH   1  19
ATOM     19  C   UNL     1      34.693 -19.553 -22.002  0.00  0.00    +0.227 C 
BRANCH  19  20
ATOM     20  O   UNL     1      35.513 -18.696 -22.794  0.00  0.00    -0.474 OA
BRANCH  20  24
ATOM     21  C   UNL     1      33.948 -14.989 -23.808  0.00  0.00    -0.021 C 
ATOM     22  C   UNL     1      33.825 -16.062 -24.690  0.00  0.00    -0.001 C 
ATOM     23  C   UNL     1      34.596 -15.161 -22.585  0.00  0.00    -0.001 C 
ATOM     24  C   UNL     1      35.000 -17.481 -23.127  0.00  0.00    +0.139 C 
ATOM     25  C   UNL     1      34.351 -17.308 -24.350  0.00  0.00    +0.037 C 
ATOM     26  C   UNL     1      35.123 -16.407 -22.245  0.00  0.00    +0.037 C 
BRANCH  21  27
ATOM     27  C   UNL     1      33.379 -13.643 -24.177  0.00  0.00    +0.047 C 
BRANCH  27  32
ATOM     28  S   UNL     1      32.342 -12.516 -21.887  0.00  0.00    -0.048 S 
ATOM     29  O   UNL     1      34.529 -10.908 -24.630  0.00  0.00    -0.274 OA
ATOM     30  O   UNL     1      31.194 -10.180 -21.520  0.00  0.00    -0.263 OA
ATOM     31  N   UNL     1      32.865 -10.345 -23.125  0.00  0.00    -0.246 N 
ATOM     32  C   UNL     1      33.677 -12.593 -23.121  0.00  0.00    +0.137 C 
ATOM     33  C   UNL     1      33.758 -11.208 -23.725  0.00  0.00    +0.239 C 
ATOM     34  C   UNL     1      32.034 -10.812 -22.142  0.00  0.00    +0.279 C 
ATOM     35  H   UNL     1      32.826  -9.401 -23.402  0.00  0.00    +0.158 HD
ENDBRANCH  27  32
ENDBRANCH  21  27
ENDBRANCH  20  24
ENDBRANCH  19  20
ENDBRANCH   1  19
TORSDOF 9
ENDMDL
