MODEL 1
REMARK VINA RESULT:     -13.0      0.000      0.000
REMARK  Name = 4369496
REMARK  6 active torsions:
REMARK  status: ('A' for Active; 'I' for Inactive)
REMARK    1  A    between atoms: N_2  and  C_21
REMARK    2  A    between atoms: C_3  and  C_10
REMARK    3  A    between atoms: C_5  and  C_11
REMARK    4  A    between atoms: C_11  and  N_12
REMARK    5  A    between atoms: C_23  and  N_27
REMARK    6  A    between atoms: C_31  and  C_36
REMARK                            x       y       z     vdW  Elec       q    Type
REMARK                         _______ _______ _______ _____ _____    ______ ____
ROOT
ATOM      1  O   UNL     1      36.574 -18.813 -22.038  0.00  0.00    -0.270 OA
ATOM      2  N   UNL     1      34.447 -19.010 -21.070  0.00  0.00    -0.280 N 
ATOM      3  C   UNL     1      35.408 -18.411 -21.896  0.00  0.00    +0.249 C 
ATOM      4  H   UNL     1      33.563 -18.577 -21.059  0.00  0.00    +0.155 HD
ENDROOT
BRANCH   3  10
ATOM      5  C   UNL     1      34.160 -14.936 -23.958  0.00  0.00    -0.043 C 
ATOM      6  C   UNL     1      34.540 -14.841 -22.627  0.00  0.00    -0.006 C 
ATOM      7  C   UNL     1      34.184 -16.153 -24.624  0.00  0.00    -0.006 C 
ATOM      8  C   UNL     1      34.952 -15.987 -21.947  0.00  0.00    +0.004 C 
ATOM      9  C   UNL     1      34.597 -17.299 -23.944  0.00  0.00    +0.004 C 
ATOM     10  C   UNL     1      34.980 -17.217 -22.605  0.00  0.00    +0.054 C 
BRANCH   5  11
ATOM     11  C   UNL     1      33.716 -13.699 -24.693  0.00  0.00    -0.050 C 
BRANCH  11  12
ATOM     12  N   UNL     1      33.668 -12.532 -23.814  0.00  0.00    +0.387 N 
ATOM     13  N   UNL     1      32.524 -10.036 -22.906  0.00  0.00    +0.383 N 
ATOM     14  C   UNL     1      32.410 -12.500 -23.058  0.00  0.00    -0.100 C 
ATOM     15  C   UNL     1      33.834 -11.293 -24.583  0.00  0.00    -0.100 C 
ATOM     16  C   UNL     1      32.357 -11.276 -22.138  0.00  0.00    -0.101 C 
ATOM     17  C   UNL     1      33.782 -10.068 -23.664  0.00  0.00    -0.101 C 
ATOM     18  C   UNL     1      32.477  -8.870 -22.026  0.00  0.00    -0.101 C 
ATOM     19  H   UNL     1      34.439 -12.604 -23.151  0.00  0.00    -0.079 HD
ATOM     20  H   UNL     1      31.751  -9.962 -23.568  0.00  0.00    -0.080 HD
ENDBRANCH  11  12
ENDBRANCH   5  11
ENDBRANCH   3  10
BRANCH   2  21
ATOM     21  C   UNL     1      34.580 -20.156 -20.248  0.00  0.00    +0.052 C 
ATOM     22  C   UNL     1      33.460 -20.671 -19.618  0.00  0.00    +0.030 C 
ATOM     23  C   UNL     1      33.592 -21.799 -18.807  0.00  0.00    +0.059 C 
ATOM     24  C   UNL     1      35.828 -20.735 -20.093  0.00  0.00    +0.015 C 
ATOM     25  C   UNL     1      34.842 -22.395 -18.640  0.00  0.00    +0.015 C 
ATOM     26  C   UNL     1      35.960 -21.863 -19.283  0.00  0.00    +0.003 C 
BRANCH  23  27
ATOM     27  N   UNL     1      32.461 -22.337 -18.158  0.00  0.00    -0.247 N 
ATOM     28  N   UNL     1      33.364 -22.997 -16.095  0.00  0.00    -0.337 NA
ATOM     29  N   UNL     1      31.030 -23.337 -16.591  0.00  0.00    -0.170 NA
ATOM     30  C   UNL     1      32.277 -22.918 -16.889  0.00  0.00    +0.149 C 
ATOM     31  C   UNL     1      33.150 -23.559 -14.887  0.00  0.00    +0.147 C 
ATOM     32  C   UNL     1      31.923 -24.025 -14.465  0.00  0.00    +0.055 C 
ATOM     33  C   UNL     1      30.889 -23.888 -15.368  0.00  0.00    +0.114 C 
ATOM     34  H   UNL     1      31.640 -22.301 -18.700  0.00  0.00    +0.165 HD
BRANCH  31  36
ATOM     35  N   UNL     1      35.295 -24.353 -11.944  0.00  0.00    -0.242 NA
ATOM     36  C   UNL     1      34.313 -23.643 -14.037  0.00  0.00    +0.050 C 
ATOM     37  C   UNL     1      35.539 -23.127 -14.444  0.00  0.00    +0.006 C 
ATOM     38  C   UNL     1      34.245 -24.240 -12.788  0.00  0.00    +0.101 C 
ATOM     39  C   UNL     1      36.642 -23.223 -13.602  0.00  0.00    +0.021 C 
ATOM     40  C   UNL     1      36.469 -23.840 -12.374  0.00  0.00    +0.099 C 
ENDBRANCH  31  36
ENDBRANCH  23  27
ENDBRANCH   2  21
TORSDOF 6
ENDMDL
MODEL 2
REMARK VINA RESULT:     -12.8      2.752      6.023
REMARK  Name = 4369496
REMARK  6 active torsions:
REMARK  status: ('A' for Active; 'I' for Inactive)
REMARK    1  A    between atoms: N_2  and  C_21
REMARK    2  A    between atoms: C_3  and  C_10
REMARK    3  A    between atoms: C_5  and  C_11
REMARK    4  A    between atoms: C_11  and  N_12
REMARK    5  A    between atoms: C_23  and  N_27
REMARK    6  A    between atoms: C_31  and  C_36
REMARK                            x       y       z     vdW  Elec       q    Type
REMARK                         _______ _______ _______ _____ _____    ______ ____
ROOT
ATOM      1  O   UNL     1      33.519 -24.102 -18.441  0.00  0.00    -0.270 OA
ATOM      2  N   UNL     1      33.210 -22.508 -16.749  0.00  0.00    -0.280 N 
ATOM      3  C   UNL     1      33.647 -22.947 -18.006  0.00  0.00    +0.249 C 
ATOM      4  H   UNL     1      33.382 -21.561 -16.543  0.00  0.00    +0.155 HD
ENDROOT
BRANCH   3  10
ATOM      5  C   UNL     1      35.603 -20.058 -20.398  0.00  0.00    -0.043 C 
ATOM      6  C   UNL     1      34.218 -20.137 -20.418  0.00  0.00    -0.006 C 
ATOM      7  C   UNL     1      36.357 -20.912 -19.605  0.00  0.00    -0.006 C 
ATOM      8  C   UNL     1      33.573 -21.089 -19.628  0.00  0.00    +0.004 C 
ATOM      9  C   UNL     1      35.712 -21.864 -18.816  0.00  0.00    +0.004 C 
ATOM     10  C   UNL     1      34.320 -21.953 -18.827  0.00  0.00    +0.054 C 
BRANCH   5  11
ATOM     11  C   UNL     1      36.300 -19.030 -21.249  0.00  0.00    -0.050 C 
BRANCH  11  12
ATOM     12  N   UNL     1      35.349 -18.172 -21.953  0.00  0.00    +0.387 N 
ATOM     13  N   UNL     1      34.656 -16.153 -23.904  0.00  0.00    +0.383 N 
ATOM     14  C   UNL     1      35.342 -18.471 -23.390  0.00  0.00    -0.100 C 
ATOM     15  C   UNL     1      35.660 -16.755 -21.727  0.00  0.00    -0.100 C 
ATOM     16  C   UNL     1      34.347 -17.571 -24.130  0.00  0.00    -0.101 C 
ATOM     17  C   UNL     1      34.665 -15.853 -22.466  0.00  0.00    -0.101 C 
ATOM     18  C   UNL     1      33.704 -15.296 -24.607  0.00  0.00    -0.101 C 
ATOM     19  H   UNL     1      34.419 -18.360 -21.582  0.00  0.00    -0.079 HD
ATOM     20  H   UNL     1      35.586 -15.963 -24.278  0.00  0.00    -0.080 HD
ENDBRANCH  11  12
ENDBRANCH   5  11
ENDBRANCH   3  10
BRANCH   2  21
ATOM     21  C   UNL     1      32.554 -23.248 -15.735  0.00  0.00    +0.052 C 
ATOM     22  C   UNL     1      33.222 -23.515 -14.552  0.00  0.00    +0.030 C 
ATOM     23  C   UNL     1      32.576 -24.246 -13.555  0.00  0.00    +0.059 C 
ATOM     24  C   UNL     1      31.259 -23.686 -15.950  0.00  0.00    +0.015 C 
ATOM     25  C   UNL     1      31.271 -24.696 -13.755  0.00  0.00    +0.015 C 
ATOM     26  C   UNL     1      30.612 -24.416 -14.952  0.00  0.00    +0.003 C 
BRANCH  23  27
ATOM     27  N   UNL     1      33.241 -24.527 -12.343  0.00  0.00    -0.247 N 
ATOM     28  N   UNL     1      35.492 -24.424 -13.000  0.00  0.00    -0.337 NA
ATOM     29  N   UNL     1      34.889 -24.920 -10.720  0.00  0.00    -0.170 NA
ATOM     30  C   UNL     1      34.605 -24.629 -12.006  0.00  0.00    +0.149 C 
ATOM     31  C   UNL     1      36.788 -24.529 -12.641  0.00  0.00    +0.147 C 
ATOM     32  C   UNL     1      37.207 -24.822 -11.359  0.00  0.00    +0.055 C 
ATOM     33  C   UNL     1      36.204 -25.010 -10.431  0.00  0.00    +0.114 C 
ATOM     34  H   UNL     1      32.633 -24.684 -11.585  0.00  0.00    +0.165 HD
BRANCH  31  36
ATOM     35  N   UNL     1      39.853 -24.869 -14.734  0.00  0.00    -0.242 NA
ATOM     36  C   UNL     1      37.738 -24.309 -13.704  0.00  0.00    +0.050 C 
ATOM     37  C   UNL     1      37.495 -23.369 -14.701  0.00  0.00    +0.006 C 
ATOM     38  C   UNL     1      38.922 -25.026 -13.766  0.00  0.00    +0.101 C 
ATOM     39  C   UNL     1      38.429 -23.179 -15.713  0.00  0.00    +0.021 C 
ATOM     40  C   UNL     1      39.581 -23.948 -15.684  0.00  0.00    +0.099 C 
ENDBRANCH  31  36
ENDBRANCH  23  27
ENDBRANCH   2  21
TORSDOF 6
ENDMDL
MODEL 3
REMARK VINA RESULT:     -12.8      2.242      5.417
REMARK  Name = 4369496
REMARK  6 active torsions:
REMARK  status: ('A' for Active; 'I' for Inactive)
REMARK    1  A    between atoms: N_2  and  C_21
REMARK    2  A    between atoms: C_3  and  C_10
REMARK    3  A    between atoms: C_5  and  C_11
REMARK    4  A    between atoms: C_11  and  N_12
REMARK    5  A    between atoms: C_23  and  N_27
REMARK    6  A    between atoms: C_31  and  C_36
REMARK                            x       y       z     vdW  Elec       q    Type
REMARK                         _______ _______ _______ _____ _____    ______ ____
ROOT
ATOM      1  O   UNL     1      34.199 -23.533 -17.763  0.00  0.00    -0.270 OA
ATOM      2  N   UNL     1      32.343 -22.135 -17.443  0.00  0.00    -0.280 N 
ATOM      3  C   UNL     1      33.540 -22.524 -18.059  0.00  0.00    +0.249 C 
ATOM      4  H   UNL     1      31.934 -21.309 -17.786  0.00  0.00    +0.155 HD
ENDROOT
BRANCH   3  10
ATOM      5  C   UNL     1      34.972 -19.953 -21.097  0.00  0.00    -0.043 C 
ATOM      6  C   UNL     1      35.876 -20.669 -20.326  0.00  0.00    -0.006 C 
ATOM      7  C   UNL     1      33.604 -20.067 -20.887  0.00  0.00    -0.006 C 
ATOM      8  C   UNL     1      35.404 -21.517 -19.325  0.00  0.00    +0.004 C 
ATOM      9  C   UNL     1      33.133 -20.916 -19.886  0.00  0.00    +0.004 C 
ATOM     10  C   UNL     1      34.032 -21.641 -19.104  0.00  0.00    +0.054 C 
BRANCH   5  11
ATOM     11  C   UNL     1      35.480 -19.037 -22.179  0.00  0.00    -0.050 C 
BRANCH  11  12
ATOM     12  N   UNL     1      34.794 -17.747 -22.168  0.00  0.00    +0.387 N 
ATOM     13  N   UNL     1      34.714 -14.869 -22.430  0.00  0.00    +0.383 N 
ATOM     14  C   UNL     1      34.880 -17.099 -23.482  0.00  0.00    -0.100 C 
ATOM     15  C   UNL     1      35.348 -16.871 -21.128  0.00  0.00    -0.100 C 
ATOM     16  C   UNL     1      34.162 -15.745 -23.470  0.00  0.00    -0.101 C 
ATOM     17  C   UNL     1      34.630 -15.517 -21.115  0.00  0.00    -0.101 C 
ATOM     18  C   UNL     1      34.027 -13.580 -22.418  0.00  0.00    -0.101 C 
ATOM     19  H   UNL     1      33.811 -17.915 -21.957  0.00  0.00    -0.079 HD
ATOM     20  H   UNL     1      35.698 -14.699 -22.642  0.00  0.00    -0.080 HD
ENDBRANCH  11  12
ENDBRANCH   5  11
ENDBRANCH   3  10
BRANCH   2  21
ATOM     21  C   UNL     1      31.644 -22.776 -16.390  0.00  0.00    +0.052 C 
ATOM     22  C   UNL     1      32.346 -23.209 -15.278  0.00  0.00    +0.030 C 
ATOM     23  C   UNL     1      31.658 -23.842 -14.242  0.00  0.00    +0.059 C 
ATOM     24  C   UNL     1      30.276 -22.954 -16.498  0.00  0.00    +0.015 C 
ATOM     25  C   UNL     1      30.279 -24.029 -14.334  0.00  0.00    +0.015 C 
ATOM     26  C   UNL     1      29.588 -23.586 -15.461  0.00  0.00    +0.003 C 
BRANCH  23  27
ATOM     27  N   UNL     1      32.356 -24.289 -13.101  0.00  0.00    -0.247 N 
ATOM     28  N   UNL     1      34.584 -23.876 -13.714  0.00  0.00    -0.337 NA
ATOM     29  N   UNL     1      34.047 -24.841 -11.572  0.00  0.00    -0.170 NA
ATOM     30  C   UNL     1      33.727 -24.338 -12.781  0.00  0.00    +0.149 C 
ATOM     31  C   UNL     1      35.888 -23.938 -13.373  0.00  0.00    +0.147 C 
ATOM     32  C   UNL     1      36.342 -24.431 -12.167  0.00  0.00    +0.055 C 
ATOM     33  C   UNL     1      35.368 -24.873 -11.297  0.00  0.00    +0.114 C 
ATOM     34  H   UNL     1      31.771 -24.635 -12.389  0.00  0.00    +0.165 HD
BRANCH  31  36
ATOM     35  N   UNL     1      38.985 -23.559 -15.411  0.00  0.00    -0.242 NA
ATOM     36  C   UNL     1      36.806 -23.443 -14.371  0.00  0.00    +0.050 C 
ATOM     37  C   UNL     1      36.441 -22.417 -15.236  0.00  0.00    +0.006 C 
ATOM     38  C   UNL     1      38.079 -23.975 -14.499  0.00  0.00    +0.101 C 
ATOM     39  C   UNL     1      37.347 -21.961 -16.187  0.00  0.00    +0.021 C 
ATOM     40  C   UNL     1      38.595 -22.561 -16.233  0.00  0.00    +0.099 C 
ENDBRANCH  31  36
ENDBRANCH  23  27
ENDBRANCH   2  21
TORSDOF 6
ENDMDL
MODEL 4
REMARK VINA RESULT:     -12.6      2.823     13.826
REMARK  Name = 4369496
REMARK  6 active torsions:
REMARK  status: ('A' for Active; 'I' for Inactive)
REMARK    1  A    between atoms: N_2  and  C_21
REMARK    2  A    between atoms: C_3  and  C_10
REMARK    3  A    between atoms: C_5  and  C_11
REMARK    4  A    between atoms: C_11  and  N_12
REMARK    5  A    between atoms: C_23  and  N_27
REMARK    6  A    between atoms: C_31  and  C_36
REMARK                            x       y       z     vdW  Elec       q    Type
REMARK                         _______ _______ _______ _____ _____    ______ ____
ROOT
ATOM      1  O   UNL     1      33.806 -15.339 -25.066  0.00  0.00    -0.270 OA
ATOM      2  N   UNL     1      34.209 -14.069 -23.135  0.00  0.00    -0.280 N 
ATOM      3  C   UNL     1      34.205 -15.248 -23.894  0.00  0.00    +0.249 C 
ATOM      4  H   UNL     1      34.557 -14.153 -22.218  0.00  0.00    +0.155 HD
ENDROOT
BRANCH   3  10
ATOM      5  C   UNL     1      35.606 -18.719 -21.924  0.00  0.00    -0.043 C 
ATOM      6  C   UNL     1      35.074 -18.826 -23.200  0.00  0.00    -0.006 C 
ATOM      7  C   UNL     1      35.685 -17.491 -21.282  0.00  0.00    -0.006 C 
ATOM      8  C   UNL     1      34.613 -17.681 -23.851  0.00  0.00    +0.004 C 
ATOM      9  C   UNL     1      35.224 -16.346 -21.933  0.00  0.00    +0.004 C 
ATOM     10  C   UNL     1      34.688 -16.441 -23.217  0.00  0.00    +0.054 C 
BRANCH   5  11
ATOM     11  C   UNL     1      36.105 -19.954 -21.222  0.00  0.00    -0.050 C 
BRANCH  11  12
ATOM     12  N   UNL     1      35.246 -20.327 -20.099  0.00  0.00    +0.387 N 
ATOM     13  N   UNL     1      33.482 -22.138 -18.696  0.00  0.00    +0.383 N 
ATOM     14  C   UNL     1      35.763 -21.522 -19.422  0.00  0.00    -0.100 C 
ATOM     15  C   UNL     1      33.867 -20.551 -20.551  0.00  0.00    -0.100 C 
ATOM     16  C   UNL     1      34.862 -21.915 -18.246  0.00  0.00    -0.101 C 
ATOM     17  C   UNL     1      32.965 -20.943 -19.376  0.00  0.00    -0.101 C 
ATOM     18  C   UNL     1      32.623 -22.509 -17.574  0.00  0.00    -0.101 C 
ATOM     19  H   UNL     1      35.245 -19.555 -19.433  0.00  0.00    -0.079 HD
ATOM     20  H   UNL     1      33.482 -22.912 -19.362  0.00  0.00    -0.080 HD
ENDBRANCH  11  12
ENDBRANCH   5  11
ENDBRANCH   3  10
BRANCH   2  21
ATOM     21  C   UNL     1      33.780 -12.774 -23.515  0.00  0.00    +0.052 C 
ATOM     22  C   UNL     1      33.316 -11.904 -22.543  0.00  0.00    +0.030 C 
ATOM     23  C   UNL     1      32.891 -10.628 -22.918  0.00  0.00    +0.059 C 
ATOM     24  C   UNL     1      33.834 -12.409 -24.849  0.00  0.00    +0.015 C 
ATOM     25  C   UNL     1      32.938 -10.244 -24.258  0.00  0.00    +0.015 C 
ATOM     26  C   UNL     1      33.410 -11.133 -25.224  0.00  0.00    +0.003 C 
BRANCH  23  27
ATOM     27  N   UNL     1      32.417  -9.728 -21.942  0.00  0.00    -0.247 N 
ATOM     28  N   UNL     1      32.978  -7.656 -22.890  0.00  0.00    -0.337 NA
ATOM     29  N   UNL     1      31.872  -7.780 -20.753  0.00  0.00    -0.170 NA
ATOM     30  C   UNL     1      32.423  -8.322 -21.858  0.00  0.00    +0.149 C 
ATOM     31  C   UNL     1      32.966  -6.312 -22.776  0.00  0.00    +0.147 C 
ATOM     32  C   UNL     1      32.432  -5.639 -21.697  0.00  0.00    +0.055 C 
ATOM     33  C   UNL     1      31.894  -6.432 -20.705  0.00  0.00    +0.114 C 
ATOM     34  H   UNL     1      32.001 -10.169 -21.166  0.00  0.00    +0.165 HD
BRANCH  31  36
ATOM     35  N   UNL     1      33.447  -3.768 -25.457  0.00  0.00    -0.242 NA
ATOM     36  C   UNL     1      33.560  -5.598 -23.881  0.00  0.00    +0.050 C 
ATOM     37  C   UNL     1      34.767  -6.010 -24.437  0.00  0.00    +0.006 C 
ATOM     38  C   UNL     1      32.946  -4.481 -24.424  0.00  0.00    +0.101 C 
ATOM     39  C   UNL     1      35.314  -5.302 -25.501  0.00  0.00    +0.021 C 
ATOM     40  C   UNL     1      34.621  -4.198 -25.970  0.00  0.00    +0.099 C 
ENDBRANCH  31  36
ENDBRANCH  23  27
ENDBRANCH   2  21
TORSDOF 6
ENDMDL
MODEL 5
REMARK VINA RESULT:     -12.3      2.349      5.764
REMARK  Name = 4369496
REMARK  6 active torsions:
REMARK  status: ('A' for Active; 'I' for Inactive)
REMARK    1  A    between atoms: N_2  and  C_21
REMARK    2  A    between atoms: C_3  and  C_10
REMARK    3  A    between atoms: C_5  and  C_11
REMARK    4  A    between atoms: C_11  and  N_12
REMARK    5  A    between atoms: C_23  and  N_27
REMARK    6  A    between atoms: C_31  and  C_36
REMARK                            x       y       z     vdW  Elec       q    Type
REMARK                         _______ _______ _______ _____ _____    ______ ____
ROOT
ATOM      1  O   UNL     1      35.487 -22.879 -16.927  0.00  0.00    -0.270 OA
ATOM      2  N   UNL     1      33.189 -22.470 -17.163  0.00  0.00    -0.280 N 
ATOM      3  C   UNL     1      34.535 -22.372 -17.542  0.00  0.00    +0.249 C 
ATOM      4  H   UNL     1      32.546 -22.015 -17.752  0.00  0.00    +0.155 HD
ENDROOT
BRANCH   3  10
ATOM      5  C   UNL     1      35.315 -20.087 -21.015  0.00  0.00    -0.043 C 
ATOM      6  C   UNL     1      36.376 -20.547 -20.247  0.00  0.00    -0.006 C 
ATOM      7  C   UNL     1      34.003 -20.365 -20.661  0.00  0.00    -0.006 C 
ATOM      8  C   UNL     1      36.119 -21.301 -19.103  0.00  0.00    +0.004 C 
ATOM      9  C   UNL     1      33.746 -21.119 -19.516  0.00  0.00    +0.004 C 
ATOM     10  C   UNL     1      34.803 -21.587 -18.736  0.00  0.00    +0.054 C 
BRANCH   5  11
ATOM     11  C   UNL     1      35.592 -19.273 -22.251  0.00  0.00    -0.050 C 
BRANCH  11  12
ATOM     12  N   UNL     1      34.907 -17.983 -22.219  0.00  0.00    +0.387 N 
ATOM     13  N   UNL     1      34.821 -15.104 -22.472  0.00  0.00    +0.383 N 
ATOM     14  C   UNL     1      34.959 -17.332 -23.533  0.00  0.00    -0.100 C 
ATOM     15  C   UNL     1      35.488 -17.110 -21.192  0.00  0.00    -0.100 C 
ATOM     16  C   UNL     1      34.242 -15.978 -23.500  0.00  0.00    -0.101 C 
ATOM     17  C   UNL     1      34.771 -15.756 -21.157  0.00  0.00    -0.101 C 
ATOM     18  C   UNL     1      34.135 -13.815 -22.439  0.00  0.00    -0.101 C 
ATOM     19  H   UNL     1      33.930 -18.151 -21.983  0.00  0.00    -0.079 HD
ATOM     20  H   UNL     1      35.800 -14.934 -22.709  0.00  0.00    -0.080 HD
ENDBRANCH  11  12
ENDBRANCH   5  11
ENDBRANCH   3  10
BRANCH   2  21
ATOM     21  C   UNL     1      32.634 -23.140 -16.045  0.00  0.00    +0.052 C 
ATOM     22  C   UNL     1      33.282 -23.069 -14.824  0.00  0.00    +0.030 C 
ATOM     23  C   UNL     1      32.736 -23.731 -13.724  0.00  0.00    +0.059 C 
ATOM     24  C   UNL     1      31.456 -23.850 -16.200  0.00  0.00    +0.015 C 
ATOM     25  C   UNL     1      31.549 -24.451 -13.862  0.00  0.00    +0.015 C 
ATOM     26  C   UNL     1      30.909 -24.510 -15.099  0.00  0.00    +0.003 C 
BRANCH  23  27
ATOM     27  N   UNL     1      33.382 -23.669 -12.471  0.00  0.00    -0.247 N 
ATOM     28  N   UNL     1      35.402 -24.775 -12.922  0.00  0.00    -0.337 NA
ATOM     29  N   UNL     1      34.933 -23.899 -10.727  0.00  0.00    -0.170 NA
ATOM     30  C   UNL     1      34.631 -24.136 -12.019  0.00  0.00    +0.149 C 
ATOM     31  C   UNL     1      36.591 -25.209 -12.454  0.00  0.00    +0.147 C 
ATOM     32  C   UNL     1      37.016 -25.027 -11.154  0.00  0.00    +0.055 C 
ATOM     33  C   UNL     1      36.137 -24.359 -10.326  0.00  0.00    +0.114 C 
ATOM     34  H   UNL     1      32.856 -23.209 -11.778  0.00  0.00    +0.165 HD
BRANCH  31  36
ATOM     35  N   UNL     1      39.615 -26.638 -14.099  0.00  0.00    -0.242 NA
ATOM     36  C   UNL     1      37.417 -25.891 -13.420  0.00  0.00    +0.050 C 
ATOM     37  C   UNL     1      36.866 -26.450 -14.569  0.00  0.00    +0.006 C 
ATOM     38  C   UNL     1      38.785 -26.012 -13.235  0.00  0.00    +0.101 C 
ATOM     39  C   UNL     1      37.688 -27.102 -15.482  0.00  0.00    +0.021 C 
ATOM     40  C   UNL     1      39.043 -27.168 -15.202  0.00  0.00    +0.099 C 
ENDBRANCH  31  36
ENDBRANCH  23  27
ENDBRANCH   2  21
TORSDOF 6
ENDMDL
MODEL 6
REMARK VINA RESULT:     -11.4      2.769     13.880
REMARK  Name = 4369496
REMARK  6 active torsions:
REMARK  status: ('A' for Active; 'I' for Inactive)
REMARK    1  A    between atoms: N_2  and  C_21
REMARK    2  A    between atoms: C_3  and  C_10
REMARK    3  A    between atoms: C_5  and  C_11
REMARK    4  A    between atoms: C_11  and  N_12
REMARK    5  A    between atoms: C_23  and  N_27
REMARK    6  A    between atoms: C_31  and  C_36
REMARK                            x       y       z     vdW  Elec       q    Type
REMARK                         _______ _______ _______ _____ _____    ______ ____
ROOT
ATOM      1  O   UNL     1      33.937 -14.858 -24.258  0.00  0.00    -0.270 OA
ATOM      2  N   UNL     1      33.917 -13.930 -22.104  0.00  0.00    -0.280 N 
ATOM      3  C   UNL     1      34.169 -14.942 -23.042  0.00  0.00    +0.249 C 
ATOM      4  H   UNL     1      34.154 -14.143 -21.173  0.00  0.00    +0.155 HD
ENDROOT
BRANCH   3  10
ATOM      5  C   UNL     1      35.775 -18.536 -21.496  0.00  0.00    -0.043 C 
ATOM      6  C   UNL     1      35.529 -17.473 -20.638  0.00  0.00    -0.006 C 
ATOM      7  C   UNL     1      35.501 -18.438 -22.853  0.00  0.00    -0.006 C 
ATOM      8  C   UNL     1      34.999 -16.288 -21.148  0.00  0.00    +0.004 C 
ATOM      9  C   UNL     1      34.971 -17.253 -23.362  0.00  0.00    +0.004 C 
ATOM     10  C   UNL     1      34.720 -16.178 -22.510  0.00  0.00    +0.054 C 
BRANCH   5  11
ATOM     11  C   UNL     1      36.346 -19.816 -20.946  0.00  0.00    -0.050 C 
BRANCH  11  12
ATOM     12  N   UNL     1      35.543 -20.342 -19.844  0.00  0.00    +0.387 N 
ATOM     13  N   UNL     1      34.029 -22.420 -18.521  0.00  0.00    +0.383 N 
ATOM     14  C   UNL     1      36.211 -21.484 -19.210  0.00  0.00    -0.100 C 
ATOM     15  C   UNL     1      34.205 -20.725 -20.311  0.00  0.00    -0.100 C 
ATOM     16  C   UNL     1      35.368 -22.038 -18.056  0.00  0.00    -0.101 C 
ATOM     17  C   UNL     1      33.361 -21.277 -19.157  0.00  0.00    -0.101 C 
ATOM     18  C   UNL     1      33.226 -22.944 -17.419  0.00  0.00    -0.101 C 
ATOM     19  H   UNL     1      35.441 -19.603 -19.148  0.00  0.00    -0.079 HD
ATOM     20  H   UNL     1      34.130 -23.161 -19.217  0.00  0.00    -0.080 HD
ENDBRANCH  11  12
ENDBRANCH   5  11
ENDBRANCH   3  10
BRANCH   2  21
ATOM     21  C   UNL     1      33.367 -12.643 -22.320  0.00  0.00    +0.052 C 
ATOM     22  C   UNL     1      34.074 -11.724 -23.077  0.00  0.00    +0.030 C 
ATOM     23  C   UNL     1      33.533 -10.455 -23.288  0.00  0.00    +0.059 C 
ATOM     24  C   UNL     1      32.136 -12.334 -21.770  0.00  0.00    +0.015 C 
ATOM     25  C   UNL     1      32.293 -10.127 -22.741  0.00  0.00    +0.015 C 
ATOM     26  C   UNL     1      31.594 -11.065 -21.982  0.00  0.00    +0.003 C 
BRANCH  23  27
ATOM     27  N   UNL     1      34.239  -9.507 -24.058  0.00  0.00    -0.247 N 
ATOM     28  N   UNL     1      33.266  -7.494 -23.344  0.00  0.00    -0.337 NA
ATOM     29  N   UNL     1      35.012  -7.505 -25.005  0.00  0.00    -0.170 NA
ATOM     30  C   UNL     1      34.168  -8.103 -24.140  0.00  0.00    +0.149 C 
ATOM     31  C   UNL     1      33.226  -6.150 -23.449  0.00  0.00    +0.147 C 
ATOM     32  C   UNL     1      34.036  -5.422 -24.296  0.00  0.00    +0.055 C 
ATOM     33  C   UNL     1      34.918  -6.160 -25.058  0.00  0.00    +0.114 C 
ATOM     34  H   UNL     1      34.912  -9.905 -24.656  0.00  0.00    +0.165 HD
BRANCH  31  36
ATOM     35  N   UNL     1      30.807  -3.608 -22.190  0.00  0.00    -0.242 NA
ATOM     36  C   UNL     1      32.260  -5.498 -22.597  0.00  0.00    +0.050 C 
ATOM     37  C   UNL     1      31.847  -6.081 -21.403  0.00  0.00    +0.006 C 
ATOM     38  C   UNL     1      31.715  -4.271 -22.941  0.00  0.00    +0.101 C 
ATOM     39  C   UNL     1      30.915  -5.428 -20.604  0.00  0.00    +0.021 C 
ATOM     40  C   UNL     1      30.430  -4.205 -21.038  0.00  0.00    +0.099 C 
ENDBRANCH  31  36
ENDBRANCH  23  27
ENDBRANCH   2  21
TORSDOF 6
ENDMDL
MODEL 7
REMARK VINA RESULT:     -11.3      1.384      2.657
REMARK  Name = 4369496
REMARK  6 active torsions:
REMARK  status: ('A' for Active; 'I' for Inactive)
REMARK    1  A    between atoms: N_2  and  C_21
REMARK    2  A    between atoms: C_3  and  C_10
REMARK    3  A    between atoms: C_5  and  C_11
REMARK    4  A    between atoms: C_11  and  N_12
REMARK    5  A    between atoms: C_23  and  N_27
REMARK    6  A    between atoms: C_31  and  C_36
REMARK                            x       y       z     vdW  Elec       q    Type
REMARK                         _______ _______ _______ _____ _____    ______ ____
ROOT
ATOM      1  O   UNL     1      36.461 -18.795 -21.915  0.00  0.00    -0.270 OA
ATOM      2  N   UNL     1      34.270 -18.959 -21.095  0.00  0.00    -0.280 N 
ATOM      3  C   UNL     1      35.297 -18.369 -21.844  0.00  0.00    +0.249 C 
ATOM      4  H   UNL     1      33.397 -18.506 -21.137  0.00  0.00    +0.155 HD
ENDROOT
BRANCH   3  10
ATOM      5  C   UNL     1      34.268 -14.833 -23.924  0.00  0.00    -0.043 C 
ATOM      6  C   UNL     1      34.599 -14.763 -22.579  0.00  0.00    -0.006 C 
ATOM      7  C   UNL     1      34.270 -16.046 -24.599  0.00  0.00    -0.006 C 
ATOM      8  C   UNL     1      34.939 -15.928 -21.893  0.00  0.00    +0.004 C 
ATOM      9  C   UNL     1      34.610 -17.212 -23.913  0.00  0.00    +0.004 C 
ATOM     10  C   UNL     1      34.945 -17.154 -22.560  0.00  0.00    +0.054 C 
BRANCH   5  11
ATOM     11  C   UNL     1      33.901 -13.575 -24.666  0.00  0.00    -0.050 C 
BRANCH  11  12
ATOM     12  N   UNL     1      33.757 -12.434 -23.763  0.00  0.00    +0.387 N 
ATOM     13  N   UNL     1      32.443 -10.031 -22.838  0.00  0.00    +0.383 N 
ATOM     14  C   UNL     1      32.477 -12.493 -23.049  0.00  0.00    -0.100 C 
ATOM     15  C   UNL     1      33.876 -11.170 -24.499  0.00  0.00    -0.100 C 
ATOM     16  C   UNL     1      32.324 -11.296 -22.104  0.00  0.00    -0.101 C 
ATOM     17  C   UNL     1      33.723  -9.972 -23.555  0.00  0.00    -0.101 C 
ATOM     18  C   UNL     1      32.300  -8.891 -21.935  0.00  0.00    -0.101 C 
ATOM     19  H   UNL     1      34.510 -12.478 -23.077  0.00  0.00    -0.079 HD
ATOM     20  H   UNL     1      31.688  -9.985 -23.524  0.00  0.00    -0.080 HD
ENDBRANCH  11  12
ENDBRANCH   5  11
ENDBRANCH   3  10
BRANCH   2  21
ATOM     21  C   UNL     1      34.322 -20.121 -20.286  0.00  0.00    +0.052 C 
ATOM     22  C   UNL     1      35.475 -20.395 -19.571  0.00  0.00    +0.030 C 
ATOM     23  C   UNL     1      35.527 -21.540 -18.776  0.00  0.00    +0.059 C 
ATOM     24  C   UNL     1      33.219 -20.955 -20.231  0.00  0.00    +0.015 C 
ATOM     25  C   UNL     1      34.425 -22.392 -18.708  0.00  0.00    +0.015 C 
ATOM     26  C   UNL     1      33.271 -22.100 -19.435  0.00  0.00    +0.003 C 
BRANCH  23  27
ATOM     27  N   UNL     1      36.693 -21.835 -18.039  0.00  0.00    -0.247 N 
ATOM     28  N   UNL     1      35.798 -22.784 -16.088  0.00  0.00    -0.337 NA
ATOM     29  N   UNL     1      38.180 -22.547 -16.370  0.00  0.00    -0.170 NA
ATOM     30  C   UNL     1      36.900 -22.416 -16.773  0.00  0.00    +0.149 C 
ATOM     31  C   UNL     1      36.033 -23.336 -14.880  0.00  0.00    +0.147 C 
ATOM     32  C   UNL     1      37.296 -23.525 -14.356  0.00  0.00    +0.055 C 
ATOM     33  C   UNL     1      38.342 -23.108 -15.153  0.00  0.00    +0.114 C 
ATOM     34  H   UNL     1      37.526 -21.584 -18.500  0.00  0.00    +0.165 HD
BRANCH  31  36
ATOM     35  N   UNL     1      33.878 -24.557 -12.095  0.00  0.00    -0.242 NA
ATOM     36  C   UNL     1      34.855 -23.731 -14.147  0.00  0.00    +0.050 C 
ATOM     37  C   UNL     1      33.594 -23.680 -14.733  0.00  0.00    +0.006 C 
ATOM     38  C   UNL     1      34.941 -24.173 -12.837  0.00  0.00    +0.101 C 
ATOM     39  C   UNL     1      32.477 -24.067 -14.002  0.00  0.00    +0.021 C 
ATOM     40  C   UNL     1      32.671 -24.493 -12.698  0.00  0.00    +0.099 C 
ENDBRANCH  31  36
ENDBRANCH  23  27
ENDBRANCH   2  21
TORSDOF 6
ENDMDL
MODEL 8
REMARK VINA RESULT:     -11.1      6.013     15.857
REMARK  Name = 4369496
REMARK  6 active torsions:
REMARK  status: ('A' for Active; 'I' for Inactive)
REMARK    1  A    between atoms: N_2  and  C_21
REMARK    2  A    between atoms: C_3  and  C_10
REMARK    3  A    between atoms: C_5  and  C_11
REMARK    4  A    between atoms: C_11  and  N_12
REMARK    5  A    between atoms: C_23  and  N_27
REMARK    6  A    between atoms: C_31  and  C_36
REMARK                            x       y       z     vdW  Elec       q    Type
REMARK                         _______ _______ _______ _____ _____    ______ ____
ROOT
ATOM      1  O   UNL     1      31.266 -10.340 -20.884  0.00  0.00    -0.270 OA
ATOM      2  N   UNL     1      32.589  -8.955 -22.238  0.00  0.00    -0.280 N 
ATOM      3  C   UNL     1      32.067 -10.187 -21.819  0.00  0.00    +0.249 C 
ATOM      4  H   UNL     1      33.215  -8.992 -22.996  0.00  0.00    +0.155 HD
ENDROOT
BRANCH   3  10
ATOM      5  C   UNL     1      33.452 -13.589 -23.918  0.00  0.00    -0.043 C 
ATOM      6  C   UNL     1      32.728 -13.757 -22.746  0.00  0.00    -0.006 C 
ATOM      7  C   UNL     1      33.728 -12.322 -24.412  0.00  0.00    -0.006 C 
ATOM      8  C   UNL     1      32.271 -12.635 -22.054  0.00  0.00    +0.004 C 
ATOM      9  C   UNL     1      33.271 -11.200 -23.721  0.00  0.00    +0.004 C 
ATOM     10  C   UNL     1      32.542 -11.356 -22.542  0.00  0.00    +0.054 C 
BRANCH   5  11
ATOM     11  C   UNL     1      33.945 -14.799 -24.665  0.00  0.00    -0.050 C 
BRANCH  11  12
ATOM     12  N   UNL     1      34.045 -15.971 -23.798  0.00  0.00    +0.387 N 
ATOM     13  N   UNL     1      35.384 -18.333 -22.803  0.00  0.00    +0.383 N 
ATOM     14  C   UNL     1      35.217 -15.870 -22.919  0.00  0.00    -0.100 C 
ATOM     15  C   UNL     1      34.106 -17.204 -24.592  0.00  0.00    -0.100 C 
ATOM     16  C   UNL     1      35.325 -17.099 -22.010  0.00  0.00    -0.101 C 
ATOM     17  C   UNL     1      34.213 -18.434 -23.684  0.00  0.00    -0.101 C 
ATOM     18  C   UNL     1      35.483 -19.504 -21.935  0.00  0.00    -0.101 C 
ATOM     19  H   UNL     1      33.210 -16.005 -23.215  0.00  0.00    -0.079 HD
ATOM     20  H   UNL     1      36.222 -18.301 -23.385  0.00  0.00    -0.080 HD
ENDBRANCH  11  12
ENDBRANCH   5  11
ENDBRANCH   3  10
BRANCH   2  21
ATOM     21  C   UNL     1      32.332  -7.664 -21.714  0.00  0.00    +0.052 C 
ATOM     22  C   UNL     1      31.694  -6.727 -22.509  0.00  0.00    +0.030 C 
ATOM     23  C   UNL     1      31.443  -5.455 -21.993  0.00  0.00    +0.059 C 
ATOM     24  C   UNL     1      32.725  -7.371 -20.420  0.00  0.00    +0.015 C 
ATOM     25  C   UNL     1      31.833  -5.141 -20.690  0.00  0.00    +0.015 C 
ATOM     26  C   UNL     1      32.474  -6.099 -19.904  0.00  0.00    +0.003 C 
BRANCH  23  27
ATOM     27  N   UNL     1      30.794  -4.487 -22.787  0.00  0.00    -0.247 N 
ATOM     28  N   UNL     1      32.452  -3.975 -24.367  0.00  0.00    -0.337 NA
ATOM     29  N   UNL     1      30.302  -2.888 -24.432  0.00  0.00    -0.170 NA
ATOM     30  C   UNL     1      31.202  -3.749 -23.915  0.00  0.00    +0.149 C 
ATOM     31  C   UNL     1      32.809  -3.251 -25.448  0.00  0.00    +0.147 C 
ATOM     32  C   UNL     1      31.979  -2.340 -26.068  0.00  0.00    +0.055 C 
ATOM     33  C   UNL     1      30.725  -2.198 -25.511  0.00  0.00    +0.114 C 
ATOM     34  H   UNL     1      29.875  -4.289 -22.495  0.00  0.00    +0.165 HD
BRANCH  31  36
ATOM     35  N   UNL     1      36.118  -2.661 -27.059  0.00  0.00    -0.242 NA
ATOM     36  C   UNL     1      34.146  -3.493 -25.933  0.00  0.00    +0.050 C 
ATOM     37  C   UNL     1      34.758  -4.732 -25.764  0.00  0.00    +0.006 C 
ATOM     38  C   UNL     1      34.863  -2.501 -26.582  0.00  0.00    +0.101 C 
ATOM     39  C   UNL     1      36.047  -4.935 -26.242  0.00  0.00    +0.021 C 
ATOM     40  C   UNL     1      36.678  -3.877 -26.876  0.00  0.00    +0.099 C 
ENDBRANCH  31  36
ENDBRANCH  23  27
ENDBRANCH   2  21
TORSDOF 6
ENDMDL
MODEL 9
REMARK VINA RESULT:     -11.0      3.971     15.001
REMARK  Name = 4369496
REMARK  6 active torsions:
REMARK  status: ('A' for Active; 'I' for Inactive)
REMARK    1  A    between atoms: N_2  and  C_21
REMARK    2  A    between atoms: C_3  and  C_10
REMARK    3  A    between atoms: C_5  and  C_11
REMARK    4  A    between atoms: C_11  and  N_12
REMARK    5  A    between atoms: C_23  and  N_27
REMARK    6  A    between atoms: C_31  and  C_36
REMARK                            x       y       z     vdW  Elec       q    Type
REMARK                         _______ _______ _______ _____ _____    ______ ____
ROOT
ATOM      1  O   UNL     1      32.484 -12.452 -22.452  0.00  0.00    -0.270 OA
ATOM      2  N   UNL     1      34.425 -11.835 -23.615  0.00  0.00    -0.280 N 
ATOM      3  C   UNL     1      33.553 -12.749 -23.008  0.00  0.00    +0.249 C 
ATOM      4  H   UNL     1      35.237 -12.221 -24.016  0.00  0.00    +0.155 HD
ENDROOT
BRANCH   3  10
ATOM      5  C   UNL     1      34.789 -16.794 -23.065  0.00  0.00    -0.043 C 
ATOM      6  C   UNL     1      34.892 -16.065 -21.890  0.00  0.00    -0.006 C 
ATOM      7  C   UNL     1      34.287 -16.217 -24.223  0.00  0.00    -0.006 C 
ATOM      8  C   UNL     1      34.483 -14.731 -21.870  0.00  0.00    +0.004 C 
ATOM      9  C   UNL     1      33.878 -14.883 -24.204  0.00  0.00    +0.004 C 
ATOM     10  C   UNL     1      33.977 -14.140 -23.028  0.00  0.00    +0.054 C 
BRANCH   5  11
ATOM     11  C   UNL     1      35.229 -18.234 -23.086  0.00  0.00    -0.050 C 
BRANCH  11  12
ATOM     12  N   UNL     1      35.424 -18.763 -21.738  0.00  0.00    +0.387 N 
ATOM     13  N   UNL     1      36.194 -20.829 -19.867  0.00  0.00    +0.383 N 
ATOM     14  C   UNL     1      36.835 -19.095 -21.508  0.00  0.00    -0.100 C 
ATOM     15  C   UNL     1      34.577 -19.940 -21.512  0.00  0.00    -0.100 C 
ATOM     16  C   UNL     1      37.041 -19.652 -20.095  0.00  0.00    -0.101 C 
ATOM     17  C   UNL     1      34.782 -20.498 -20.099  0.00  0.00    -0.101 C 
ATOM     18  C   UNL     1      36.389 -21.356 -18.519  0.00  0.00    -0.101 C 
ATOM     19  H   UNL     1      35.153 -18.039 -21.073  0.00  0.00    -0.079 HD
ATOM     20  H   UNL     1      36.467 -21.555 -20.532  0.00  0.00    -0.080 HD
ENDBRANCH  11  12
ENDBRANCH   5  11
ENDBRANCH   3  10
BRANCH   2  21
ATOM     21  C   UNL     1      34.291 -10.429 -23.727  0.00  0.00    +0.052 C 
ATOM     22  C   UNL     1      33.457  -9.757 -22.851  0.00  0.00    +0.030 C 
ATOM     23  C   UNL     1      33.324  -8.373 -22.963  0.00  0.00    +0.059 C 
ATOM     24  C   UNL     1      34.999  -9.760 -24.711  0.00  0.00    +0.015 C 
ATOM     25  C   UNL     1      34.029  -7.682 -23.948  0.00  0.00    +0.015 C 
ATOM     26  C   UNL     1      34.866  -8.375 -24.822  0.00  0.00    +0.003 C 
BRANCH  23  27
ATOM     27  N   UNL     1      32.478  -7.672 -22.078  0.00  0.00    -0.247 N 
ATOM     28  N   UNL     1      32.222  -5.620 -23.187  0.00  0.00    -0.337 NA
ATOM     29  N   UNL     1      31.141  -6.027 -21.072  0.00  0.00    -0.170 NA
ATOM     30  C   UNL     1      31.921  -6.379 -22.114  0.00  0.00    +0.149 C 
ATOM     31  C   UNL     1      31.671  -4.388 -23.189  0.00  0.00    +0.147 C 
ATOM     32  C   UNL     1      30.856  -3.912 -22.183  0.00  0.00    +0.055 C 
ATOM     33  C   UNL     1      30.623  -4.783 -21.139  0.00  0.00    +0.114 C 
ATOM     34  H   UNL     1      32.230  -8.187 -21.276  0.00  0.00    +0.165 HD
BRANCH  31  36
ATOM     35  N   UNL     1      31.367  -1.790 -25.844  0.00  0.00    -0.242 NA
ATOM     36  C   UNL     1      31.991  -3.576 -24.338  0.00  0.00    +0.050 C 
ATOM     37  C   UNL     1      33.178  -3.762 -25.040  0.00  0.00    +0.006 C 
ATOM     38  C   UNL     1      31.128  -2.586 -24.778  0.00  0.00    +0.101 C 
ATOM     39  C   UNL     1      33.459  -2.963 -26.143  0.00  0.00    +0.021 C 
ATOM     40  C   UNL     1      32.529  -2.001 -26.501  0.00  0.00    +0.099 C 
ENDBRANCH  31  36
ENDBRANCH  23  27
ENDBRANCH   2  21
TORSDOF 6
ENDMDL
