MODEL 1
REMARK VINA RESULT:     -12.8      0.000      0.000
REMARK  Name = 25049750
REMARK  7 active torsions:
REMARK  status: ('A' for Active; 'I' for Inactive)
REMARK    1  A    between atoms: C_1  and  C_14
REMARK    2  A    between atoms: C_6  and  O_20
REMARK    3  A    between atoms: C_10  and  C_17
REMARK    4  A    between atoms: C_17  and  O_18
REMARK    5  A    between atoms: O_20  and  C_21
REMARK    6  A    between atoms: C_21  and  C_23
REMARK    7  A    between atoms: C_27  and  C_32
REMARK                            x       y       z     vdW  Elec       q    Type
REMARK                         _______ _______ _______ _____ _____    ______ ____
ROOT
ATOM      1  C   UNL     1      34.897 -19.981 -21.280  0.00  0.00    -0.004 C 
ATOM      2  C   UNL     1      33.507 -19.961 -21.158  0.00  0.00    +0.000 C 
ATOM      3  C   UNL     1      35.671 -20.641 -20.326  0.00  0.00    +0.000 C 
ATOM      4  C   UNL     1      32.893 -20.600 -20.082  0.00  0.00    +0.037 C 
ATOM      5  C   UNL     1      35.056 -21.281 -19.250  0.00  0.00    +0.037 C 
ATOM      6  C   UNL     1      33.667 -21.261 -19.128  0.00  0.00    +0.139 C 
ENDROOT
BRANCH   1  14
ATOM      7  O   UNL     1      33.569 -17.491 -24.777  0.00  0.00    -0.275 OA
ATOM      8  N   UNL     1      34.673 -19.182 -23.593  0.00  0.00    -0.302 N 
ATOM      9  C   UNL     1      35.034 -17.032 -22.960  0.00  0.00    +0.081 C 
ATOM     10  C   UNL     1      34.309 -15.907 -22.307  0.00  0.00    +0.108 C 
ATOM     11  C   UNL     1      35.391 -15.634 -23.318  0.00  0.00    +0.021 C 
ATOM     12  C   UNL     1      35.986 -17.834 -22.150  0.00  0.00    +0.033 C 
ATOM     13  C   UNL     1      34.322 -17.882 -23.899  0.00  0.00    +0.222 C 
ATOM     14  C   UNL     1      35.563 -19.289 -22.448  0.00  0.00    +0.095 C 
ATOM     15  H   UNL     1      34.352 -19.962 -24.102  0.00  0.00    +0.150 HD
BRANCH  10  17
ATOM     16  O   UNL     1      35.031 -16.285 -20.108  0.00  0.00    -0.250 OA
ATOM     17  C   UNL     1      34.646 -15.497 -20.960  0.00  0.00    +0.314 C 
BRANCH  17  18
ATOM     18  O   UNL     1      34.489 -14.166 -20.765  0.00  0.00    -0.480 OA
ATOM     19  H   UNL     1      33.848 -13.853 -20.158  0.00  0.00    +0.295 HD
ENDBRANCH  17  18
ENDBRANCH  10  17
ENDBRANCH   1  14
BRANCH   6  20
ATOM     20  O   UNL     1      33.063 -21.889 -18.070  0.00  0.00    -0.471 OA
BRANCH  20  21
ATOM     21  C   UNL     1      33.492 -23.212 -17.780  0.00  0.00    +0.229 C 
BRANCH  21  23
ATOM     22  N   UNL     1      33.595 -23.811 -13.545  0.00  0.00    -0.406 NA
ATOM     23  C   UNL     1      33.491 -23.417 -16.297  0.00  0.00    +0.012 C 
ATOM     24  C   UNL     1      32.315 -23.361 -15.537  0.00  0.00    +0.096 C 
ATOM     25  C   UNL     1      34.709 -23.668 -15.683  0.00  0.00    +0.028 C 
ATOM     26  C   UNL     1      32.415 -23.567 -14.144  0.00  0.00    +0.117 C 
ATOM     27  C   UNL     1      34.706 -23.856 -14.315  0.00  0.00    +0.130 C 
ATOM     28  C   UNL     1      31.066 -23.109 -16.130  0.00  0.00    -0.015 C 
ATOM     29  C   UNL     1      31.246 -23.511 -13.390  0.00  0.00    +0.028 C 
ATOM     30  C   UNL     1      29.914 -23.059 -15.351  0.00  0.00    -0.004 C 
ATOM     31  C   UNL     1      30.005 -23.261 -13.979  0.00  0.00    +0.002 C 
BRANCH  27  32
ATOM     32  C   UNL     1      35.931 -24.122 -13.599  0.00  0.00    +0.030 C 
ATOM     33  C   UNL     1      36.165 -23.511 -12.366  0.00  0.00    +0.003 C 
ATOM     34  C   UNL     1      36.881 -24.989 -14.138  0.00  0.00    +0.003 C 
ATOM     35  C   UNL     1      37.348 -23.769 -11.673  0.00  0.00    +0.000 C 
ATOM     36  C   UNL     1      38.064 -25.246 -13.445  0.00  0.00    +0.000 C 
ATOM     37  C   UNL     1      38.297 -24.635 -12.213  0.00  0.00    +0.000 C 
ENDBRANCH  27  32
ENDBRANCH  21  23
ENDBRANCH  20  21
ENDBRANCH   6  20
TORSDOF 7
ENDMDL
MODEL 2
REMARK VINA RESULT:     -12.1      1.039      4.133
REMARK  Name = 25049750
REMARK  7 active torsions:
REMARK  status: ('A' for Active; 'I' for Inactive)
REMARK    1  A    between atoms: C_1  and  C_14
REMARK    2  A    between atoms: C_6  and  O_20
REMARK    3  A    between atoms: C_10  and  C_17
REMARK    4  A    between atoms: C_17  and  O_18
REMARK    5  A    between atoms: O_20  and  C_21
REMARK    6  A    between atoms: C_21  and  C_23
REMARK    7  A    between atoms: C_27  and  C_32
REMARK                            x       y       z     vdW  Elec       q    Type
REMARK                         _______ _______ _______ _____ _____    ______ ____
ROOT
ATOM      1  C   UNL     1      35.357 -19.533 -21.560  0.00  0.00    -0.004 C 
ATOM      2  C   UNL     1      36.294 -20.074 -20.678  0.00  0.00    +0.000 C 
ATOM      3  C   UNL     1      33.997 -19.770 -21.363  0.00  0.00    +0.000 C 
ATOM      4  C   UNL     1      35.869 -20.853 -19.602  0.00  0.00    +0.037 C 
ATOM      5  C   UNL     1      33.573 -20.548 -20.287  0.00  0.00    +0.037 C 
ATOM      6  C   UNL     1      34.509 -21.089 -19.405  0.00  0.00    +0.139 C 
ENDROOT
BRANCH   1  14
ATOM      7  O   UNL     1      33.402 -17.081 -24.778  0.00  0.00    -0.275 OA
ATOM      8  N   UNL     1      34.831 -18.652 -23.793  0.00  0.00    -0.302 N 
ATOM      9  C   UNL     1      34.932 -16.510 -23.048  0.00  0.00    +0.081 C 
ATOM     10  C   UNL     1      34.110 -15.541 -22.271  0.00  0.00    +0.108 C 
ATOM     11  C   UNL     1      35.054 -15.057 -23.340  0.00  0.00    +0.021 C 
ATOM     12  C   UNL     1      36.053 -17.205 -22.365  0.00  0.00    +0.033 C 
ATOM     13  C   UNL     1      34.274 -17.403 -23.986  0.00  0.00    +0.222 C 
ATOM     14  C   UNL     1      35.818 -18.688 -22.726  0.00  0.00    +0.095 C 
ATOM     15  H   UNL     1      34.583 -19.442 -24.326  0.00  0.00    +0.150 HD
BRANCH  10  17
ATOM     16  O   UNL     1      34.915 -15.963 -20.109  0.00  0.00    -0.250 OA
ATOM     17  C   UNL     1      34.496 -15.159 -20.929  0.00  0.00    +0.314 C 
BRANCH  17  18
ATOM     18  O   UNL     1      34.342 -13.832 -20.699  0.00  0.00    -0.480 OA
ATOM     19  H   UNL     1      33.909 -13.539 -19.922  0.00  0.00    +0.295 HD
ENDBRANCH  17  18
ENDBRANCH  10  17
ENDBRANCH   1  14
BRANCH   6  20
ATOM     20  O   UNL     1      34.091 -21.854 -18.347  0.00  0.00    -0.471 OA
BRANCH  20  21
ATOM     21  C   UNL     1      35.102 -22.385 -17.502  0.00  0.00    +0.229 C 
BRANCH  21  23
ATOM     22  N   UNL     1      33.190 -24.020 -14.041  0.00  0.00    -0.406 NA
ATOM     23  C   UNL     1      34.467 -22.958 -16.274  0.00  0.00    +0.012 C 
ATOM     24  C   UNL     1      35.206 -23.264 -15.123  0.00  0.00    +0.096 C 
ATOM     25  C   UNL     1      33.098 -23.182 -16.304  0.00  0.00    +0.028 C 
ATOM     26  C   UNL     1      34.518 -23.801 -14.015  0.00  0.00    +0.117 C 
ATOM     27  C   UNL     1      32.513 -23.711 -15.171  0.00  0.00    +0.130 C 
ATOM     28  C   UNL     1      36.594 -23.048 -15.062  0.00  0.00    -0.015 C 
ATOM     29  C   UNL     1      35.254 -24.105 -12.873  0.00  0.00    +0.028 C 
ATOM     30  C   UNL     1      37.304 -23.361 -13.907  0.00  0.00    -0.004 C 
ATOM     31  C   UNL     1      36.633 -23.890 -12.811  0.00  0.00    +0.002 C 
BRANCH  27  32
ATOM     32  C   UNL     1      31.095 -23.975 -15.120  0.00  0.00    +0.030 C 
ATOM     33  C   UNL     1      30.608 -25.026 -14.342  0.00  0.00    +0.003 C 
ATOM     34  C   UNL     1      30.210 -23.180 -15.848  0.00  0.00    +0.003 C 
ATOM     35  C   UNL     1      29.238 -25.281 -14.292  0.00  0.00    +0.000 C 
ATOM     36  C   UNL     1      28.839 -23.435 -15.798  0.00  0.00    +0.000 C 
ATOM     37  C   UNL     1      28.354 -24.486 -15.021  0.00  0.00    +0.000 C 
ENDBRANCH  27  32
ENDBRANCH  21  23
ENDBRANCH  20  21
ENDBRANCH   6  20
TORSDOF 7
ENDMDL
MODEL 3
REMARK VINA RESULT:     -11.3      1.384      4.248
REMARK  Name = 25049750
REMARK  7 active torsions:
REMARK  status: ('A' for Active; 'I' for Inactive)
REMARK    1  A    between atoms: C_1  and  C_14
REMARK    2  A    between atoms: C_6  and  O_20
REMARK    3  A    between atoms: C_10  and  C_17
REMARK    4  A    between atoms: C_17  and  O_18
REMARK    5  A    between atoms: O_20  and  C_21
REMARK    6  A    between atoms: C_21  and  C_23
REMARK    7  A    between atoms: C_27  and  C_32
REMARK                            x       y       z     vdW  Elec       q    Type
REMARK                         _______ _______ _______ _____ _____    ______ ____
ROOT
ATOM      1  C   UNL     1      35.261 -18.683 -21.958  0.00  0.00    -0.004 C 
ATOM      2  C   UNL     1      36.087 -19.079 -20.905  0.00  0.00    +0.000 C 
ATOM      3  C   UNL     1      33.977 -19.215 -22.075  0.00  0.00    +0.000 C 
ATOM      4  C   UNL     1      35.628 -20.008 -19.971  0.00  0.00    +0.037 C 
ATOM      5  C   UNL     1      33.519 -20.143 -21.140  0.00  0.00    +0.037 C 
ATOM      6  C   UNL     1      34.343 -20.539 -20.087  0.00  0.00    +0.139 C 
ENDROOT
BRANCH   1  14
ATOM      7  O   UNL     1      33.436 -16.111 -25.159  0.00  0.00    -0.275 OA
ATOM      8  N   UNL     1      34.907 -17.626 -24.148  0.00  0.00    -0.302 N 
ATOM      9  C   UNL     1      34.675 -15.576 -23.199  0.00  0.00    +0.081 C 
ATOM     10  C   UNL     1      33.661 -14.784 -22.448  0.00  0.00    +0.108 C 
ATOM     11  C   UNL     1      34.665 -14.096 -23.335  0.00  0.00    +0.021 C 
ATOM     12  C   UNL     1      35.778 -16.224 -22.445  0.00  0.00    +0.033 C 
ATOM     13  C   UNL     1      34.238 -16.426 -24.294  0.00  0.00    +0.222 C 
ATOM     14  C   UNL     1      35.758 -17.676 -22.970  0.00  0.00    +0.095 C 
ATOM     15  H   UNL     1      34.816 -18.375 -24.781  0.00  0.00    +0.150 HD
BRANCH  10  17
ATOM     16  O   UNL     1      33.251 -13.608 -20.462  0.00  0.00    -0.250 OA
ATOM     17  C   UNL     1      33.839 -14.512 -21.038  0.00  0.00    +0.314 C 
BRANCH  17  18
ATOM     18  O   UNL     1      34.714 -15.362 -20.448  0.00  0.00    -0.480 OA
ATOM     19  H   UNL     1      35.136 -16.027 -20.954  0.00  0.00    +0.295 HD
ENDBRANCH  17  18
ENDBRANCH  10  17
ENDBRANCH   1  14
BRANCH   6  20
ATOM     20  O   UNL     1      33.893 -21.451 -19.169  0.00  0.00    -0.471 OA
BRANCH  20  21
ATOM     21  C   UNL     1      34.853 -22.353 -18.638  0.00  0.00    +0.229 C 
BRANCH  21  23
ATOM     22  N   UNL     1      33.592 -23.477 -14.706  0.00  0.00    -0.406 NA
ATOM     23  C   UNL     1      34.447 -22.743 -17.251  0.00  0.00    +0.012 C 
ATOM     24  C   UNL     1      35.369 -22.826 -16.198  0.00  0.00    +0.096 C 
ATOM     25  C   UNL     1      33.107 -23.026 -17.029  0.00  0.00    +0.028 C 
ATOM     26  C   UNL     1      34.892 -23.201 -14.925  0.00  0.00    +0.117 C 
ATOM     27  C   UNL     1      32.735 -23.386 -15.749  0.00  0.00    +0.130 C 
ATOM     28  C   UNL     1      36.733 -22.545 -16.391  0.00  0.00    -0.015 C 
ATOM     29  C   UNL     1      35.808 -23.283 -13.881  0.00  0.00    +0.028 C 
ATOM     30  C   UNL     1      37.627 -22.635 -15.329  0.00  0.00    -0.004 C 
ATOM     31  C   UNL     1      37.164 -23.004 -14.072  0.00  0.00    +0.002 C 
BRANCH  27  32
ATOM     32  C   UNL     1      31.361 -23.697 -15.434  0.00  0.00    +0.030 C 
ATOM     33  C   UNL     1      30.327 -23.005 -16.065  0.00  0.00    +0.003 C 
ATOM     34  C   UNL     1      31.067 -24.688 -14.498  0.00  0.00    +0.003 C 
ATOM     35  C   UNL     1      28.999 -23.306 -15.761  0.00  0.00    +0.000 C 
ATOM     36  C   UNL     1      29.739 -24.989 -14.194  0.00  0.00    +0.000 C 
ATOM     37  C   UNL     1      28.705 -24.297 -14.825  0.00  0.00    +0.000 C 
ENDBRANCH  27  32
ENDBRANCH  21  23
ENDBRANCH  20  21
ENDBRANCH   6  20
TORSDOF 7
ENDMDL
MODEL 4
REMARK VINA RESULT:     -11.0      6.474     13.517
REMARK  Name = 25049750
REMARK  7 active torsions:
REMARK  status: ('A' for Active; 'I' for Inactive)
REMARK    1  A    between atoms: C_1  and  C_14
REMARK    2  A    between atoms: C_6  and  O_20
REMARK    3  A    between atoms: C_10  and  C_17
REMARK    4  A    between atoms: C_17  and  O_18
REMARK    5  A    between atoms: O_20  and  C_21
REMARK    6  A    between atoms: C_21  and  C_23
REMARK    7  A    between atoms: C_27  and  C_32
REMARK                            x       y       z     vdW  Elec       q    Type
REMARK                         _______ _______ _______ _____ _____    ______ ____
ROOT
ATOM      1  C   UNL     1      34.790 -15.450 -21.712  0.00  0.00    -0.004 C 
ATOM      2  C   UNL     1      34.413 -14.898 -22.938  0.00  0.00    +0.000 C 
ATOM      3  C   UNL     1      34.310 -14.899 -20.524  0.00  0.00    +0.000 C 
ATOM      4  C   UNL     1      33.559 -13.797 -22.973  0.00  0.00    +0.037 C 
ATOM      5  C   UNL     1      33.455 -13.798 -20.560  0.00  0.00    +0.037 C 
ATOM      6  C   UNL     1      33.078 -13.247 -21.785  0.00  0.00    +0.139 C 
ENDROOT
BRANCH   1  14
ATOM      7  O   UNL     1      34.529 -19.729 -20.365  0.00  0.00    -0.275 OA
ATOM      8  N   UNL     1      35.376 -17.558 -20.595  0.00  0.00    -0.302 N 
ATOM      9  C   UNL     1      34.983 -18.751 -22.486  0.00  0.00    +0.081 C 
ATOM     10  C   UNL     1      33.834 -19.276 -23.276  0.00  0.00    +0.108 C 
ATOM     11  C   UNL     1      35.153 -20.003 -23.269  0.00  0.00    +0.021 C 
ATOM     12  C   UNL     1      35.662 -17.514 -22.949  0.00  0.00    +0.033 C 
ATOM     13  C   UNL     1      34.917 -18.785 -21.035  0.00  0.00    +0.222 C 
ATOM     14  C   UNL     1      35.715 -16.645 -21.674  0.00  0.00    +0.095 C 
ATOM     15  H   UNL     1      35.465 -17.326 -19.642  0.00  0.00    +0.150 HD
BRANCH  10  17
ATOM     16  O   UNL     1      34.183 -17.840 -25.097  0.00  0.00    -0.250 OA
ATOM     17  C   UNL     1      33.493 -18.690 -24.555  0.00  0.00    +0.314 C 
BRANCH  17  18
ATOM     18  O   UNL     1      32.342 -19.191 -25.067  0.00  0.00    -0.480 OA
ATOM     19  H   UNL     1      31.523 -18.782 -24.867  0.00  0.00    +0.295 HD
ENDBRANCH  17  18
ENDBRANCH  10  17
ENDBRANCH   1  14
BRANCH   6  20
ATOM     20  O   UNL     1      32.238 -12.164 -21.820  0.00  0.00    -0.471 OA
BRANCH  20  21
ATOM     21  C   UNL     1      32.331 -11.319 -22.958  0.00  0.00    +0.229 C 
BRANCH  21  23
ATOM     22  N   UNL     1      32.680  -7.224 -21.765  0.00  0.00    -0.406 NA
ATOM     23  C   UNL     1      32.443  -9.896 -22.506  0.00  0.00    +0.012 C 
ATOM     24  C   UNL     1      32.177  -9.509 -21.186  0.00  0.00    +0.096 C 
ATOM     25  C   UNL     1      32.825  -8.951 -23.447  0.00  0.00    +0.028 C 
ATOM     26  C   UNL     1      32.310  -8.144 -20.854  0.00  0.00    +0.117 C 
ATOM     27  C   UNL     1      32.928  -7.639 -23.029  0.00  0.00    +0.130 C 
ATOM     28  C   UNL     1      31.788 -10.442 -20.209  0.00  0.00    -0.015 C 
ATOM     29  C   UNL     1      32.045  -7.760 -19.543  0.00  0.00    +0.028 C 
ATOM     30  C   UNL     1      31.530 -10.030 -18.906  0.00  0.00    -0.004 C 
ATOM     31  C   UNL     1      31.659  -8.688 -18.572  0.00  0.00    +0.002 C 
BRANCH  27  32
ATOM     32  C   UNL     1      33.319  -6.595 -23.945  0.00  0.00    +0.030 C 
ATOM     33  C   UNL     1      34.668  -6.391 -24.236  0.00  0.00    +0.003 C 
ATOM     34  C   UNL     1      32.348  -5.788 -24.540  0.00  0.00    +0.003 C 
ATOM     35  C   UNL     1      35.046  -5.382 -25.122  0.00  0.00    +0.000 C 
ATOM     36  C   UNL     1      32.727  -4.780 -25.426  0.00  0.00    +0.000 C 
ATOM     37  C   UNL     1      34.076  -4.576 -25.716  0.00  0.00    +0.000 C 
ENDBRANCH  27  32
ENDBRANCH  21  23
ENDBRANCH  20  21
ENDBRANCH   6  20
TORSDOF 7
ENDMDL
MODEL 5
REMARK VINA RESULT:     -11.0      6.369     13.245
REMARK  Name = 25049750
REMARK  7 active torsions:
REMARK  status: ('A' for Active; 'I' for Inactive)
REMARK    1  A    between atoms: C_1  and  C_14
REMARK    2  A    between atoms: C_6  and  O_20
REMARK    3  A    between atoms: C_10  and  C_17
REMARK    4  A    between atoms: C_17  and  O_18
REMARK    5  A    between atoms: O_20  and  C_21
REMARK    6  A    between atoms: C_21  and  C_23
REMARK    7  A    between atoms: C_27  and  C_32
REMARK                            x       y       z     vdW  Elec       q    Type
REMARK                         _______ _______ _______ _____ _____    ______ ____
ROOT
ATOM      1  C   UNL     1      34.824 -15.718 -21.388  0.00  0.00    -0.004 C 
ATOM      2  C   UNL     1      34.377 -15.087 -22.551  0.00  0.00    +0.000 C 
ATOM      3  C   UNL     1      34.428 -15.240 -20.140  0.00  0.00    +0.000 C 
ATOM      4  C   UNL     1      33.535 -13.979 -22.462  0.00  0.00    +0.037 C 
ATOM      5  C   UNL     1      33.585 -14.132 -20.052  0.00  0.00    +0.037 C 
ATOM      6  C   UNL     1      33.138 -13.502 -21.213  0.00  0.00    +0.139 C 
ENDROOT
BRANCH   1  14
ATOM      7  O   UNL     1      34.504 -20.123 -20.558  0.00  0.00    -0.275 OA
ATOM      8  N   UNL     1      35.377 -17.951 -20.523  0.00  0.00    -0.302 N 
ATOM      9  C   UNL     1      34.987 -18.907 -22.545  0.00  0.00    +0.081 C 
ATOM     10  C   UNL     1      33.840 -19.321 -23.400  0.00  0.00    +0.108 C 
ATOM     11  C   UNL     1      35.150 -20.061 -23.469  0.00  0.00    +0.021 C 
ATOM     12  C   UNL     1      35.684 -17.633 -22.853  0.00  0.00    +0.033 C 
ATOM     13  C   UNL     1      34.909 -19.111 -21.109  0.00  0.00    +0.222 C 
ATOM     14  C   UNL     1      35.736 -16.921 -21.484  0.00  0.00    +0.095 C 
ATOM     15  H   UNL     1      35.460 -17.833 -19.549  0.00  0.00    +0.150 HD
BRANCH  10  17
ATOM     16  O   UNL     1      34.257 -17.736 -25.077  0.00  0.00    -0.250 OA
ATOM     17  C   UNL     1      33.516 -18.586 -24.603  0.00  0.00    +0.314 C 
BRANCH  17  18
ATOM     18  O   UNL     1      32.320 -18.946 -25.130  0.00  0.00    -0.480 OA
ATOM     19  H   UNL     1      32.288 -19.512 -25.875  0.00  0.00    +0.295 HD
ENDBRANCH  17  18
ENDBRANCH  10  17
ENDBRANCH   1  14
BRANCH   6  20
ATOM     20  O   UNL     1      32.311 -12.412 -21.127  0.00  0.00    -0.471 OA
BRANCH  20  21
ATOM     21  C   UNL     1      31.736 -11.946 -22.340  0.00  0.00    +0.229 C 
BRANCH  21  23
ATOM     22  N   UNL     1      33.320  -8.071 -23.224  0.00  0.00    -0.406 NA
ATOM     23  C   UNL     1      32.313 -10.606 -22.674  0.00  0.00    +0.012 C 
ATOM     24  C   UNL     1      33.311 -10.444 -23.645  0.00  0.00    +0.096 C 
ATOM     25  C   UNL     1      31.824  -9.506 -21.985  0.00  0.00    +0.028 C 
ATOM     26  C   UNL     1      33.792  -9.141 -23.891  0.00  0.00    +0.117 C 
ATOM     27  C   UNL     1      32.357  -8.271 -22.295  0.00  0.00    +0.130 C 
ATOM     28  C   UNL     1      33.826 -11.539 -24.361  0.00  0.00    -0.015 C 
ATOM     29  C   UNL     1      34.783  -8.981 -24.855  0.00  0.00    +0.028 C 
ATOM     30  C   UNL     1      34.817 -11.349 -25.319  0.00  0.00    -0.004 C 
ATOM     31  C   UNL     1      35.296 -10.069 -25.567  0.00  0.00    +0.002 C 
BRANCH  27  32
ATOM     32  C   UNL     1      31.904  -7.076 -21.624  0.00  0.00    +0.030 C 
ATOM     33  C   UNL     1      32.299  -6.821 -20.311  0.00  0.00    +0.003 C 
ATOM     34  C   UNL     1      31.072  -6.175 -22.288  0.00  0.00    +0.003 C 
ATOM     35  C   UNL     1      31.863  -5.666 -19.662  0.00  0.00    +0.000 C 
ATOM     36  C   UNL     1      30.635  -5.020 -21.640  0.00  0.00    +0.000 C 
ATOM     37  C   UNL     1      31.030  -4.766 -20.326  0.00  0.00    +0.000 C 
ENDBRANCH  27  32
ENDBRANCH  21  23
ENDBRANCH  20  21
ENDBRANCH   6  20
TORSDOF 7
ENDMDL
MODEL 6
REMARK VINA RESULT:     -10.6      5.379     12.663
REMARK  Name = 25049750
REMARK  7 active torsions:
REMARK  status: ('A' for Active; 'I' for Inactive)
REMARK    1  A    between atoms: C_1  and  C_14
REMARK    2  A    between atoms: C_6  and  O_20
REMARK    3  A    between atoms: C_10  and  C_17
REMARK    4  A    between atoms: C_17  and  O_18
REMARK    5  A    between atoms: O_20  and  C_21
REMARK    6  A    between atoms: C_21  and  C_23
REMARK    7  A    between atoms: C_27  and  C_32
REMARK                            x       y       z     vdW  Elec       q    Type
REMARK                         _______ _______ _______ _____ _____    ______ ____
ROOT
ATOM      1  C   UNL     1      35.303 -17.192 -23.126  0.00  0.00    -0.004 C 
ATOM      2  C   UNL     1      34.608 -17.055 -24.328  0.00  0.00    +0.000 C 
ATOM      3  C   UNL     1      35.237 -16.185 -22.164  0.00  0.00    +0.000 C 
ATOM      4  C   UNL     1      33.847 -15.910 -24.567  0.00  0.00    +0.037 C 
ATOM      5  C   UNL     1      34.476 -15.041 -22.403  0.00  0.00    +0.037 C 
ATOM      6  C   UNL     1      33.781 -14.903 -23.604  0.00  0.00    +0.139 C 
ENDROOT
BRANCH   1  14
ATOM      7  O   UNL     1      37.345 -19.066 -19.589  0.00  0.00    -0.275 OA
ATOM      8  N   UNL     1      37.054 -18.248 -21.764  0.00  0.00    -0.302 N 
ATOM      9  C   UNL     1      35.617 -19.844 -21.028  0.00  0.00    +0.081 C 
ATOM     10  C   UNL     1      34.504 -20.002 -20.050  0.00  0.00    +0.108 C 
ATOM     11  C   UNL     1      35.390 -21.170 -20.395  0.00  0.00    +0.021 C 
ATOM     12  C   UNL     1      35.285 -19.665 -22.464  0.00  0.00    +0.033 C 
ATOM     13  C   UNL     1      36.767 -19.034 -20.664  0.00  0.00    +0.222 C 
ATOM     14  C   UNL     1      36.126 -18.434 -22.867  0.00  0.00    +0.095 C 
ATOM     15  H   UNL     1      37.814 -17.623 -21.797  0.00  0.00    +0.150 HD
BRANCH  10  17
ATOM     16  O   UNL     1      32.797 -19.897 -21.654  0.00  0.00    -0.250 OA
ATOM     17  C   UNL     1      33.138 -20.146 -20.507  0.00  0.00    +0.314 C 
BRANCH  17  18
ATOM     18  O   UNL     1      32.304 -20.580 -19.531  0.00  0.00    -0.480 OA
ATOM     19  H   UNL     1      32.202 -21.498 -19.377  0.00  0.00    +0.295 HD
ENDBRANCH  17  18
ENDBRANCH  10  17
ENDBRANCH   1  14
BRANCH   6  20
ATOM     20  O   UNL     1      33.034 -13.778 -23.839  0.00  0.00    -0.471 OA
BRANCH  20  21
ATOM     21  C   UNL     1      33.734 -12.626 -24.285  0.00  0.00    +0.229 C 
BRANCH  21  23
ATOM     22  N   UNL     1      32.517  -9.178 -22.062  0.00  0.00    -0.406 NA
ATOM     23  C   UNL     1      33.297 -11.442 -23.479  0.00  0.00    +0.012 C 
ATOM     24  C   UNL     1      32.716 -11.575 -22.210  0.00  0.00    +0.096 C 
ATOM     25  C   UNL     1      33.485 -10.183 -24.033  0.00  0.00    +0.028 C 
ATOM     26  C   UNL     1      32.336 -10.401 -21.528  0.00  0.00    +0.117 C 
ATOM     27  C   UNL     1      33.081  -9.093 -23.288  0.00  0.00    +0.130 C 
ATOM     28  C   UNL     1      32.513 -12.836 -21.623  0.00  0.00    -0.015 C 
ATOM     29  C   UNL     1      31.760 -10.534 -20.268  0.00  0.00    +0.028 C 
ATOM     30  C   UNL     1      31.934 -12.940 -20.362  0.00  0.00    -0.004 C 
ATOM     31  C   UNL     1      31.557 -11.787 -19.684  0.00  0.00    +0.002 C 
BRANCH  27  32
ATOM     32  C   UNL     1      33.240  -7.749 -23.791  0.00  0.00    +0.030 C 
ATOM     33  C   UNL     1      32.118  -6.952 -24.019  0.00  0.00    +0.003 C 
ATOM     34  C   UNL     1      34.516  -7.248 -24.049  0.00  0.00    +0.003 C 
ATOM     35  C   UNL     1      32.272  -5.653 -24.504  0.00  0.00    +0.000 C 
ATOM     36  C   UNL     1      34.670  -5.949 -24.534  0.00  0.00    +0.000 C 
ATOM     37  C   UNL     1      33.548  -5.152 -24.763  0.00  0.00    +0.000 C 
ENDBRANCH  27  32
ENDBRANCH  21  23
ENDBRANCH  20  21
ENDBRANCH   6  20
TORSDOF 7
ENDMDL
MODEL 7
REMARK VINA RESULT:     -10.5      4.951     12.483
REMARK  Name = 25049750
REMARK  7 active torsions:
REMARK  status: ('A' for Active; 'I' for Inactive)
REMARK    1  A    between atoms: C_1  and  C_14
REMARK    2  A    between atoms: C_6  and  O_20
REMARK    3  A    between atoms: C_10  and  C_17
REMARK    4  A    between atoms: C_17  and  O_18
REMARK    5  A    between atoms: O_20  and  C_21
REMARK    6  A    between atoms: C_21  and  C_23
REMARK    7  A    between atoms: C_27  and  C_32
REMARK                            x       y       z     vdW  Elec       q    Type
REMARK                         _______ _______ _______ _____ _____    ______ ____
ROOT
ATOM      1  C   UNL     1      35.440 -17.257 -21.431  0.00  0.00    -0.004 C 
ATOM      2  C   UNL     1      35.161 -16.429 -22.519  0.00  0.00    +0.000 C 
ATOM      3  C   UNL     1      35.118 -16.842 -20.139  0.00  0.00    +0.000 C 
ATOM      4  C   UNL     1      34.561 -15.187 -22.314  0.00  0.00    +0.037 C 
ATOM      5  C   UNL     1      34.518 -15.600 -19.935  0.00  0.00    +0.037 C 
ATOM      6  C   UNL     1      34.239 -14.772 -21.022  0.00  0.00    +0.139 C 
ENDROOT
BRANCH   1  14
ATOM      7  O   UNL     1      37.287 -20.447 -18.860  0.00  0.00    -0.275 OA
ATOM      8  N   UNL     1      37.060 -18.916 -20.617  0.00  0.00    -0.302 N 
ATOM      9  C   UNL     1      35.433 -20.478 -20.352  0.00  0.00    +0.081 C 
ATOM     10  C   UNL     1      34.333 -20.818 -19.407  0.00  0.00    +0.108 C 
ATOM     11  C   UNL     1      35.040 -21.901 -20.178  0.00  0.00    +0.021 C 
ATOM     12  C   UNL     1      35.096 -19.786 -21.622  0.00  0.00    +0.033 C 
ATOM     13  C   UNL     1      36.693 -19.985 -19.822  0.00  0.00    +0.222 C 
ATOM     14  C   UNL     1      36.089 -18.605 -21.654  0.00  0.00    +0.095 C 
ATOM     15  H   UNL     1      37.898 -18.414 -20.494  0.00  0.00    +0.150 HD
BRANCH  10  17
ATOM     16  O   UNL     1      32.621 -20.223 -20.894  0.00  0.00    -0.250 OA
ATOM     17  C   UNL     1      32.950 -20.630 -19.790  0.00  0.00    +0.314 C 
BRANCH  17  18
ATOM     18  O   UNL     1      32.085 -20.956 -18.799  0.00  0.00    -0.480 OA
ATOM     19  H   UNL     1      31.198 -21.176 -19.005  0.00  0.00    +0.295 HD
ENDBRANCH  17  18
ENDBRANCH  10  17
ENDBRANCH   1  14
BRANCH   6  20
ATOM     20  O   UNL     1      33.650 -13.551 -20.820  0.00  0.00    -0.471 OA
BRANCH  20  21
ATOM     21  C   UNL     1      32.427 -13.309 -21.503  0.00  0.00    +0.229 C 
BRANCH  21  23
ATOM     22  N   UNL     1      32.772  -9.686 -23.753  0.00  0.00    -0.406 NA
ATOM     23  C   UNL     1      32.559 -12.062 -22.320  0.00  0.00    +0.012 C 
ATOM     24  C   UNL     1      32.955 -12.087 -23.664  0.00  0.00    +0.096 C 
ATOM     25  C   UNL     1      32.270 -10.854 -21.700  0.00  0.00    +0.028 C 
ATOM     26  C   UNL     1      33.050 -10.860 -24.352  0.00  0.00    +0.117 C 
ATOM     27  C   UNL     1      32.392  -9.705 -22.455  0.00  0.00    +0.130 C 
ATOM     28  C   UNL     1      33.253 -13.294 -24.320  0.00  0.00    -0.015 C 
ATOM     29  C   UNL     1      33.444 -10.887 -25.686  0.00  0.00    +0.028 C 
ATOM     30  C   UNL     1      33.645 -13.291 -25.655  0.00  0.00    -0.004 C 
ATOM     31  C   UNL     1      33.740 -12.086 -26.339  0.00  0.00    +0.002 C 
BRANCH  27  32
ATOM     32  C   UNL     1      32.112  -8.408 -21.886  0.00  0.00    +0.030 C 
ATOM     33  C   UNL     1      32.548  -8.103 -20.596  0.00  0.00    +0.003 C 
ATOM     34  C   UNL     1      31.405  -7.460 -22.625  0.00  0.00    +0.003 C 
ATOM     35  C   UNL     1      32.279  -6.850 -20.046  0.00  0.00    +0.000 C 
ATOM     36  C   UNL     1      31.135  -6.206 -22.075  0.00  0.00    +0.000 C 
ATOM     37  C   UNL     1      31.571  -5.902 -20.785  0.00  0.00    +0.000 C 
ENDBRANCH  27  32
ENDBRANCH  21  23
ENDBRANCH  20  21
ENDBRANCH   6  20
TORSDOF 7
ENDMDL
MODEL 8
REMARK VINA RESULT:     -10.3      7.377     11.712
REMARK  Name = 25049750
REMARK  7 active torsions:
REMARK  status: ('A' for Active; 'I' for Inactive)
REMARK    1  A    between atoms: C_1  and  C_14
REMARK    2  A    between atoms: C_6  and  O_20
REMARK    3  A    between atoms: C_10  and  C_17
REMARK    4  A    between atoms: C_17  and  O_18
REMARK    5  A    between atoms: O_20  and  C_21
REMARK    6  A    between atoms: C_21  and  C_23
REMARK    7  A    between atoms: C_27  and  C_32
REMARK                            x       y       z     vdW  Elec       q    Type
REMARK                         _______ _______ _______ _____ _____    ______ ____
ROOT
ATOM      1  C   UNL     1      34.082  -8.097 -24.240  0.00  0.00    -0.004 C 
ATOM      2  C   UNL     1      32.972  -8.908 -24.001  0.00  0.00    +0.000 C 
ATOM      3  C   UNL     1      35.254  -8.654 -24.753  0.00  0.00    +0.000 C 
ATOM      4  C   UNL     1      33.034 -10.274 -24.275  0.00  0.00    +0.037 C 
ATOM      5  C   UNL     1      35.315 -10.020 -25.027  0.00  0.00    +0.037 C 
ATOM      6  C   UNL     1      34.206 -10.830 -24.789  0.00  0.00    +0.139 C 
ENDROOT
BRANCH   1  14
ATOM      7  O   UNL     1      30.843  -5.027 -23.724  0.00  0.00    -0.275 OA
ATOM      8  N   UNL     1      32.820  -6.006 -24.507  0.00  0.00    -0.302 N 
ATOM      9  C   UNL     1      32.552  -5.799 -22.261  0.00  0.00    +0.081 C 
ATOM     10  C   UNL     1      31.727  -6.372 -21.162  0.00  0.00    +0.108 C 
ATOM     11  C   UNL     1      32.226  -4.954 -21.083  0.00  0.00    +0.021 C 
ATOM     12  C   UNL     1      33.944  -6.286 -22.437  0.00  0.00    +0.033 C 
ATOM     13  C   UNL     1      31.934  -5.547 -23.551  0.00  0.00    +0.222 C 
ATOM     14  C   UNL     1      34.014  -6.616 -23.944  0.00  0.00    +0.095 C 
ATOM     15  H   UNL     1      32.659  -5.928 -25.475  0.00  0.00    +0.150 HD
BRANCH  10  17
ATOM     16  O   UNL     1      32.783  -6.859 -19.126  0.00  0.00    -0.250 OA
ATOM     17  C   UNL     1      32.319  -7.259 -20.183  0.00  0.00    +0.314 C 
BRANCH  17  18
ATOM     18  O   UNL     1      32.295  -8.557 -20.572  0.00  0.00    -0.480 OA
ATOM     19  H   UNL     1      32.377  -9.239 -19.936  0.00  0.00    +0.295 HD
ENDBRANCH  17  18
ENDBRANCH  10  17
ENDBRANCH   1  14
BRANCH   6  20
ATOM     20  O   UNL     1      34.267 -12.173 -25.058  0.00  0.00    -0.471 OA
BRANCH  20  21
ATOM     21  C   UNL     1      33.118 -12.944 -24.737  0.00  0.00    +0.229 C 
BRANCH  21  23
ATOM     22  N   UNL     1      33.819 -15.032 -21.068  0.00  0.00    -0.406 NA
ATOM     23  C   UNL     1      33.345 -13.647 -23.435  0.00  0.00    +0.012 C 
ATOM     24  C   UNL     1      32.869 -13.139 -22.218  0.00  0.00    +0.096 C 
ATOM     25  C   UNL     1      34.052 -14.841 -23.465  0.00  0.00    +0.028 C 
ATOM     26  C   UNL     1      33.132 -13.874 -21.043  0.00  0.00    +0.117 C 
ATOM     27  C   UNL     1      34.261 -15.488 -22.263  0.00  0.00    +0.130 C 
ATOM     28  C   UNL     1      32.149 -11.934 -22.156  0.00  0.00    -0.015 C 
ATOM     29  C   UNL     1      32.660 -13.368 -19.836  0.00  0.00    +0.028 C 
ATOM     30  C   UNL     1      31.688 -11.452 -20.935  0.00  0.00    -0.004 C 
ATOM     31  C   UNL     1      31.944 -12.170 -19.773  0.00  0.00    +0.002 C 
BRANCH  27  32
ATOM     32  C   UNL     1      34.988 -16.734 -22.206  0.00  0.00    +0.030 C 
ATOM     33  C   UNL     1      35.686 -17.081 -21.049  0.00  0.00    +0.003 C 
ATOM     34  C   UNL     1      34.992 -17.590 -23.306  0.00  0.00    +0.003 C 
ATOM     35  C   UNL     1      36.388 -18.286 -20.993  0.00  0.00    +0.000 C 
ATOM     36  C   UNL     1      35.694 -18.795 -23.251  0.00  0.00    +0.000 C 
ATOM     37  C   UNL     1      36.393 -19.141 -22.094  0.00  0.00    +0.000 C 
ENDBRANCH  27  32
ENDBRANCH  21  23
ENDBRANCH  20  21
ENDBRANCH   6  20
TORSDOF 7
ENDMDL
MODEL 9
REMARK VINA RESULT:     -10.3      5.419     10.224
REMARK  Name = 25049750
REMARK  7 active torsions:
REMARK  status: ('A' for Active; 'I' for Inactive)
REMARK    1  A    between atoms: C_1  and  C_14
REMARK    2  A    between atoms: C_6  and  O_20
REMARK    3  A    between atoms: C_10  and  C_17
REMARK    4  A    between atoms: C_17  and  O_18
REMARK    5  A    between atoms: O_20  and  C_21
REMARK    6  A    between atoms: C_21  and  C_23
REMARK    7  A    between atoms: C_27  and  C_32
REMARK                            x       y       z     vdW  Elec       q    Type
REMARK                         _______ _______ _______ _____ _____    ______ ____
ROOT
ATOM      1  C   UNL     1      31.741 -10.045 -21.519  0.00  0.00    -0.004 C 
ATOM      2  C   UNL     1      32.318 -10.887 -22.471  0.00  0.00    +0.000 C 
ATOM      3  C   UNL     1      31.559 -10.492 -20.211  0.00  0.00    +0.000 C 
ATOM      4  C   UNL     1      32.712 -12.176 -22.113  0.00  0.00    +0.037 C 
ATOM      5  C   UNL     1      31.954 -11.781 -19.854  0.00  0.00    +0.037 C 
ATOM      6  C   UNL     1      32.531 -12.623 -20.804  0.00  0.00    +0.139 C 
ENDROOT
BRANCH   1  14
ATOM      7  O   UNL     1      32.964  -5.854 -20.454  0.00  0.00    -0.275 OA
ATOM      8  N   UNL     1      31.563  -7.690 -20.842  0.00  0.00    -0.302 N 
ATOM      9  C   UNL     1      32.939  -7.029 -22.523  0.00  0.00    +0.081 C 
ATOM     10  C   UNL     1      34.390  -7.014 -22.858  0.00  0.00    +0.108 C 
ATOM     11  C   UNL     1      33.471  -5.947 -23.392  0.00  0.00    +0.021 C 
ATOM     12  C   UNL     1      32.078  -8.079 -23.124  0.00  0.00    +0.033 C 
ATOM     13  C   UNL     1      32.526  -6.751 -21.158  0.00  0.00    +0.222 C 
ATOM     14  C   UNL     1      31.315  -8.647 -21.908  0.00  0.00    +0.095 C 
ATOM     15  H   UNL     1      31.090  -7.708 -19.978  0.00  0.00    +0.150 HD
BRANCH  10  17
ATOM     16  O   UNL     1      34.978  -7.583 -25.056  0.00  0.00    -0.250 OA
ATOM     17  C   UNL     1      34.919  -7.897 -23.876  0.00  0.00    +0.314 C 
BRANCH  17  18
ATOM     18  O   UNL     1      35.333  -9.085 -23.373  0.00  0.00    -0.480 OA
ATOM     19  H   UNL     1      35.370  -9.214 -22.446  0.00  0.00    +0.295 HD
ENDBRANCH  17  18
ENDBRANCH  10  17
ENDBRANCH   1  14
BRANCH   6  20
ATOM     20  O   UNL     1      32.918 -13.890 -20.453  0.00  0.00    -0.471 OA
BRANCH  20  21
ATOM     21  C   UNL     1      34.312 -14.165 -20.478  0.00  0.00    +0.229 C 
BRANCH  21  23
ATOM     22  N   UNL     1      35.027 -17.793 -22.629  0.00  0.00    -0.406 NA
ATOM     23  C   UNL     1      34.553 -15.416 -21.262  0.00  0.00    +0.012 C 
ATOM     24  C   UNL     1      34.395 -15.468 -22.654  0.00  0.00    +0.096 C 
ATOM     25  C   UNL     1      34.947 -16.548 -20.562  0.00  0.00    +0.028 C 
ATOM     26  C   UNL     1      34.646 -16.694 -23.306  0.00  0.00    +0.117 C 
ATOM     27  C   UNL     1      35.169 -17.701 -21.287  0.00  0.00    +0.130 C 
ATOM     28  C   UNL     1      33.998 -14.339 -23.391  0.00  0.00    -0.015 C 
ATOM     29  C   UNL     1      34.487 -16.744 -24.687  0.00  0.00    +0.028 C 
ATOM     30  C   UNL     1      33.847 -14.418 -24.772  0.00  0.00    -0.004 C 
ATOM     31  C   UNL     1      34.093 -15.622 -25.421  0.00  0.00    +0.002 C 
BRANCH  27  32
ATOM     32  C   UNL     1      35.580 -18.922 -20.635  0.00  0.00    +0.030 C 
ATOM     33  C   UNL     1      34.649 -19.933 -20.396  0.00  0.00    +0.003 C 
ATOM     34  C   UNL     1      36.908 -19.091 -20.243  0.00  0.00    +0.003 C 
ATOM     35  C   UNL     1      35.047 -21.113 -19.767  0.00  0.00    +0.000 C 
ATOM     36  C   UNL     1      37.306 -20.271 -19.614  0.00  0.00    +0.000 C 
ATOM     37  C   UNL     1      36.374 -21.281 -19.375  0.00  0.00    +0.000 C 
ENDBRANCH  27  32
ENDBRANCH  21  23
ENDBRANCH  20  21
ENDBRANCH   6  20
TORSDOF 7
ENDMDL
