MODEL 1
REMARK VINA RESULT:     -12.0      0.000      0.000
REMARK  Name = 6102777
REMARK  2 active torsions:
REMARK  status: ('A' for Active; 'I' for Inactive)
REMARK    1  A    between atoms: C_4  and  S_16
REMARK    2  A    between atoms: S_16  and  N_19
REMARK                            x       y       z     vdW  Elec       q    Type
REMARK                         _______ _______ _______ _____ _____    ______ ____
ROOT
ATOM      1  O   UNL     1      36.725 -20.884 -18.693  0.00  0.00    -0.453 OA
ATOM      2  O   UNL     1      32.852 -22.194 -18.506  0.00  0.00    -0.286 OA
ATOM      3  C   UNL     1      35.004 -22.186 -17.549  0.00  0.00    +0.075 A 
ATOM      4  C   UNL     1      35.619 -23.365 -15.535  0.00  0.00    +0.126 C 
ATOM      5  C   UNL     1      36.307 -21.704 -17.674  0.00  0.00    +0.148 A 
ATOM      6  C   UNL     1      34.654 -23.017 -16.482  0.00  0.00    +0.026 C 
ATOM      7  C   UNL     1      34.476 -20.923 -19.644  0.00  0.00    +0.074 A 
ATOM      8  C   UNL     1      34.009 -21.802 -18.561  0.00  0.00    +0.201 A 
ATOM      9  C   UNL     1      35.809 -20.514 -19.648  0.00  0.00    +0.148 A 
ATOM     10  C   UNL     1      36.923 -22.886 -15.656  0.00  0.00    +0.023 C 
ATOM     11  C   UNL     1      37.268 -22.057 -16.724  0.00  0.00    +0.039 C 
ATOM     12  C   UNL     1      33.602 -20.504 -20.651  0.00  0.00    +0.006 C 
ATOM     13  C   UNL     1      36.274 -19.680 -20.666  0.00  0.00    +0.038 C 
ATOM     14  C   UNL     1      34.073 -19.671 -21.667  0.00  0.00    +0.000 C 
ATOM     15  C   UNL     1      35.405 -19.259 -21.675  0.00  0.00    +0.003 C 
ENDROOT
BRANCH   4  16
ATOM     16  S   UNL     1      35.192 -24.404 -14.197  0.00  0.00    +0.081 S 
ATOM     17  O   UNL     1      33.799 -24.150 -13.852  0.00  0.00    -0.149 OA
ATOM     18  O   UNL     1      35.616 -25.759 -14.523  0.00  0.00    -0.149 OA
BRANCH  16  19
ATOM     19  N   UNL     1      36.196 -23.786 -12.961  0.00  0.00    -0.156 N 
ATOM     20  N   UNL     1      36.906 -23.602 -10.670  0.00  0.00    -0.094 NA
ATOM     21  N   UNL     1      35.162 -24.977 -11.116  0.00  0.00    -0.071 NA
ATOM     22  N   UNL     1      36.403 -24.216  -9.589  0.00  0.00    -0.139 N 
ATOM     23  N   UNL     1      35.368 -25.039  -9.806  0.00  0.00    -0.020 NA
ATOM     24  C   UNL     1      36.096 -24.114 -11.589  0.00  0.00    +0.145 C 
ATOM     25  H   UNL     1      36.901 -23.150 -13.225  0.00  0.00    +0.186 HD
ATOM     26  H   UNL     1      36.772 -24.069  -8.688  0.00  0.00    +0.197 HD
ENDBRANCH  16  19
ENDBRANCH   4  16
TORSDOF 2
ENDMDL
MODEL 2
REMARK VINA RESULT:     -11.8      4.544      5.403
REMARK  Name = 6102777
REMARK  2 active torsions:
REMARK  status: ('A' for Active; 'I' for Inactive)
REMARK    1  A    between atoms: C_4  and  S_16
REMARK    2  A    between atoms: S_16  and  N_19
REMARK                            x       y       z     vdW  Elec       q    Type
REMARK                         _______ _______ _______ _____ _____    ______ ____
ROOT
ATOM      1  O   UNL     1      35.557 -22.762 -16.682  0.00  0.00    -0.453 OA
ATOM      2  O   UNL     1      31.903 -21.979 -18.351  0.00  0.00    -0.286 OA
ATOM      3  C   UNL     1      33.125 -22.964 -16.594  0.00  0.00    +0.075 A 
ATOM      4  C   UNL     1      32.146 -24.147 -14.733  0.00  0.00    +0.126 C 
ATOM      5  C   UNL     1      34.401 -23.196 -16.081  0.00  0.00    +0.148 A 
ATOM      6  C   UNL     1      31.994 -23.437 -15.924  0.00  0.00    +0.026 C 
ATOM      7  C   UNL     1      34.244 -21.756 -18.479  0.00  0.00    +0.074 A 
ATOM      8  C   UNL     1      32.995 -22.213 -17.852  0.00  0.00    +0.201 A 
ATOM      9  C   UNL     1      35.455 -22.058 -17.857  0.00  0.00    +0.148 A 
ATOM     10  C   UNL     1      33.420 -24.382 -14.216  0.00  0.00    +0.023 C 
ATOM     11  C   UNL     1      34.547 -23.908 -14.889  0.00  0.00    +0.039 C 
ATOM     12  C   UNL     1      34.221 -21.035 -19.675  0.00  0.00    +0.006 C 
ATOM     13  C   UNL     1      36.654 -21.635 -18.435  0.00  0.00    +0.038 C 
ATOM     14  C   UNL     1      35.423 -20.615 -20.248  0.00  0.00    +0.000 C 
ATOM     15  C   UNL     1      36.636 -20.914 -19.630  0.00  0.00    +0.003 C 
ENDROOT
BRANCH   4  16
ATOM     16  S   UNL     1      30.739 -24.744 -13.887  0.00  0.00    +0.081 S 
ATOM     17  O   UNL     1      30.251 -25.922 -14.593  0.00  0.00    -0.149 OA
ATOM     18  O   UNL     1      31.070 -24.841 -12.472  0.00  0.00    -0.149 OA
BRANCH  16  19
ATOM     19  N   UNL     1      29.640 -23.458 -14.118  0.00  0.00    -0.156 N 
ATOM     20  N   UNL     1      27.886 -22.328 -15.318  0.00  0.00    -0.094 NA
ATOM     21  N   UNL     1      28.628 -24.296 -16.160  0.00  0.00    -0.071 NA
ATOM     22  N   UNL     1      27.268 -22.708 -16.445  0.00  0.00    -0.139 N 
ATOM     23  N   UNL     1      27.676 -23.867 -16.980  0.00  0.00    -0.020 NA
ATOM     24  C   UNL     1      28.720 -23.353 -15.189  0.00  0.00    +0.145 C 
ATOM     25  H   UNL     1      29.646 -22.732 -13.453  0.00  0.00    +0.186 HD
ATOM     26  H   UNL     1      26.556 -22.167 -16.856  0.00  0.00    +0.197 HD
ENDBRANCH  16  19
ENDBRANCH   4  16
TORSDOF 2
ENDMDL
MODEL 3
REMARK VINA RESULT:     -11.3      0.995      2.261
REMARK  Name = 6102777
REMARK  2 active torsions:
REMARK  status: ('A' for Active; 'I' for Inactive)
REMARK    1  A    between atoms: C_4  and  S_16
REMARK    2  A    between atoms: S_16  and  N_19
REMARK                            x       y       z     vdW  Elec       q    Type
REMARK                         _______ _______ _______ _____ _____    ______ ____
ROOT
ATOM      1  O   UNL     1      32.898 -21.525 -18.907  0.00  0.00    -0.453 OA
ATOM      2  O   UNL     1      36.887 -21.763 -18.025  0.00  0.00    -0.286 OA
ATOM      3  C   UNL     1      34.678 -22.335 -17.443  0.00  0.00    +0.075 A 
ATOM      4  C   UNL     1      34.060 -23.653 -15.518  0.00  0.00    +0.126 C 
ATOM      5  C   UNL     1      33.336 -22.214 -17.802  0.00  0.00    +0.148 A 
ATOM      6  C   UNL     1      35.046 -23.053 -16.303  0.00  0.00    +0.026 C 
ATOM      7  C   UNL     1      35.207 -20.961 -19.468  0.00  0.00    +0.074 A 
ATOM      8  C   UNL     1      35.696 -21.693 -18.289  0.00  0.00    +0.201 A 
ATOM      9  C   UNL     1      33.834 -20.919 -19.709  0.00  0.00    +0.148 A 
ATOM     10  C   UNL     1      32.716 -23.534 -15.872  0.00  0.00    +0.023 C 
ATOM     11  C   UNL     1      32.353 -22.815 -17.012  0.00  0.00    +0.039 C 
ATOM     12  C   UNL     1      36.099 -20.319 -20.330  0.00  0.00    +0.006 C 
ATOM     13  C   UNL     1      33.348 -20.231 -20.821  0.00  0.00    +0.038 C 
ATOM     14  C   UNL     1      35.607 -19.632 -21.441  0.00  0.00    +0.000 C 
ATOM     15  C   UNL     1      34.235 -19.587 -21.686  0.00  0.00    +0.003 C 
ENDROOT
BRANCH   4  16
ATOM     16  S   UNL     1      34.508 -24.553 -14.091  0.00  0.00    +0.081 S 
ATOM     17  O   UNL     1      33.311 -24.750 -13.283  0.00  0.00    -0.149 OA
ATOM     18  O   UNL     1      35.289 -25.709 -14.511  0.00  0.00    -0.149 OA
BRANCH  16  19
ATOM     19  N   UNL     1      35.536 -23.440 -13.303  0.00  0.00    -0.156 N 
ATOM     20  N   UNL     1      36.972 -22.757 -11.497  0.00  0.00    -0.094 NA
ATOM     21  N   UNL     1      36.035 -24.815 -11.365  0.00  0.00    -0.071 NA
ATOM     22  N   UNL     1      37.307 -23.441 -10.393  0.00  0.00    -0.139 N 
ATOM     23  N   UNL     1      36.774 -24.665 -10.273  0.00  0.00    -0.020 NA
ATOM     24  C   UNL     1      36.181 -23.661 -12.063  0.00  0.00    +0.145 C 
ATOM     25  H   UNL     1      35.693 -22.575 -13.747  0.00  0.00    +0.186 HD
ATOM     26  H   UNL     1      37.909 -23.066  -9.710  0.00  0.00    +0.197 HD
ENDBRANCH  16  19
ENDBRANCH   4  16
TORSDOF 2
ENDMDL
MODEL 4
REMARK VINA RESULT:     -11.3      2.800      4.073
REMARK  Name = 6102777
REMARK  2 active torsions:
REMARK  status: ('A' for Active; 'I' for Inactive)
REMARK    1  A    between atoms: C_4  and  S_16
REMARK    2  A    between atoms: S_16  and  N_19
REMARK                            x       y       z     vdW  Elec       q    Type
REMARK                         _______ _______ _______ _____ _____    ______ ____
ROOT
ATOM      1  O   UNL     1      33.983 -23.109 -16.403  0.00  0.00    -0.453 OA
ATOM      2  O   UNL     1      37.941 -22.071 -16.321  0.00  0.00    -0.286 OA
ATOM      3  C   UNL     1      36.131 -23.120 -15.239  0.00  0.00    +0.075 A 
ATOM      4  C   UNL     1      36.252 -24.193 -13.081  0.00  0.00    +0.126 C 
ATOM      5  C   UNL     1      34.777 -23.441 -15.332  0.00  0.00    +0.148 A 
ATOM      6  C   UNL     1      36.873 -23.493 -14.116  0.00  0.00    +0.026 C 
ATOM      7  C   UNL     1      35.893 -22.036 -17.483  0.00  0.00    +0.074 A 
ATOM      8  C   UNL     1      36.759 -22.382 -16.345  0.00  0.00    +0.201 A 
ATOM      9  C   UNL     1      34.553 -22.420 -17.446  0.00  0.00    +0.148 A 
ATOM     10  C   UNL     1      34.898 -24.516 -13.169  0.00  0.00    +0.023 C 
ATOM     11  C   UNL     1      34.160 -24.141 -14.292  0.00  0.00    +0.039 C 
ATOM     12  C   UNL     1      36.400 -21.337 -18.580  0.00  0.00    +0.006 C 
ATOM     13  C   UNL     1      33.712 -22.103 -18.514  0.00  0.00    +0.038 C 
ATOM     14  C   UNL     1      35.555 -21.022 -19.645  0.00  0.00    +0.000 C 
ATOM     15  C   UNL     1      34.215 -21.403 -19.613  0.00  0.00    +0.003 C 
ENDROOT
BRANCH   4  16
ATOM     16  S   UNL     1      37.170 -24.664 -11.672  0.00  0.00    +0.081 S 
ATOM     17  O   UNL     1      37.053 -23.605 -10.679  0.00  0.00    -0.149 OA
ATOM     18  O   UNL     1      36.790 -26.025 -11.319  0.00  0.00    -0.149 OA
BRANCH  16  19
ATOM     19  N   UNL     1      38.760 -24.672 -12.296  0.00  0.00    -0.156 N 
ATOM     20  N   UNL     1      40.524 -25.584 -13.655  0.00  0.00    -0.094 NA
ATOM     21  N   UNL     1      38.531 -26.661 -13.670  0.00  0.00    -0.071 NA
ATOM     22  N   UNL     1      40.494 -26.669 -14.443  0.00  0.00    -0.139 N 
ATOM     23  N   UNL     1      39.333 -27.338 -14.481  0.00  0.00    -0.020 NA
ATOM     24  C   UNL     1      39.277 -25.629 -13.202  0.00  0.00    +0.145 C 
ATOM     25  H   UNL     1      39.365 -23.952 -12.003  0.00  0.00    +0.186 HD
ATOM     26  H   UNL     1      41.279 -26.957 -14.962  0.00  0.00    +0.197 HD
ENDBRANCH  16  19
ENDBRANCH   4  16
TORSDOF 2
ENDMDL
MODEL 5
REMARK VINA RESULT:     -11.1      2.598      3.186
REMARK  Name = 6102777
REMARK  2 active torsions:
REMARK  status: ('A' for Active; 'I' for Inactive)
REMARK    1  A    between atoms: C_4  and  S_16
REMARK    2  A    between atoms: S_16  and  N_19
REMARK                            x       y       z     vdW  Elec       q    Type
REMARK                         _______ _______ _______ _____ _____    ______ ____
ROOT
ATOM      1  O   UNL     1      36.544 -21.218 -18.397  0.00  0.00    -0.453 OA
ATOM      2  O   UNL     1      33.128 -22.980 -16.992  0.00  0.00    -0.286 OA
ATOM      3  C   UNL     1      35.437 -22.606 -16.719  0.00  0.00    +0.075 A 
ATOM      4  C   UNL     1      36.771 -23.491 -14.913  0.00  0.00    +0.126 C 
ATOM      5  C   UNL     1      36.562 -21.978 -17.253  0.00  0.00    +0.148 A 
ATOM      6  C   UNL     1      35.536 -23.363 -15.549  0.00  0.00    +0.026 C 
ATOM      7  C   UNL     1      34.149 -21.635 -18.633  0.00  0.00    +0.074 A 
ATOM      8  C   UNL     1      34.148 -22.453 -17.411  0.00  0.00    +0.201 A 
ATOM      9  C   UNL     1      35.349 -21.064 -19.056  0.00  0.00    +0.148 A 
ATOM     10  C   UNL     1      37.899 -22.866 -15.444  0.00  0.00    +0.023 C 
ATOM     11  C   UNL     1      37.796 -22.110 -16.612  0.00  0.00    +0.039 C 
ATOM     12  C   UNL     1      32.972 -21.433 -19.358  0.00  0.00    +0.006 C 
ATOM     13  C   UNL     1      35.373 -20.284 -20.214  0.00  0.00    +0.038 C 
ATOM     14  C   UNL     1      33.003 -20.653 -20.515  0.00  0.00    +0.000 C 
ATOM     15  C   UNL     1      34.200 -20.080 -20.942  0.00  0.00    +0.003 C 
ENDROOT
BRANCH   4  16
ATOM     16  S   UNL     1      36.905 -24.436 -13.450  0.00  0.00    +0.081 S 
ATOM     17  O   UNL     1      37.896 -23.802 -12.590  0.00  0.00    -0.149 OA
ATOM     18  O   UNL     1      35.561 -24.675 -12.941  0.00  0.00    -0.149 OA
BRANCH  16  19
ATOM     19  N   UNL     1      37.544 -25.899 -14.055  0.00  0.00    -0.156 N 
ATOM     20  N   UNL     1      39.362 -27.365 -14.638  0.00  0.00    -0.094 NA
ATOM     21  N   UNL     1      39.890 -25.337 -13.776  0.00  0.00    -0.071 NA
ATOM     22  N   UNL     1      40.680 -27.146 -14.521  0.00  0.00    -0.139 N 
ATOM     23  N   UNL     1      41.038 -25.958 -14.016  0.00  0.00    -0.020 NA
ATOM     24  C   UNL     1      38.921 -26.207 -14.159  0.00  0.00    +0.145 C 
ATOM     25  H   UNL     1      36.903 -26.584 -14.354  0.00  0.00    +0.186 HD
ATOM     26  H   UNL     1      41.345 -27.820 -14.792  0.00  0.00    +0.197 HD
ENDBRANCH  16  19
ENDBRANCH   4  16
TORSDOF 2
ENDMDL
MODEL 6
REMARK VINA RESULT:     -11.1      5.648      7.977
REMARK  Name = 6102777
REMARK  2 active torsions:
REMARK  status: ('A' for Active; 'I' for Inactive)
REMARK    1  A    between atoms: C_4  and  S_16
REMARK    2  A    between atoms: S_16  and  N_19
REMARK                            x       y       z     vdW  Elec       q    Type
REMARK                         _______ _______ _______ _____ _____    ______ ____
ROOT
ATOM      1  O   UNL     1      35.128 -23.552 -15.859  0.00  0.00    -0.453 OA
ATOM      2  O   UNL     1      33.770 -24.566 -12.134  0.00  0.00    -0.286 OA
ATOM      3  C   UNL     1      33.256 -23.859 -14.321  0.00  0.00    +0.075 A 
ATOM      4  C   UNL     1      31.028 -23.420 -15.137  0.00  0.00    +0.126 C 
ATOM      5  C   UNL     1      33.787 -23.526 -15.567  0.00  0.00    +0.148 A 
ATOM      6  C   UNL     1      31.877 -23.808 -14.100  0.00  0.00    +0.026 C 
ATOM      7  C   UNL     1      35.608 -24.287 -13.579  0.00  0.00    +0.074 A 
ATOM      8  C   UNL     1      34.175 -24.264 -13.247  0.00  0.00    +0.201 A 
ATOM      9  C   UNL     1      36.002 -23.929 -14.868  0.00  0.00    +0.148 A 
ATOM     10  C   UNL     1      31.554 -23.085 -16.384  0.00  0.00    +0.023 C 
ATOM     11  C   UNL     1      32.931 -23.138 -16.600  0.00  0.00    +0.039 C 
ATOM     12  C   UNL     1      36.557 -24.660 -12.625  0.00  0.00    +0.006 C 
ATOM     13  C   UNL     1      37.357 -23.943 -15.206  0.00  0.00    +0.038 C 
ATOM     14  C   UNL     1      37.910 -24.672 -12.968  0.00  0.00    +0.000 C 
ATOM     15  C   UNL     1      38.309 -24.315 -14.256  0.00  0.00    +0.003 C 
ENDROOT
BRANCH   4  16
ATOM     16  S   UNL     1      29.303 -23.352 -14.872  0.00  0.00    +0.081 S 
ATOM     17  O   UNL     1      28.881 -24.626 -14.302  0.00  0.00    -0.149 OA
ATOM     18  O   UNL     1      29.002 -22.115 -14.165  0.00  0.00    -0.149 OA
BRANCH  16  19
ATOM     19  N   UNL     1      28.723 -23.237 -16.474  0.00  0.00    -0.156 N 
ATOM     20  N   UNL     1      27.105 -22.565 -18.124  0.00  0.00    -0.094 NA
ATOM     21  N   UNL     1      26.664 -22.057 -15.961  0.00  0.00    -0.071 NA
ATOM     22  N   UNL     1      25.948 -21.913 -17.940  0.00  0.00    -0.139 N 
ATOM     23  N   UNL     1      25.646 -21.593 -16.674  0.00  0.00    -0.020 NA
ATOM     24  C   UNL     1      27.506 -22.626 -16.859  0.00  0.00    +0.145 C 
ATOM     25  H   UNL     1      29.279 -23.628 -17.186  0.00  0.00    +0.186 HD
ATOM     26  H   UNL     1      25.354 -21.684 -18.691  0.00  0.00    +0.197 HD
ENDBRANCH  16  19
ENDBRANCH   4  16
TORSDOF 2
ENDMDL
MODEL 7
REMARK VINA RESULT:     -11.1      4.502      6.138
REMARK  Name = 6102777
REMARK  2 active torsions:
REMARK  status: ('A' for Active; 'I' for Inactive)
REMARK    1  A    between atoms: C_4  and  S_16
REMARK    2  A    between atoms: S_16  and  N_19
REMARK                            x       y       z     vdW  Elec       q    Type
REMARK                         _______ _______ _______ _____ _____    ______ ____
ROOT
ATOM      1  O   UNL     1      32.974 -24.164 -12.952  0.00  0.00    -0.453 OA
ATOM      2  O   UNL     1      34.203 -23.298 -16.758  0.00  0.00    -0.286 OA
ATOM      3  C   UNL     1      34.785 -23.978 -14.580  0.00  0.00    +0.075 A 
ATOM      4  C   UNL     1      37.027 -24.498 -13.854  0.00  0.00    +0.126 C 
ATOM      5  C   UNL     1      34.298 -24.257 -13.303  0.00  0.00    +0.148 A 
ATOM      6  C   UNL     1      36.149 -24.097 -14.861  0.00  0.00    +0.026 C 
ATOM      7  C   UNL     1      32.422 -23.464 -15.226  0.00  0.00    +0.074 A 
ATOM      8  C   UNL     1      33.836 -23.557 -15.621  0.00  0.00    +0.201 A 
ATOM      9  C   UNL     1      32.072 -23.773 -13.911  0.00  0.00    +0.148 A 
ATOM     10  C   UNL     1      36.545 -24.777 -12.575  0.00  0.00    +0.023 C 
ATOM     11  C   UNL     1      35.183 -24.658 -12.299  0.00  0.00    +0.039 C 
ATOM     12  C   UNL     1      31.447 -23.073 -16.147  0.00  0.00    +0.006 C 
ATOM     13  C   UNL     1      30.737 -23.691 -13.514  0.00  0.00    +0.038 C 
ATOM     14  C   UNL     1      30.114 -22.993 -15.743  0.00  0.00    +0.000 C 
ATOM     15  C   UNL     1      29.759 -23.301 -14.430  0.00  0.00    +0.003 C 
ENDROOT
BRANCH   4  16
ATOM     16  S   UNL     1      38.733 -24.649 -14.194  0.00  0.00    +0.081 S 
ATOM     17  O   UNL     1      39.097 -23.618 -15.158  0.00  0.00    -0.149 OA
ATOM     18  O   UNL     1      39.443 -24.728 -12.924  0.00  0.00    -0.149 OA
BRANCH  16  19
ATOM     19  N   UNL     1      38.788 -26.174 -14.961  0.00  0.00    -0.156 N 
ATOM     20  N   UNL     1      39.838 -28.277 -15.477  0.00  0.00    -0.094 NA
ATOM     21  N   UNL     1      40.959 -26.855 -14.115  0.00  0.00    -0.071 NA
ATOM     22  N   UNL     1      41.026 -28.740 -15.061  0.00  0.00    -0.139 N 
ATOM     23  N   UNL     1      41.725 -27.930 -14.253  0.00  0.00    -0.020 NA
ATOM     24  C   UNL     1      39.851 -27.102 -14.857  0.00  0.00    +0.145 C 
ATOM     25  H   UNL     1      38.017 -26.428 -15.520  0.00  0.00    +0.186 HD
ATOM     26  H   UNL     1      41.365 -29.623 -15.333  0.00  0.00    +0.197 HD
ENDBRANCH  16  19
ENDBRANCH   4  16
TORSDOF 2
ENDMDL
MODEL 8
REMARK VINA RESULT:     -10.9      2.364      2.854
REMARK  Name = 6102777
REMARK  2 active torsions:
REMARK  status: ('A' for Active; 'I' for Inactive)
REMARK    1  A    between atoms: C_4  and  S_16
REMARK    2  A    between atoms: S_16  and  N_19
REMARK                            x       y       z     vdW  Elec       q    Type
REMARK                         _______ _______ _______ _____ _____    ______ ____
ROOT
ATOM      1  O   UNL     1      36.989 -20.440 -19.103  0.00  0.00    -0.453 OA
ATOM      2  O   UNL     1      33.103 -21.677 -19.446  0.00  0.00    -0.286 OA
ATOM      3  C   UNL     1      35.112 -21.729 -18.219  0.00  0.00    +0.075 A 
ATOM      4  C   UNL     1      35.440 -22.957 -16.167  0.00  0.00    +0.126 C 
ATOM      5  C   UNL     1      36.428 -21.270 -18.164  0.00  0.00    +0.148 A 
ATOM      6  C   UNL     1      34.613 -22.572 -17.223  0.00  0.00    +0.026 C 
ATOM      7  C   UNL     1      34.882 -20.417 -20.338  0.00  0.00    +0.074 A 
ATOM      8  C   UNL     1      34.263 -21.307 -19.343  0.00  0.00    +0.201 A 
ATOM      9  C   UNL     1      36.211 -20.035 -20.161  0.00  0.00    +0.148 A 
ATOM     10  C   UNL     1      36.757 -22.502 -16.108  0.00  0.00    +0.023 C 
ATOM     11  C   UNL     1      37.251 -21.659 -17.105  0.00  0.00    +0.039 C 
ATOM     12  C   UNL     1      34.154 -19.964 -21.441  0.00  0.00    +0.006 C 
ATOM     13  C   UNL     1      36.819 -19.192 -21.093  0.00  0.00    +0.038 C 
ATOM     14  C   UNL     1      34.767 -19.121 -22.370  0.00  0.00    +0.000 C 
ATOM     15  C   UNL     1      36.096 -18.736 -22.196  0.00  0.00    +0.003 C 
ENDROOT
BRANCH   4  16
ATOM     16  S   UNL     1      34.826 -24.011 -14.917  0.00  0.00    +0.081 S 
ATOM     17  O   UNL     1      35.195 -25.379 -15.256  0.00  0.00    -0.149 OA
ATOM     18  O   UNL     1      35.218 -23.459 -13.627  0.00  0.00    -0.149 OA
BRANCH  16  19
ATOM     19  N   UNL     1      33.141 -23.821 -15.118  0.00  0.00    -0.156 N 
ATOM     20  N   UNL     1      30.856 -24.079 -14.408  0.00  0.00    -0.094 NA
ATOM     21  N   UNL     1      32.472 -24.881 -13.039  0.00  0.00    -0.071 NA
ATOM     22  N   UNL     1      30.390 -24.645 -13.285  0.00  0.00    -0.139 N 
ATOM     23  N   UNL     1      31.313 -25.135 -12.445  0.00  0.00    -0.020 NA
ATOM     24  C   UNL     1      32.155 -24.255 -14.200  0.00  0.00    +0.145 C 
ATOM     25  H   UNL     1      32.829 -23.374 -15.939  0.00  0.00    +0.186 HD
ATOM     26  H   UNL     1      29.427 -24.699 -13.090  0.00  0.00    +0.197 HD
ENDBRANCH  16  19
ENDBRANCH   4  16
TORSDOF 2
ENDMDL
MODEL 9
REMARK VINA RESULT:     -10.7      5.062      7.380
REMARK  Name = 6102777
REMARK  2 active torsions:
REMARK  status: ('A' for Active; 'I' for Inactive)
REMARK    1  A    between atoms: C_4  and  S_16
REMARK    2  A    between atoms: S_16  and  N_19
REMARK                            x       y       z     vdW  Elec       q    Type
REMARK                         _______ _______ _______ _____ _____    ______ ____
ROOT
ATOM      1  O   UNL     1      36.508 -23.974 -15.434  0.00  0.00    -0.453 OA
ATOM      2  O   UNL     1      35.768 -25.491 -11.707  0.00  0.00    -0.286 OA
ATOM      3  C   UNL     1      34.907 -24.523 -13.674  0.00  0.00    +0.075 A 
ATOM      4  C   UNL     1      32.575 -24.041 -14.063  0.00  0.00    +0.126 C 
ATOM      5  C   UNL     1      35.230 -24.020 -14.933  0.00  0.00    +0.148 A 
ATOM      6  C   UNL     1      33.581 -24.536 -13.234  0.00  0.00    +0.026 C 
ATOM      7  C   UNL     1      37.350 -24.982 -13.375  0.00  0.00    +0.074 A 
ATOM      8  C   UNL     1      35.988 -25.039 -12.820  0.00  0.00    +0.201 A 
ATOM      9  C   UNL     1      37.531 -24.452 -14.652  0.00  0.00    +0.148 A 
ATOM     10  C   UNL     1      32.893 -23.535 -15.324  0.00  0.00    +0.023 C 
ATOM     11  C   UNL     1      34.219 -23.524 -15.759  0.00  0.00    +0.039 C 
ATOM     12  C   UNL     1      38.441 -25.449 -12.639  0.00  0.00    +0.006 C 
ATOM     13  C   UNL     1      38.814 -24.387 -15.199  0.00  0.00    +0.038 C 
ATOM     14  C   UNL     1      39.721 -25.382 -13.190  0.00  0.00    +0.000 C 
ATOM     15  C   UNL     1      39.908 -24.853 -14.467  0.00  0.00    +0.003 C 
ENDROOT
BRANCH   4  16
ATOM     16  S   UNL     1      30.914 -24.052 -13.523  0.00  0.00    +0.081 S 
ATOM     17  O   UNL     1      30.358 -25.372 -13.795  0.00  0.00    -0.149 OA
ATOM     18  O   UNL     1      30.876 -23.523 -12.166  0.00  0.00    -0.149 OA
BRANCH  16  19
ATOM     19  N   UNL     1      30.209 -22.918 -14.586  0.00  0.00    -0.156 N 
ATOM     20  N   UNL     1      28.727 -22.293 -16.377  0.00  0.00    -0.094 NA
ATOM     21  N   UNL     1      28.776 -24.476 -15.776  0.00  0.00    -0.071 NA
ATOM     22  N   UNL     1      27.902 -23.075 -17.089  0.00  0.00    -0.139 N 
ATOM     23  N   UNL     1      27.900 -24.376 -16.767  0.00  0.00    -0.020 NA
ATOM     24  C   UNL     1      29.243 -23.218 -15.576  0.00  0.00    +0.145 C 
ATOM     25  H   UNL     1      30.497 -21.980 -14.504  0.00  0.00    +0.186 HD
ATOM     26  H   UNL     1      27.333 -22.714 -17.806  0.00  0.00    +0.197 HD
ENDBRANCH  16  19
ENDBRANCH   4  16
TORSDOF 2
ENDMDL
