MODEL 1
REMARK VINA RESULT:     -12.4      0.000      0.000
REMARK  Name = 11581936
REMARK  5 active torsions:
REMARK  status: ('A' for Active; 'I' for Inactive)
REMARK    1  A    between atoms: C_1  and  C_9
REMARK    2  A    between atoms: C_4  and  O_19
REMARK    3  A    between atoms: C_10  and  C_14
REMARK    4  A    between atoms: O_19  and  C_20
REMARK    5  A    between atoms: C_20  and  C_22
REMARK                            x       y       z     vdW  Elec       q    Type
REMARK                         _______ _______ _______ _____ _____    ______ ____
ROOT
ATOM      1  C   UNL     1      33.615 -22.123 -18.063  0.00  0.00    +0.019 C 
ATOM      2  C   UNL     1      34.988 -22.313 -18.209  0.00  0.00    +0.005 C 
ATOM      3  C   UNL     1      32.927 -21.289 -18.945  0.00  0.00    +0.005 C 
ATOM      4  C   UNL     1      34.984 -20.839 -20.114  0.00  0.00    +0.139 C 
ATOM      5  C   UNL     1      35.675 -21.668 -19.238  0.00  0.00    +0.037 C 
ATOM      6  C   UNL     1      33.614 -20.645 -19.974  0.00  0.00    +0.037 C 
ENDROOT
BRANCH   1   9
ATOM      7  N   UNL     1      31.279 -23.544 -15.907  0.00  0.00    -0.208 N 
ATOM      8  N   UNL     1      31.571 -22.875 -17.035  0.00  0.00    -0.178 NA
ATOM      9  C   UNL     1      32.907 -22.786 -17.003  0.00  0.00    +0.100 C 
ATOM     10  C   UNL     1      33.458 -23.397 -15.857  0.00  0.00    +0.036 C 
ATOM     11  C   UNL     1      32.374 -23.880 -15.166  0.00  0.00    +0.086 C 
ATOM     12  C   UNL     1      29.904 -23.837 -15.585  0.00  0.00    +0.140 C 
BRANCH  10  14
ATOM     13  N   UNL     1      37.452 -23.828 -14.530  0.00  0.00    -0.242 NA
ATOM     14  C   UNL     1      34.810 -23.543 -15.409  0.00  0.00    +0.006 C 
ATOM     15  C   UNL     1      35.624 -22.424 -15.259  0.00  0.00    +0.021 C 
ATOM     16  C   UNL     1      35.320 -24.805 -15.118  0.00  0.00    +0.021 C 
ATOM     17  C   UNL     1      36.924 -22.619 -14.822  0.00  0.00    +0.099 C 
ATOM     18  C   UNL     1      36.634 -24.894 -14.687  0.00  0.00    +0.099 C 
ENDBRANCH  10  14
ENDBRANCH   1   9
BRANCH   4  19
ATOM     19  O   UNL     1      35.658 -20.207 -21.125  0.00  0.00    -0.468 OA
BRANCH  19  20
ATOM     20  C   UNL     1      36.101 -18.880 -20.868  0.00  0.00    +0.264 C 
BRANCH  20  22
ATOM     21  N   UNL     1      35.283 -16.682 -21.469  0.00  0.00    -0.406 NA
ATOM     22  C   UNL     1      35.498 -17.955 -21.873  0.00  0.00    +0.152 C 
ATOM     23  C   UNL     1      34.397 -16.208 -23.660  0.00  0.00    +0.026 C 
ATOM     24  C   UNL     1      34.741 -15.818 -22.349  0.00  0.00    +0.113 C 
ATOM     25  C   UNL     1      35.195 -18.428 -23.134  0.00  0.00    +0.031 C 
ATOM     26  C   UNL     1      34.637 -17.536 -24.038  0.00  0.00    +0.005 C 
ATOM     27  C   UNL     1      33.832 -15.280 -24.551  0.00  0.00    +0.002 C 
ATOM     28  C   UNL     1      34.504 -14.498 -21.974  0.00  0.00    +0.085 C 
ATOM     29  C   UNL     1      33.605 -13.966 -24.151  0.00  0.00    -0.004 C 
ATOM     30  C   UNL     1      33.941 -13.575 -22.860  0.00  0.00    -0.019 C 
ENDBRANCH  20  22
ENDBRANCH  19  20
ENDBRANCH   4  19
TORSDOF 5
ENDMDL
MODEL 2
REMARK VINA RESULT:     -12.2      0.972      1.162
REMARK  Name = 11581936
REMARK  5 active torsions:
REMARK  status: ('A' for Active; 'I' for Inactive)
REMARK    1  A    between atoms: C_1  and  C_9
REMARK    2  A    between atoms: C_4  and  O_19
REMARK    3  A    between atoms: C_10  and  C_14
REMARK    4  A    between atoms: O_19  and  C_20
REMARK    5  A    between atoms: C_20  and  C_22
REMARK                            x       y       z     vdW  Elec       q    Type
REMARK                         _______ _______ _______ _____ _____    ______ ____
ROOT
ATOM      1  C   UNL     1      33.637 -22.651 -17.195  0.00  0.00    +0.019 C 
ATOM      2  C   UNL     1      35.019 -22.624 -17.385  0.00  0.00    +0.005 C 
ATOM      3  C   UNL     1      32.793 -22.037 -18.120  0.00  0.00    +0.005 C 
ATOM      4  C   UNL     1      34.708 -21.371 -19.418  0.00  0.00    +0.139 C 
ATOM      5  C   UNL     1      35.556 -21.981 -18.500  0.00  0.00    +0.037 C 
ATOM      6  C   UNL     1      33.330 -21.394 -19.236  0.00  0.00    +0.037 C 
ENDROOT
BRANCH   1   9
ATOM      7  N   UNL     1      31.625 -24.112 -14.758  0.00  0.00    -0.208 N 
ATOM      8  N   UNL     1      31.759 -23.467 -15.929  0.00  0.00    -0.178 NA
ATOM      9  C   UNL     1      33.084 -23.313 -16.047  0.00  0.00    +0.100 C 
ATOM     10  C   UNL     1      33.786 -23.860 -14.952  0.00  0.00    +0.036 C 
ATOM     11  C   UNL     1      32.810 -24.371 -14.133  0.00  0.00    +0.086 C 
ATOM     12  C   UNL     1      30.310 -24.460 -14.278  0.00  0.00    +0.140 C 
BRANCH  10  14
ATOM     13  N   UNL     1      37.917 -24.058 -14.061  0.00  0.00    -0.242 NA
ATOM     14  C   UNL     1      35.184 -23.927 -14.652  0.00  0.00    +0.006 C 
ATOM     15  C   UNL     1      35.868 -22.787 -14.237  0.00  0.00    +0.021 C 
ATOM     16  C   UNL     1      35.871 -25.132 -14.770  0.00  0.00    +0.021 C 
ATOM     17  C   UNL     1      37.220 -22.904 -13.958  0.00  0.00    +0.099 C 
ATOM     18  C   UNL     1      37.222 -25.145 -14.466  0.00  0.00    +0.099 C 
ENDBRANCH  10  14
ENDBRANCH   1   9
BRANCH   4  19
ATOM     19  O   UNL     1      35.236 -20.740 -20.514  0.00  0.00    -0.468 OA
BRANCH  19  20
ATOM     20  C   UNL     1      36.121 -19.655 -20.264  0.00  0.00    +0.264 C 
BRANCH  20  22
ATOM     21  N   UNL     1      35.354 -17.362 -20.400  0.00  0.00    -0.406 NA
ATOM     22  C   UNL     1      35.702 -18.478 -21.082  0.00  0.00    +0.152 C 
ATOM     23  C   UNL     1      34.923 -16.287 -22.513  0.00  0.00    +0.026 C 
ATOM     24  C   UNL     1      34.970 -16.280 -21.104  0.00  0.00    +0.113 C 
ATOM     25  C   UNL     1      35.687 -18.579 -22.458  0.00  0.00    +0.031 C 
ATOM     26  C   UNL     1      35.291 -17.462 -23.180  0.00  0.00    +0.005 C 
ATOM     27  C   UNL     1      34.516 -15.139 -23.214  0.00  0.00    +0.002 C 
ATOM     28  C   UNL     1      34.604 -15.111 -20.441  0.00  0.00    +0.085 C 
ATOM     29  C   UNL     1      34.155 -13.983 -22.527  0.00  0.00    -0.004 C 
ATOM     30  C   UNL     1      34.199 -13.970 -21.139  0.00  0.00    -0.019 C 
ENDBRANCH  20  22
ENDBRANCH  19  20
ENDBRANCH   4  19
TORSDOF 5
ENDMDL
MODEL 3
REMARK VINA RESULT:     -12.1      3.238     10.993
REMARK  Name = 11581936
REMARK  5 active torsions:
REMARK  status: ('A' for Active; 'I' for Inactive)
REMARK    1  A    between atoms: C_1  and  C_9
REMARK    2  A    between atoms: C_4  and  O_19
REMARK    3  A    between atoms: C_10  and  C_14
REMARK    4  A    between atoms: O_19  and  C_20
REMARK    5  A    between atoms: C_20  and  C_22
REMARK                            x       y       z     vdW  Elec       q    Type
REMARK                         _______ _______ _______ _____ _____    ______ ____
ROOT
ATOM      1  C   UNL     1      33.524 -13.773 -22.753  0.00  0.00    +0.019 C 
ATOM      2  C   UNL     1      33.339 -14.392 -23.989  0.00  0.00    +0.005 C 
ATOM      3  C   UNL     1      34.308 -14.386 -21.776  0.00  0.00    +0.005 C 
ATOM      4  C   UNL     1      34.720 -16.229 -23.269  0.00  0.00    +0.139 C 
ATOM      5  C   UNL     1      33.940 -15.625 -24.247  0.00  0.00    +0.037 C 
ATOM      6  C   UNL     1      34.909 -15.618 -22.034  0.00  0.00    +0.037 C 
ENDROOT
BRANCH   1   9
ATOM      7  N   UNL     1      31.673 -11.084 -21.545  0.00  0.00    -0.208 N 
ATOM      8  N   UNL     1      32.026 -12.379 -21.485  0.00  0.00    -0.178 NA
ATOM      9  C   UNL     1      32.906 -12.505 -22.486  0.00  0.00    +0.100 C 
ATOM     10  C   UNL     1      33.110 -11.291 -23.177  0.00  0.00    +0.036 C 
ATOM     11  C   UNL     1      32.294 -10.388 -22.540  0.00  0.00    +0.086 C 
ATOM     12  C   UNL     1      30.716 -10.558 -20.601  0.00  0.00    +0.140 C 
BRANCH  10  14
ATOM     13  N   UNL     1      35.569 -10.299 -26.473  0.00  0.00    -0.242 NA
ATOM     14  C   UNL     1      33.941 -10.955 -24.293  0.00  0.00    +0.006 C 
ATOM     15  C   UNL     1      34.919  -9.972 -24.168  0.00  0.00    +0.021 C 
ATOM     16  C   UNL     1      33.780 -11.610 -25.511  0.00  0.00    +0.021 C 
ATOM     17  C   UNL     1      35.698  -9.684 -25.277  0.00  0.00    +0.099 C 
ATOM     18  C   UNL     1      34.610 -11.249 -26.559  0.00  0.00    +0.099 C 
ENDBRANCH  10  14
ENDBRANCH   1   9
BRANCH   4  19
ATOM     19  O   UNL     1      35.310 -17.440 -23.523  0.00  0.00    -0.468 OA
BRANCH  19  20
ATOM     20  C   UNL     1      34.549 -18.601 -23.215  0.00  0.00    +0.264 C 
BRANCH  20  22
ATOM     21  N   UNL     1      34.288 -20.059 -21.300  0.00  0.00    -0.406 NA
ATOM     22  C   UNL     1      35.122 -19.260 -22.005  0.00  0.00    +0.152 C 
ATOM     23  C   UNL     1      36.104 -20.498 -19.778  0.00  0.00    +0.026 C 
ATOM     24  C   UNL     1      34.770 -20.671 -20.201  0.00  0.00    +0.113 C 
ATOM     25  C   UNL     1      36.441 -19.031 -21.668  0.00  0.00    +0.031 C 
ATOM     26  C   UNL     1      36.935 -19.663 -20.536  0.00  0.00    +0.005 C 
ATOM     27  C   UNL     1      36.573 -21.152 -18.626  0.00  0.00    +0.002 C 
ATOM     28  C   UNL     1      33.945 -21.502 -19.448  0.00  0.00    +0.085 C 
ATOM     29  C   UNL     1      35.727 -21.977 -17.889  0.00  0.00    -0.004 C 
ATOM     30  C   UNL     1      34.412 -22.152 -18.301  0.00  0.00    -0.019 C 
ENDBRANCH  20  22
ENDBRANCH  19  20
ENDBRANCH   4  19
TORSDOF 5
ENDMDL
MODEL 4
REMARK VINA RESULT:     -11.7      1.305      3.367
REMARK  Name = 11581936
REMARK  5 active torsions:
REMARK  status: ('A' for Active; 'I' for Inactive)
REMARK    1  A    between atoms: C_1  and  C_9
REMARK    2  A    between atoms: C_4  and  O_19
REMARK    3  A    between atoms: C_10  and  C_14
REMARK    4  A    between atoms: O_19  and  C_20
REMARK    5  A    between atoms: C_20  and  C_22
REMARK                            x       y       z     vdW  Elec       q    Type
REMARK                         _______ _______ _______ _____ _____    ______ ____
ROOT
ATOM      1  C   UNL     1      35.134 -22.810 -16.835  0.00  0.00    +0.019 C 
ATOM      2  C   UNL     1      36.280 -22.092 -17.175  0.00  0.00    +0.005 C 
ATOM      3  C   UNL     1      34.014 -22.772 -17.665  0.00  0.00    +0.005 C 
ATOM      4  C   UNL     1      35.187 -21.304 -19.171  0.00  0.00    +0.139 C 
ATOM      5  C   UNL     1      36.306 -21.337 -18.348  0.00  0.00    +0.037 C 
ATOM      6  C   UNL     1      34.041 -22.017 -18.838  0.00  0.00    +0.037 C 
ENDROOT
BRANCH   1   9
ATOM      7  N   UNL     1      35.816 -24.787 -14.052  0.00  0.00    -0.208 N 
ATOM      8  N   UNL     1      36.226 -24.162 -15.168  0.00  0.00    -0.178 NA
ATOM      9  C   UNL     1      35.106 -23.587 -15.628  0.00  0.00    +0.100 C 
ATOM     10  C   UNL     1      33.992 -23.850 -14.803  0.00  0.00    +0.036 C 
ATOM     11  C   UNL     1      34.487 -24.631 -13.788  0.00  0.00    +0.086 C 
ATOM     12  C   UNL     1      36.764 -25.535 -13.262  0.00  0.00    +0.140 C 
BRANCH  10  14
ATOM     13  N   UNL     1      29.937 -22.674 -15.081  0.00  0.00    -0.242 NA
ATOM     14  C   UNL     1      32.620 -23.453 -14.897  0.00  0.00    +0.006 C 
ATOM     15  C   UNL     1      31.964 -22.926 -13.788  0.00  0.00    +0.021 C 
ATOM     16  C   UNL     1      31.930 -23.589 -16.099  0.00  0.00    +0.021 C 
ATOM     17  C   UNL     1      30.636 -22.556 -13.931  0.00  0.00    +0.099 C 
ATOM     18  C   UNL     1      30.605 -23.190 -16.139  0.00  0.00    +0.099 C 
ENDBRANCH  10  14
ENDBRANCH   1   9
BRANCH   4  19
ATOM     19  O   UNL     1      35.213 -20.562 -20.324  0.00  0.00    -0.468 OA
BRANCH  19  20
ATOM     20  C   UNL     1      36.301 -19.661 -20.480  0.00  0.00    +0.264 C 
BRANCH  20  22
ATOM     21  N   UNL     1      35.420 -17.406 -20.428  0.00  0.00    -0.406 NA
ATOM     22  C   UNL     1      35.831 -18.440 -21.199  0.00  0.00    +0.152 C 
ATOM     23  C   UNL     1      34.957 -16.174 -22.447  0.00  0.00    +0.026 C 
ATOM     24  C   UNL     1      34.989 -16.287 -21.041  0.00  0.00    +0.113 C 
ATOM     25  C   UNL     1      35.836 -18.421 -22.579  0.00  0.00    +0.031 C 
ATOM     26  C   UNL     1      35.392 -17.267 -23.207  0.00  0.00    +0.005 C 
ATOM     27  C   UNL     1      34.500 -14.991 -23.052  0.00  0.00    +0.002 C 
ATOM     28  C   UNL     1      34.557 -15.200 -20.286  0.00  0.00    +0.085 C 
ATOM     29  C   UNL     1      34.073 -13.919 -22.274  0.00  0.00    -0.004 C 
ATOM     30  C   UNL     1      34.102 -14.024 -20.889  0.00  0.00    -0.019 C 
ENDBRANCH  20  22
ENDBRANCH  19  20
ENDBRANCH   4  19
TORSDOF 5
ENDMDL
MODEL 5
REMARK VINA RESULT:     -11.6      1.841      4.178
REMARK  Name = 11581936
REMARK  5 active torsions:
REMARK  status: ('A' for Active; 'I' for Inactive)
REMARK    1  A    between atoms: C_1  and  C_9
REMARK    2  A    between atoms: C_4  and  O_19
REMARK    3  A    between atoms: C_10  and  C_14
REMARK    4  A    between atoms: O_19  and  C_20
REMARK    5  A    between atoms: C_20  and  C_22
REMARK                            x       y       z     vdW  Elec       q    Type
REMARK                         _______ _______ _______ _____ _____    ______ ____
ROOT
ATOM      1  C   UNL     1      34.319 -23.163 -15.808  0.00  0.00    +0.019 C 
ATOM      2  C   UNL     1      33.237 -23.199 -16.687  0.00  0.00    +0.005 C 
ATOM      3  C   UNL     1      35.528 -22.597 -16.211  0.00  0.00    +0.005 C 
ATOM      4  C   UNL     1      34.573 -22.105 -18.366  0.00  0.00    +0.139 C 
ATOM      5  C   UNL     1      33.366 -22.668 -17.971  0.00  0.00    +0.037 C 
ATOM      6  C   UNL     1      35.656 -22.065 -17.494  0.00  0.00    +0.037 C 
ENDROOT
BRANCH   1   9
ATOM      7  N   UNL     1      34.768 -24.441 -12.600  0.00  0.00    -0.208 N 
ATOM      8  N   UNL     1      35.276 -23.944 -13.741  0.00  0.00    -0.178 NA
ATOM      9  C   UNL     1      34.188 -23.709 -14.486  0.00  0.00    +0.100 C 
ATOM     10  C   UNL     1      32.995 -24.057 -13.817  0.00  0.00    +0.036 C 
ATOM     11  C   UNL     1      33.407 -24.529 -12.595  0.00  0.00    +0.086 C 
ATOM     12  C   UNL     1      35.655 -24.823 -11.528  0.00  0.00    +0.140 C 
BRANCH  10  14
ATOM     13  N   UNL     1      28.937 -23.840 -14.993  0.00  0.00    -0.242 NA
ATOM     14  C   UNL     1      31.622 -23.984 -14.214  0.00  0.00    +0.006 C 
ATOM     15  C   UNL     1      30.963 -22.758 -14.238  0.00  0.00    +0.021 C 
ATOM     16  C   UNL     1      30.935 -25.138 -14.582  0.00  0.00    +0.021 C 
ATOM     17  C   UNL     1      29.634 -22.740 -14.630  0.00  0.00    +0.099 C 
ATOM     18  C   UNL     1      29.607 -25.014 -14.959  0.00  0.00    +0.099 C 
ENDBRANCH  10  14
ENDBRANCH   1   9
BRANCH   4  19
ATOM     19  O   UNL     1      34.698 -21.583 -19.627  0.00  0.00    -0.468 OA
BRANCH  19  20
ATOM     20  C   UNL     1      35.945 -20.980 -19.949  0.00  0.00    +0.264 C 
BRANCH  20  22
ATOM     21  N   UNL     1      35.003 -19.966 -21.935  0.00  0.00    -0.406 NA
ATOM     22  C   UNL     1      35.707 -19.774 -20.796  0.00  0.00    +0.152 C 
ATOM     23  C   UNL     1      35.234 -17.612 -22.395  0.00  0.00    +0.026 C 
ATOM     24  C   UNL     1      34.768 -18.901 -22.725  0.00  0.00    +0.113 C 
ATOM     25  C   UNL     1      36.203 -18.552 -20.390  0.00  0.00    +0.031 C 
ATOM     26  C   UNL     1      35.959 -17.457 -21.206  0.00  0.00    +0.005 C 
ATOM     27  C   UNL     1      34.971 -16.523 -23.243  0.00  0.00    +0.002 C 
ATOM     28  C   UNL     1      34.047 -19.055 -23.906  0.00  0.00    +0.085 C 
ATOM     29  C   UNL     1      34.248 -16.704 -24.419  0.00  0.00    -0.004 C 
ATOM     30  C   UNL     1      33.785 -17.972 -24.751  0.00  0.00    -0.019 C 
ENDBRANCH  20  22
ENDBRANCH  19  20
ENDBRANCH   4  19
TORSDOF 5
ENDMDL
MODEL 6
REMARK VINA RESULT:     -11.6      1.803      2.751
REMARK  Name = 11581936
REMARK  5 active torsions:
REMARK  status: ('A' for Active; 'I' for Inactive)
REMARK    1  A    between atoms: C_1  and  C_9
REMARK    2  A    between atoms: C_4  and  O_19
REMARK    3  A    between atoms: C_10  and  C_14
REMARK    4  A    between atoms: O_19  and  C_20
REMARK    5  A    between atoms: C_20  and  C_22
REMARK                            x       y       z     vdW  Elec       q    Type
REMARK                         _______ _______ _______ _____ _____    ______ ____
ROOT
ATOM      1  C   UNL     1      34.043 -23.088 -16.296  0.00  0.00    +0.019 C 
ATOM      2  C   UNL     1      35.362 -22.639 -16.356  0.00  0.00    +0.005 C 
ATOM      3  C   UNL     1      33.237 -23.041 -17.433  0.00  0.00    +0.005 C 
ATOM      4  C   UNL     1      35.066 -22.099 -18.684  0.00  0.00    +0.139 C 
ATOM      5  C   UNL     1      35.875 -22.143 -17.555  0.00  0.00    +0.037 C 
ATOM      6  C   UNL     1      33.750 -22.545 -18.632  0.00  0.00    +0.037 C 
ENDROOT
BRANCH   1   9
ATOM      7  N   UNL     1      32.114 -23.986 -13.540  0.00  0.00    -0.208 N 
ATOM      8  N   UNL     1      32.238 -23.369 -14.727  0.00  0.00    -0.178 NA
ATOM      9  C   UNL     1      33.514 -23.599 -15.062  0.00  0.00    +0.100 C 
ATOM     10  C   UNL     1      34.195 -24.360 -14.089  0.00  0.00    +0.036 C 
ATOM     11  C   UNL     1      33.258 -24.595 -13.113  0.00  0.00    +0.086 C 
ATOM     12  C   UNL     1      30.849 -23.957 -12.847  0.00  0.00    +0.140 C 
BRANCH  10  14
ATOM     13  N   UNL     1      38.181 -25.764 -13.887  0.00  0.00    -0.242 NA
ATOM     14  C   UNL     1      35.544 -24.835 -14.020  0.00  0.00    +0.006 C 
ATOM     15  C   UNL     1      35.925 -25.970 -14.730  0.00  0.00    +0.021 C 
ATOM     16  C   UNL     1      36.485 -24.166 -13.243  0.00  0.00    +0.021 C 
ATOM     17  C   UNL     1      37.242 -26.389 -14.631  0.00  0.00    +0.099 C 
ATOM     18  C   UNL     1      37.777 -24.665 -13.210  0.00  0.00    +0.099 C 
ENDBRANCH  10  14
ENDBRANCH   1   9
BRANCH   4  19
ATOM     19  O   UNL     1      35.571 -21.612 -19.862  0.00  0.00    -0.468 OA
BRANCH  19  20
ATOM     20  C   UNL     1      36.433 -20.485 -19.771  0.00  0.00    +0.264 C 
BRANCH  20  22
ATOM     21  N   UNL     1      35.203 -19.886 -21.768  0.00  0.00    -0.406 NA
ATOM     22  C   UNL     1      36.015 -19.461 -20.773  0.00  0.00    +0.152 C 
ATOM     23  C   UNL     1      35.210 -17.639 -22.641  0.00  0.00    +0.026 C 
ATOM     24  C   UNL     1      34.804 -18.989 -22.690  0.00  0.00    +0.113 C 
ATOM     25  C   UNL     1      36.463 -18.162 -20.642  0.00  0.00    +0.031 C 
ATOM     26  C   UNL     1      36.051 -17.241 -21.594  0.00  0.00    +0.005 C 
ATOM     27  C   UNL     1      34.775 -16.732 -23.622  0.00  0.00    +0.002 C 
ATOM     28  C   UNL     1      33.967 -19.384 -23.731  0.00  0.00    +0.085 C 
ATOM     29  C   UNL     1      33.939 -17.153 -24.652  0.00  0.00    -0.004 C 
ATOM     30  C   UNL     1      33.535 -18.481 -24.707  0.00  0.00    -0.019 C 
ENDBRANCH  20  22
ENDBRANCH  19  20
ENDBRANCH   4  19
TORSDOF 5
ENDMDL
MODEL 7
REMARK VINA RESULT:     -11.5      2.734      4.541
REMARK  Name = 11581936
REMARK  5 active torsions:
REMARK  status: ('A' for Active; 'I' for Inactive)
REMARK    1  A    between atoms: C_1  and  C_9
REMARK    2  A    between atoms: C_4  and  O_19
REMARK    3  A    between atoms: C_10  and  C_14
REMARK    4  A    between atoms: O_19  and  C_20
REMARK    5  A    between atoms: C_20  and  C_22
REMARK                            x       y       z     vdW  Elec       q    Type
REMARK                         _______ _______ _______ _____ _____    ______ ____
ROOT
ATOM      1  C   UNL     1      36.619 -23.242 -14.935  0.00  0.00    +0.019 C 
ATOM      2  C   UNL     1      35.496 -23.204 -15.762  0.00  0.00    +0.005 C 
ATOM      3  C   UNL     1      37.759 -22.512 -15.273  0.00  0.00    +0.005 C 
ATOM      4  C   UNL     1      36.654 -21.712 -17.256  0.00  0.00    +0.139 C 
ATOM      5  C   UNL     1      35.515 -22.437 -16.927  0.00  0.00    +0.037 C 
ATOM      6  C   UNL     1      37.776 -21.743 -16.437  0.00  0.00    +0.037 C 
ENDROOT
BRANCH   1   9
ATOM      7  N   UNL     1      36.013 -24.676 -11.821  0.00  0.00    -0.208 N 
ATOM      8  N   UNL     1      35.739 -23.747 -12.752  0.00  0.00    -0.178 NA
ATOM      9  C   UNL     1      36.601 -24.032 -13.736  0.00  0.00    +0.100 C 
ATOM     10  C   UNL     1      37.419 -25.139 -13.428  0.00  0.00    +0.036 C 
ATOM     11  C   UNL     1      37.011 -25.535 -12.178  0.00  0.00    +0.086 C 
ATOM     12  C   UNL     1      35.270 -24.692 -10.585  0.00  0.00    +0.140 C 
BRANCH  10  14
ATOM     13  N   UNL     1      40.500 -27.060 -15.599  0.00  0.00    -0.242 NA
ATOM     14  C   UNL     1      38.462 -25.790 -14.162  0.00  0.00    +0.006 C 
ATOM     15  C   UNL     1      38.187 -26.933 -14.908  0.00  0.00    +0.021 C 
ATOM     16  C   UNL     1      39.759 -25.284 -14.137  0.00  0.00    +0.021 C 
ATOM     17  C   UNL     1      39.231 -27.524 -15.601  0.00  0.00    +0.099 C 
ATOM     18  C   UNL     1      40.732 -25.949 -14.864  0.00  0.00    +0.099 C 
ENDBRANCH  10  14
ENDBRANCH   1   9
BRANCH   4  19
ATOM     19  O   UNL     1      36.671 -20.957 -18.400  0.00  0.00    -0.468 OA
BRANCH  19  20
ATOM     20  C   UNL     1      35.691 -21.263 -19.384  0.00  0.00    +0.264 C 
BRANCH  20  22
ATOM     21  N   UNL     1      34.770 -20.319 -21.415  0.00  0.00    -0.406 NA
ATOM     22  C   UNL     1      35.645 -20.165 -20.394  0.00  0.00    +0.152 C 
ATOM     23  C   UNL     1      35.510 -18.195 -22.280  0.00  0.00    +0.026 C 
ATOM     24  C   UNL     1      34.701 -19.348 -22.346  0.00  0.00    +0.113 C 
ATOM     25  C   UNL     1      36.476 -19.073 -20.246  0.00  0.00    +0.031 C 
ATOM     26  C   UNL     1      36.403 -18.075 -21.207  0.00  0.00    +0.005 C 
ATOM     27  C   UNL     1      35.412 -17.203 -23.270  0.00  0.00    +0.002 C 
ATOM     28  C   UNL     1      33.814 -19.467 -23.412  0.00  0.00    +0.085 C 
ATOM     29  C   UNL     1      34.516 -17.346 -24.327  0.00  0.00    -0.004 C 
ATOM     30  C   UNL     1      33.717 -18.480 -24.397  0.00  0.00    -0.019 C 
ENDBRANCH  20  22
ENDBRANCH  19  20
ENDBRANCH   4  19
TORSDOF 5
ENDMDL
MODEL 8
REMARK VINA RESULT:     -11.4      6.871     13.907
REMARK  Name = 11581936
REMARK  5 active torsions:
REMARK  status: ('A' for Active; 'I' for Inactive)
REMARK    1  A    between atoms: C_1  and  C_9
REMARK    2  A    between atoms: C_4  and  O_19
REMARK    3  A    between atoms: C_10  and  C_14
REMARK    4  A    between atoms: O_19  and  C_20
REMARK    5  A    between atoms: C_20  and  C_22
REMARK                            x       y       z     vdW  Elec       q    Type
REMARK                         _______ _______ _______ _____ _____    ______ ____
ROOT
ATOM      1  C   UNL     1      33.346  -8.913 -22.909  0.00  0.00    +0.019 C 
ATOM      2  C   UNL     1      32.446  -9.979 -22.881  0.00  0.00    +0.005 C 
ATOM      3  C   UNL     1      34.516  -9.008 -23.662  0.00  0.00    +0.005 C 
ATOM      4  C   UNL     1      33.886 -11.225 -24.355  0.00  0.00    +0.139 C 
ATOM      5  C   UNL     1      32.718 -11.139 -23.607  0.00  0.00    +0.037 C 
ATOM      6  C   UNL     1      34.787 -10.167 -24.389  0.00  0.00    +0.037 C 
ENDROOT
BRANCH   1   9
ATOM      7  N   UNL     1      32.571  -6.507 -20.515  0.00  0.00    -0.208 N 
ATOM      8  N   UNL     1      32.763  -7.792 -20.860  0.00  0.00    -0.178 NA
ATOM      9  C   UNL     1      33.067  -7.719 -22.163  0.00  0.00    +0.100 C 
ATOM     10  C   UNL     1      33.067  -6.391 -22.640  0.00  0.00    +0.036 C 
ATOM     11  C   UNL     1      32.742  -5.628 -21.544  0.00  0.00    +0.086 C 
ATOM     12  C   UNL     1      32.219  -6.176 -19.156  0.00  0.00    +0.140 C 
BRANCH  10  14
ATOM     13  N   UNL     1      33.835  -4.771 -26.471  0.00  0.00    -0.242 NA
ATOM     14  C   UNL     1      33.327  -5.842 -23.936  0.00  0.00    +0.006 C 
ATOM     15  C   UNL     1      34.636  -5.668 -24.374  0.00  0.00    +0.021 C 
ATOM     16  C   UNL     1      32.272  -5.479 -24.769  0.00  0.00    +0.021 C 
ATOM     17  C   UNL     1      34.835  -5.134 -25.637  0.00  0.00    +0.099 C 
ATOM     18  C   UNL     1      32.576  -4.953 -26.014  0.00  0.00    +0.099 C 
ENDBRANCH  10  14
ENDBRANCH   1   9
BRANCH   4  19
ATOM     19  O   UNL     1      34.152 -12.365 -25.069  0.00  0.00    -0.468 OA
BRANCH  19  20
ATOM     20  C   UNL     1      33.184 -13.405 -24.999  0.00  0.00    +0.264 C 
BRANCH  20  22
ATOM     21  N   UNL     1      33.606 -15.782 -24.817  0.00  0.00    -0.406 NA
ATOM     22  C   UNL     1      33.757 -14.562 -24.250  0.00  0.00    +0.152 C 
ATOM     23  C   UNL     1      34.778 -16.726 -22.935  0.00  0.00    +0.026 C 
ATOM     24  C   UNL     1      34.110 -16.851 -24.170  0.00  0.00    +0.113 C 
ATOM     25  C   UNL     1      34.395 -14.343 -23.047  0.00  0.00    +0.031 C 
ATOM     26  C   UNL     1      34.912 -15.446 -22.383  0.00  0.00    +0.005 C 
ATOM     27  C   UNL     1      35.290 -17.864 -22.287  0.00  0.00    +0.002 C 
ATOM     28  C   UNL     1      33.977 -18.124 -24.718  0.00  0.00    +0.085 C 
ATOM     29  C   UNL     1      35.143 -19.125 -22.857  0.00  0.00    -0.004 C 
ATOM     30  C   UNL     1      34.486 -19.255 -24.074  0.00  0.00    -0.019 C 
ENDBRANCH  20  22
ENDBRANCH  19  20
ENDBRANCH   4  19
TORSDOF 5
ENDMDL
MODEL 9
REMARK VINA RESULT:     -10.7      7.756     15.663
REMARK  Name = 11581936
REMARK  5 active torsions:
REMARK  status: ('A' for Active; 'I' for Inactive)
REMARK    1  A    between atoms: C_1  and  C_9
REMARK    2  A    between atoms: C_4  and  O_19
REMARK    3  A    between atoms: C_10  and  C_14
REMARK    4  A    between atoms: O_19  and  C_20
REMARK    5  A    between atoms: C_20  and  C_22
REMARK                            x       y       z     vdW  Elec       q    Type
REMARK                         _______ _______ _______ _____ _____    ______ ____
ROOT
ATOM      1  C   UNL     1      32.950  -6.536 -23.610  0.00  0.00    +0.019 C 
ATOM      2  C   UNL     1      31.986  -7.543 -23.641  0.00  0.00    +0.005 C 
ATOM      3  C   UNL     1      34.304  -6.868 -23.565  0.00  0.00    +0.005 C 
ATOM      4  C   UNL     1      33.728  -9.205 -23.582  0.00  0.00    +0.139 C 
ATOM      5  C   UNL     1      32.377  -8.883 -23.627  0.00  0.00    +0.037 C 
ATOM      6  C   UNL     1      34.695  -8.207 -23.552  0.00  0.00    +0.037 C 
ENDROOT
BRANCH   1   9
ATOM      7  N   UNL     1      31.636  -3.374 -22.982  0.00  0.00    -0.208 N 
ATOM      8  N   UNL     1      31.809  -4.659 -22.627  0.00  0.00    -0.178 NA
ATOM      9  C   UNL     1      32.549  -5.158 -23.625  0.00  0.00    +0.100 C 
ATOM     10  C   UNL     1      32.843  -4.190 -24.609  0.00  0.00    +0.036 C 
ATOM     11  C   UNL     1      32.237  -3.043 -24.161  0.00  0.00    +0.086 C 
ATOM     12  C   UNL     1      30.870  -2.494 -22.134  0.00  0.00    +0.140 C 
BRANCH  10  14
ATOM     13  N   UNL     1      35.042  -4.410 -28.217  0.00  0.00    -0.242 NA
ATOM     14  C   UNL     1      33.587  -4.266 -25.830  0.00  0.00    +0.006 C 
ATOM     15  C   UNL     1      32.930  -4.220 -27.056  0.00  0.00    +0.021 C 
ATOM     16  C   UNL     1      34.974  -4.383 -25.801  0.00  0.00    +0.021 C 
ATOM     17  C   UNL     1      33.695  -4.296 -28.209  0.00  0.00    +0.099 C 
ATOM     18  C   UNL     1      35.648  -4.452 -27.009  0.00  0.00    +0.099 C 
ENDBRANCH  10  14
ENDBRANCH   1   9
BRANCH   4  19
ATOM     19  O   UNL     1      34.111 -10.521 -23.569  0.00  0.00    -0.468 OA
BRANCH  19  20
ATOM     20  C   UNL     1      33.256 -11.430 -22.887  0.00  0.00    +0.264 C 
BRANCH  20  22
ATOM     21  N   UNL     1      34.104 -13.646 -22.405  0.00  0.00    -0.406 NA
ATOM     22  C   UNL     1      33.561 -12.822 -23.331  0.00  0.00    +0.152 C 
ATOM     23  C   UNL     1      34.147 -15.384 -24.074  0.00  0.00    +0.026 C 
ATOM     24  C   UNL     1      34.393 -14.910 -22.769  0.00  0.00    +0.113 C 
ATOM     25  C   UNL     1      33.285 -13.196 -24.630  0.00  0.00    +0.031 C 
ATOM     26  C   UNL     1      33.584 -14.498 -25.002  0.00  0.00    +0.005 C 
ATOM     27  C   UNL     1      34.462 -16.709 -24.419  0.00  0.00    +0.002 C 
ATOM     28  C   UNL     1      34.952 -15.791 -21.846  0.00  0.00    +0.085 C 
ATOM     29  C   UNL     1      35.021 -17.569 -23.477  0.00  0.00    -0.004 C 
ATOM     30  C   UNL     1      35.266 -17.109 -22.190  0.00  0.00    -0.019 C 
ENDBRANCH  20  22
ENDBRANCH  19  20
ENDBRANCH   4  19
TORSDOF 5
ENDMDL
