MODEL 1
REMARK VINA RESULT:     -11.9      0.000      0.000
REMARK  Name = 71360
REMARK  8 active torsions:
REMARK  status: ('A' for Active; 'I' for Inactive)
REMARK    1  A    between atoms: N_1  and  C_18
REMARK    2  A    between atoms: C_2  and  C_11
REMARK    3  A    between atoms: C_18  and  C_19
REMARK    4  A    between atoms: C_19  and  C_20
REMARK    5  A    between atoms: C_20  and  O_21
REMARK    6  A    between atoms: O_21  and  C_22
REMARK    7  A    between atoms: C_23  and  O_31
REMARK    8  A    between atoms: C_27  and  C_29
REMARK                            x       y       z     vdW  Elec       q    Type
REMARK                         _______ _______ _______ _____ _____    ______ ____
ROOT
ATOM      1  N   UNL     1      35.806 -19.675 -20.253  0.00  0.00    +0.387 N 
ATOM      2  C   UNL     1      35.375 -18.221 -22.765  0.00  0.00    +0.039 C 
ATOM      3  C   UNL     1      36.295 -17.693 -21.654  0.00  0.00    -0.017 C 
ATOM      4  C   UNL     1      34.317 -19.162 -22.163  0.00  0.00    -0.017 C 
ATOM      5  C   UNL     1      36.874 -18.840 -20.820  0.00  0.00    -0.077 C 
ATOM      6  C   UNL     1      34.967 -20.255 -21.312  0.00  0.00    -0.077 C 
ATOM      7  H   UNL     1      35.213 -19.079 -19.675  0.00  0.00    -0.080 HD
ENDROOT
BRANCH   2  11
ATOM      8  F   UNL     1      33.152 -11.891 -23.233  0.00  0.00    -0.204 F 
ATOM      9  O   UNL     1      33.938 -16.145 -25.336  0.00  0.00    -0.354 OA
ATOM     10  N   UNL     1      34.468 -17.342 -24.870  0.00  0.00    -0.081 NA
ATOM     11  C   UNL     1      34.765 -17.113 -23.594  0.00  0.00    +0.100 A 
ATOM     12  C   UNL     1      34.456 -15.808 -23.183  0.00  0.00    +0.054 A 
ATOM     13  C   UNL     1      33.931 -15.231 -24.327  0.00  0.00    +0.179 A 
ATOM     14  C   UNL     1      34.545 -15.040 -22.012  0.00  0.00    +0.007 C 
ATOM     15  C   UNL     1      33.477 -13.919 -24.406  0.00  0.00    +0.070 C 
ATOM     16  C   UNL     1      34.096 -13.712 -22.056  0.00  0.00    +0.030 C 
ATOM     17  C   UNL     1      33.572 -13.164 -23.231  0.00  0.00    +0.143 C 
ENDBRANCH   2  11
BRANCH   1  18
ATOM     18  C   UNL     1      36.372 -20.731 -19.414  0.00  0.00    -0.074 C 
BRANCH  18  19
ATOM     19  C   UNL     1      35.509 -21.985 -19.487  0.00  0.00    +0.025 C 
BRANCH  19  20
ATOM     20  C   UNL     1      34.442 -21.993 -18.401  0.00  0.00    +0.203 C 
BRANCH  20  21
ATOM     21  O   UNL     1      34.878 -22.821 -17.333  0.00  0.00    -0.472 OA
BRANCH  21  22
ATOM     22  C   UNL     1      33.934 -23.192 -16.411  0.00  0.00    +0.172 C 
ATOM     23  C   UNL     1      34.321 -23.620 -15.146  0.00  0.00    +0.172 C 
ATOM     24  C   UNL     1      32.589 -23.137 -16.759  0.00  0.00    +0.040 C 
ATOM     25  C   UNL     1      33.351 -23.995 -14.216  0.00  0.00    +0.043 C 
ATOM     26  C   UNL     1      31.618 -23.512 -15.829  0.00  0.00    +0.006 C 
ATOM     27  C   UNL     1      31.999 -23.942 -14.559  0.00  0.00    +0.038 C 
BRANCH  27  29
ATOM     28  O   UNL     1      31.081 -24.013 -12.387  0.00  0.00    -0.291 OA
ATOM     29  C   UNL     1      30.987 -24.332 -13.589  0.00  0.00    +0.174 C 
ATOM     30  C   UNL     1      29.778 -25.149 -14.029  0.00  0.00    +0.077 C 
ENDBRANCH  27  29
BRANCH  23  31
ATOM     31  O   UNL     1      35.638 -23.676 -14.799  0.00  0.00    -0.468 OA
ATOM     32  C   UNL     1      36.201 -24.971 -14.599  0.00  0.00    +0.253 C 
ENDBRANCH  23  31
ENDBRANCH  21  22
ENDBRANCH  20  21
ENDBRANCH  19  20
ENDBRANCH  18  19
ENDBRANCH   1  18
TORSDOF 8
ENDMDL
MODEL 2
REMARK VINA RESULT:     -11.8      1.361      2.282
REMARK  Name = 71360
REMARK  8 active torsions:
REMARK  status: ('A' for Active; 'I' for Inactive)
REMARK    1  A    between atoms: N_1  and  C_18
REMARK    2  A    between atoms: C_2  and  C_11
REMARK    3  A    between atoms: C_18  and  C_19
REMARK    4  A    between atoms: C_19  and  C_20
REMARK    5  A    between atoms: C_20  and  O_21
REMARK    6  A    between atoms: O_21  and  C_22
REMARK    7  A    between atoms: C_23  and  O_31
REMARK    8  A    between atoms: C_27  and  C_29
REMARK                            x       y       z     vdW  Elec       q    Type
REMARK                         _______ _______ _______ _____ _____    ______ ____
ROOT
ATOM      1  N   UNL     1      35.166 -19.686 -20.687  0.00  0.00    +0.387 N 
ATOM      2  C   UNL     1      35.230 -17.707 -22.853  0.00  0.00    +0.039 C 
ATOM      3  C   UNL     1      35.381 -17.317 -21.374  0.00  0.00    -0.017 C 
ATOM      4  C   UNL     1      34.457 -19.032 -22.967  0.00  0.00    -0.017 C 
ATOM      5  C   UNL     1      35.975 -18.466 -20.554  0.00  0.00    -0.077 C 
ATOM      6  C   UNL     1      35.085 -20.118 -22.090  0.00  0.00    -0.077 C 
ATOM      7  H   UNL     1      34.221 -19.473 -20.368  0.00  0.00    -0.080 HD
ENDROOT
BRANCH   2  11
ATOM      8  F   UNL     1      33.010 -11.380 -23.360  0.00  0.00    -0.204 F 
ATOM      9  O   UNL     1      33.799 -15.645 -25.438  0.00  0.00    -0.354 OA
ATOM     10  N   UNL     1      34.328 -16.839 -24.965  0.00  0.00    -0.081 NA
ATOM     11  C   UNL     1      34.623 -16.603 -23.689  0.00  0.00    +0.100 A 
ATOM     12  C   UNL     1      34.313 -15.296 -23.286  0.00  0.00    +0.054 A 
ATOM     13  C   UNL     1      33.790 -14.726 -24.434  0.00  0.00    +0.179 A 
ATOM     14  C   UNL     1      34.400 -14.522 -22.119  0.00  0.00    +0.007 C 
ATOM     15  C   UNL     1      33.337 -13.413 -24.521  0.00  0.00    +0.070 C 
ATOM     16  C   UNL     1      33.951 -13.194 -22.170  0.00  0.00    +0.030 C 
ATOM     17  C   UNL     1      33.429 -12.652 -23.350  0.00  0.00    +0.143 C 
ENDBRANCH   2  11
BRANCH   1  18
ATOM     18  C   UNL     1      35.714 -20.756 -19.854  0.00  0.00    -0.074 C 
BRANCH  18  19
ATOM     19  C   UNL     1      34.681 -21.861 -19.665  0.00  0.00    +0.025 C 
BRANCH  19  20
ATOM     20  C   UNL     1      33.417 -21.336 -18.998  0.00  0.00    +0.203 C 
BRANCH  20  21
ATOM     21  O   UNL     1      32.646 -22.439 -18.542  0.00  0.00    -0.472 OA
BRANCH  21  22
ATOM     22  C   UNL     1      32.794 -22.795 -17.227  0.00  0.00    +0.172 C 
ATOM     23  C   UNL     1      31.685 -22.860 -16.390  0.00  0.00    +0.172 C 
ATOM     24  C   UNL     1      34.065 -23.088 -16.742  0.00  0.00    +0.040 C 
ATOM     25  C   UNL     1      31.849 -23.224 -15.053  0.00  0.00    +0.043 C 
ATOM     26  C   UNL     1      34.228 -23.451 -15.405  0.00  0.00    +0.006 C 
ATOM     27  C   UNL     1      33.120 -23.519 -14.561  0.00  0.00    +0.038 C 
BRANCH  27  29
ATOM     28  O   UNL     1      32.348 -23.827 -12.353  0.00  0.00    -0.291 OA
ATOM     29  C   UNL     1      33.291 -23.899 -13.167  0.00  0.00    +0.174 C 
ATOM     30  C   UNL     1      34.641 -24.400 -12.667  0.00  0.00    +0.077 C 
ENDBRANCH  27  29
BRANCH  23  31
ATOM     31  O   UNL     1      30.438 -22.576 -16.859  0.00  0.00    -0.468 OA
ATOM     32  C   UNL     1      29.334 -22.980 -16.052  0.00  0.00    +0.253 C 
ENDBRANCH  23  31
ENDBRANCH  21  22
ENDBRANCH  20  21
ENDBRANCH  19  20
ENDBRANCH  18  19
ENDBRANCH   1  18
TORSDOF 8
ENDMDL
MODEL 3
REMARK VINA RESULT:     -11.6      3.870     11.338
REMARK  Name = 71360
REMARK  8 active torsions:
REMARK  status: ('A' for Active; 'I' for Inactive)
REMARK    1  A    between atoms: N_1  and  C_18
REMARK    2  A    between atoms: C_2  and  C_11
REMARK    3  A    between atoms: C_18  and  C_19
REMARK    4  A    between atoms: C_19  and  C_20
REMARK    5  A    between atoms: C_20  and  O_21
REMARK    6  A    between atoms: O_21  and  C_22
REMARK    7  A    between atoms: C_23  and  O_31
REMARK    8  A    between atoms: C_27  and  C_29
REMARK                            x       y       z     vdW  Elec       q    Type
REMARK                         _______ _______ _______ _____ _____    ______ ____
ROOT
ATOM      1  N   UNL     1      35.335 -17.128 -23.521  0.00  0.00    +0.387 N 
ATOM      2  C   UNL     1      34.862 -18.951 -21.273  0.00  0.00    +0.039 C 
ATOM      3  C   UNL     1      35.638 -17.634 -21.118  0.00  0.00    -0.017 C 
ATOM      4  C   UNL     1      34.949 -19.440 -22.728  0.00  0.00    -0.017 C 
ATOM      5  C   UNL     1      35.193 -16.601 -22.157  0.00  0.00    -0.077 C 
ATOM      6  C   UNL     1      34.529 -18.343 -23.708  0.00  0.00    -0.077 C 
ATOM      7  H   UNL     1      36.314 -17.375 -23.664  0.00  0.00    -0.080 HD
ENDROOT
BRANCH   2  11
ATOM      8  F   UNL     1      33.241 -23.751 -16.850  0.00  0.00    -0.204 F 
ATOM      9  O   UNL     1      36.646 -21.213 -19.108  0.00  0.00    -0.354 OA
ATOM     10  N   UNL     1      36.591 -20.199 -20.056  0.00  0.00    -0.081 NA
ATOM     11  C   UNL     1      35.294 -20.004 -20.276  0.00  0.00    +0.100 A 
ATOM     12  C   UNL     1      34.474 -20.850 -19.515  0.00  0.00    +0.054 A 
ATOM     13  C   UNL     1      35.380 -21.600 -18.786  0.00  0.00    +0.179 A 
ATOM     14  C   UNL     1      33.101 -21.082 -19.340  0.00  0.00    +0.007 C 
ATOM     15  C   UNL     1      35.027 -22.590 -17.876  0.00  0.00    +0.070 C 
ATOM     16  C   UNL     1      32.708 -22.073 -18.429  0.00  0.00    +0.030 C 
ATOM     17  C   UNL     1      33.655 -22.812 -17.712  0.00  0.00    +0.143 C 
ENDBRANCH   2  11
BRANCH   1  18
ATOM     18  C   UNL     1      34.960 -16.110 -24.504  0.00  0.00    -0.074 C 
BRANCH  18  19
ATOM     19  C   UNL     1      33.578 -15.550 -24.184  0.00  0.00    +0.025 C 
BRANCH  19  20
ATOM     20  C   UNL     1      33.457 -14.090 -24.598  0.00  0.00    +0.203 C 
BRANCH  20  21
ATOM     21  O   UNL     1      34.108 -13.281 -23.628  0.00  0.00    -0.472 OA
BRANCH  21  22
ATOM     22  C   UNL     1      33.544 -12.062 -23.360  0.00  0.00    +0.172 C 
ATOM     23  C   UNL     1      32.549 -11.947 -22.394  0.00  0.00    +0.172 C 
ATOM     24  C   UNL     1      33.976 -10.944 -24.066  0.00  0.00    +0.040 C 
ATOM     25  C   UNL     1      31.982 -10.700 -22.130  0.00  0.00    +0.043 C 
ATOM     26  C   UNL     1      33.409  -9.697 -23.802  0.00  0.00    +0.006 C 
ATOM     27  C   UNL     1      32.412  -9.575 -22.835  0.00  0.00    +0.038 C 
BRANCH  27  29
ATOM     28  O   UNL     1      31.688  -7.855 -21.392  0.00  0.00    -0.291 OA
ATOM     29  C   UNL     1      31.821  -8.275 -22.560  0.00  0.00    +0.174 C 
ATOM     30  C   UNL     1      31.348  -7.388 -23.706  0.00  0.00    +0.077 C 
ENDBRANCH  27  29
BRANCH  23  31
ATOM     31  O   UNL     1      32.121 -13.038 -21.699  0.00  0.00    -0.468 OA
ATOM     32  C   UNL     1      32.307 -13.019 -20.285  0.00  0.00    +0.253 C 
ENDBRANCH  23  31
ENDBRANCH  21  22
ENDBRANCH  20  21
ENDBRANCH  19  20
ENDBRANCH  18  19
ENDBRANCH   1  18
TORSDOF 8
ENDMDL
MODEL 4
REMARK VINA RESULT:     -11.4      3.892     11.609
REMARK  Name = 71360
REMARK  8 active torsions:
REMARK  status: ('A' for Active; 'I' for Inactive)
REMARK    1  A    between atoms: N_1  and  C_18
REMARK    2  A    between atoms: C_2  and  C_11
REMARK    3  A    between atoms: C_18  and  C_19
REMARK    4  A    between atoms: C_19  and  C_20
REMARK    5  A    between atoms: C_20  and  O_21
REMARK    6  A    between atoms: O_21  and  C_22
REMARK    7  A    between atoms: C_23  and  O_31
REMARK    8  A    between atoms: C_27  and  C_29
REMARK                            x       y       z     vdW  Elec       q    Type
REMARK                         _______ _______ _______ _____ _____    ______ ____
ROOT
ATOM      1  N   UNL     1      35.311 -17.090 -23.609  0.00  0.00    +0.387 N 
ATOM      2  C   UNL     1      34.870 -18.884 -21.330  0.00  0.00    +0.039 C 
ATOM      3  C   UNL     1      35.667 -17.576 -21.208  0.00  0.00    -0.017 C 
ATOM      4  C   UNL     1      34.915 -19.389 -22.782  0.00  0.00    -0.017 C 
ATOM      5  C   UNL     1      35.211 -16.548 -22.247  0.00  0.00    -0.077 C 
ATOM      6  C   UNL     1      34.484 -18.296 -23.763  0.00  0.00    -0.077 C 
ATOM      7  H   UNL     1      36.283 -17.352 -23.773  0.00  0.00    -0.080 HD
ENDROOT
BRANCH   2  11
ATOM      8  F   UNL     1      33.300 -23.710 -16.918  0.00  0.00    -0.204 F 
ATOM      9  O   UNL     1      36.678 -21.125 -19.163  0.00  0.00    -0.354 OA
ATOM     10  N   UNL     1      36.612 -20.110 -20.110  0.00  0.00    -0.081 NA
ATOM     11  C   UNL     1      35.313 -19.932 -20.334  0.00  0.00    +0.100 A 
ATOM     12  C   UNL     1      34.502 -20.789 -19.576  0.00  0.00    +0.054 A 
ATOM     13  C   UNL     1      35.417 -21.528 -18.846  0.00  0.00    +0.179 A 
ATOM     14  C   UNL     1      33.132 -21.040 -19.405  0.00  0.00    +0.007 C 
ATOM     15  C   UNL     1      35.073 -22.525 -17.938  0.00  0.00    +0.070 C 
ATOM     16  C   UNL     1      32.750 -22.038 -18.497  0.00  0.00    +0.030 C 
ATOM     17  C   UNL     1      33.704 -22.765 -17.777  0.00  0.00    +0.143 C 
ENDBRANCH   2  11
BRANCH   1  18
ATOM     18  C   UNL     1      34.925 -16.077 -24.592  0.00  0.00    -0.074 C 
BRANCH  18  19
ATOM     19  C   UNL     1      33.519 -15.565 -24.300  0.00  0.00    +0.025 C 
BRANCH  19  20
ATOM     20  C   UNL     1      33.384 -14.085 -24.630  0.00  0.00    +0.203 C 
BRANCH  20  21
ATOM     21  O   UNL     1      34.015 -13.326 -23.608  0.00  0.00    -0.472 OA
BRANCH  21  22
ATOM     22  C   UNL     1      33.454 -12.113 -23.303  0.00  0.00    +0.172 C 
ATOM     23  C   UNL     1      33.781 -10.984 -24.047  0.00  0.00    +0.172 C 
ATOM     24  C   UNL     1      32.560 -12.026 -22.242  0.00  0.00    +0.040 C 
ATOM     25  C   UNL     1      33.204  -9.755 -23.727  0.00  0.00    +0.043 C 
ATOM     26  C   UNL     1      31.983 -10.797 -21.922  0.00  0.00    +0.006 C 
ATOM     27  C   UNL     1      32.306  -9.661 -22.664  0.00  0.00    +0.038 C 
BRANCH  27  29
ATOM     28  O   UNL     1      30.977  -7.771 -23.141  0.00  0.00    -0.291 OA
ATOM     29  C   UNL     1      31.704  -8.379 -22.330  0.00  0.00    +0.174 C 
ATOM     30  C   UNL     1      31.952  -7.747 -20.966  0.00  0.00    +0.077 C 
ENDBRANCH  27  29
BRANCH  23  31
ATOM     31  O   UNL     1      34.656 -11.062 -25.088  0.00  0.00    -0.468 OA
ATOM     32  C   UNL     1      35.446  -9.906 -25.359  0.00  0.00    +0.253 C 
ENDBRANCH  23  31
ENDBRANCH  21  22
ENDBRANCH  20  21
ENDBRANCH  19  20
ENDBRANCH  18  19
ENDBRANCH   1  18
TORSDOF 8
ENDMDL
MODEL 5
REMARK VINA RESULT:     -11.3      1.470      2.618
REMARK  Name = 71360
REMARK  8 active torsions:
REMARK  status: ('A' for Active; 'I' for Inactive)
REMARK    1  A    between atoms: N_1  and  C_18
REMARK    2  A    between atoms: C_2  and  C_11
REMARK    3  A    between atoms: C_18  and  C_19
REMARK    4  A    between atoms: C_19  and  C_20
REMARK    5  A    between atoms: C_20  and  O_21
REMARK    6  A    between atoms: O_21  and  C_22
REMARK    7  A    between atoms: C_23  and  O_31
REMARK    8  A    between atoms: C_27  and  C_29
REMARK                            x       y       z     vdW  Elec       q    Type
REMARK                         _______ _______ _______ _____ _____    ______ ____
ROOT
ATOM      1  N   UNL     1      35.860 -19.895 -20.275  0.00  0.00    +0.387 N 
ATOM      2  C   UNL     1      35.379 -18.383 -22.742  0.00  0.00    +0.039 C 
ATOM      3  C   UNL     1      36.339 -17.892 -21.647  0.00  0.00    -0.017 C 
ATOM      4  C   UNL     1      34.326 -19.321 -22.130  0.00  0.00    -0.017 C 
ATOM      5  C   UNL     1      36.924 -19.064 -20.854  0.00  0.00    -0.077 C 
ATOM      6  C   UNL     1      34.983 -20.441 -21.321  0.00  0.00    -0.077 C 
ATOM      7  H   UNL     1      35.293 -19.303 -19.667  0.00  0.00    -0.080 HD
ENDROOT
BRANCH   2  11
ATOM      8  F   UNL     1      33.218 -12.020 -23.008  0.00  0.00    -0.204 F 
ATOM      9  O   UNL     1      33.906 -16.231 -25.229  0.00  0.00    -0.354 OA
ATOM     10  N   UNL     1      34.434 -17.444 -24.804  0.00  0.00    -0.081 NA
ATOM     11  C   UNL     1      34.763 -17.248 -23.530  0.00  0.00    +0.100 A 
ATOM     12  C   UNL     1      34.479 -15.950 -23.082  0.00  0.00    +0.054 A 
ATOM     13  C   UNL     1      33.933 -15.341 -24.198  0.00  0.00    +0.179 A 
ATOM     14  C   UNL     1      34.604 -15.212 -21.895  0.00  0.00    +0.007 C 
ATOM     15  C   UNL     1      33.492 -14.022 -24.235  0.00  0.00    +0.070 C 
ATOM     16  C   UNL     1      34.168 -13.878 -21.896  0.00  0.00    +0.030 C 
ATOM     17  C   UNL     1      33.623 -13.297 -23.046  0.00  0.00    +0.143 C 
ENDBRANCH   2  11
BRANCH   1  18
ATOM     18  C   UNL     1      36.435 -20.977 -19.474  0.00  0.00    -0.074 C 
BRANCH  18  19
ATOM     19  C   UNL     1      35.334 -21.736 -18.743  0.00  0.00    +0.025 C 
BRANCH  19  20
ATOM     20  C   UNL     1      35.705 -22.000 -17.291  0.00  0.00    +0.203 C 
BRANCH  20  21
ATOM     21  O   UNL     1      34.960 -23.115 -16.820  0.00  0.00    -0.472 OA
BRANCH  21  22
ATOM     22  C   UNL     1      35.152 -23.480 -15.513  0.00  0.00    +0.172 C 
ATOM     23  C   UNL     1      34.059 -23.712 -14.685  0.00  0.00    +0.172 C 
ATOM     24  C   UNL     1      36.448 -23.613 -15.029  0.00  0.00    +0.040 C 
ATOM     25  C   UNL     1      34.266 -24.083 -13.356  0.00  0.00    +0.043 C 
ATOM     26  C   UNL     1      36.655 -23.983 -13.700  0.00  0.00    +0.006 C 
ATOM     27  C   UNL     1      35.565 -24.218 -12.864  0.00  0.00    +0.038 C 
BRANCH  27  29
ATOM     28  O   UNL     1      34.857 -25.071 -10.781  0.00  0.00    -0.291 OA
ATOM     29  C   UNL     1      35.781 -24.605 -11.478  0.00  0.00    +0.174 C 
ATOM     30  C   UNL     1      37.158 -24.449 -10.843  0.00  0.00    +0.077 C 
ENDBRANCH  27  29
BRANCH  23  31
ATOM     31  O   UNL     1      32.786 -23.584 -15.154  0.00  0.00    -0.468 OA
ATOM     32  C   UNL     1      31.732 -23.997 -14.287  0.00  0.00    +0.253 C 
ENDBRANCH  23  31
ENDBRANCH  21  22
ENDBRANCH  20  21
ENDBRANCH  19  20
ENDBRANCH  18  19
ENDBRANCH   1  18
TORSDOF 8
ENDMDL
MODEL 6
REMARK VINA RESULT:     -11.1      3.111      5.792
REMARK  Name = 71360
REMARK  8 active torsions:
REMARK  status: ('A' for Active; 'I' for Inactive)
REMARK    1  A    between atoms: N_1  and  C_18
REMARK    2  A    between atoms: C_2  and  C_11
REMARK    3  A    between atoms: C_18  and  C_19
REMARK    4  A    between atoms: C_19  and  C_20
REMARK    5  A    between atoms: C_20  and  O_21
REMARK    6  A    between atoms: O_21  and  C_22
REMARK    7  A    between atoms: C_23  and  O_31
REMARK    8  A    between atoms: C_27  and  C_29
REMARK                            x       y       z     vdW  Elec       q    Type
REMARK                         _______ _______ _______ _____ _____    ______ ____
ROOT
ATOM      1  N   UNL     1      34.195 -15.930 -23.356  0.00  0.00    +0.387 N 
ATOM      2  C   UNL     1      33.712 -13.066 -22.946  0.00  0.00    +0.039 C 
ATOM      3  C   UNL     1      33.846 -14.055 -21.778  0.00  0.00    -0.017 C 
ATOM      4  C   UNL     1      33.246 -13.809 -24.209  0.00  0.00    -0.017 C 
ATOM      5  C   UNL     1      34.719 -15.253 -22.162  0.00  0.00    -0.077 C 
ATOM      6  C   UNL     1      34.141 -15.015 -24.505  0.00  0.00    -0.077 C 
ATOM      7  H   UNL     1      33.243 -16.236 -23.153  0.00  0.00    -0.080 HD
ENDROOT
BRANCH   2  11
ATOM      8  F   UNL     1      32.505  -6.461 -23.322  0.00  0.00    -0.204 F 
ATOM      9  O   UNL     1      31.160 -10.810 -21.770  0.00  0.00    -0.354 OA
ATOM     10  N   UNL     1      31.724 -12.073 -21.902  0.00  0.00    -0.081 NA
ATOM     11  C   UNL     1      32.835 -11.881 -22.609  0.00  0.00    +0.100 A 
ATOM     12  C   UNL     1      33.038 -10.538 -22.960  0.00  0.00    +0.054 A 
ATOM     13  C   UNL     1      31.947  -9.895 -22.402  0.00  0.00    +0.179 A 
ATOM     14  C   UNL     1      33.987  -9.782 -23.664  0.00  0.00    +0.007 C 
ATOM     15  C   UNL     1      31.712  -8.527 -22.491  0.00  0.00    +0.070 C 
ATOM     16  C   UNL     1      33.783  -8.399 -23.773  0.00  0.00    +0.030 C 
ATOM     17  C   UNL     1      32.666  -7.785 -23.196  0.00  0.00    +0.143 C 
ENDBRANCH   2  11
BRANCH   1  18
ATOM     18  C   UNL     1      35.007 -17.105 -23.677  0.00  0.00    -0.074 C 
BRANCH  18  19
ATOM     19  C   UNL     1      34.119 -18.243 -24.166  0.00  0.00    +0.025 C 
BRANCH  19  20
ATOM     20  C   UNL     1      34.221 -19.462 -23.258  0.00  0.00    +0.203 C 
BRANCH  20  21
ATOM     21  O   UNL     1      34.734 -19.054 -21.998  0.00  0.00    -0.472 OA
BRANCH  21  22
ATOM     22  C   UNL     1      34.551 -19.915 -20.947  0.00  0.00    +0.172 C 
ATOM     23  C   UNL     1      35.647 -20.421 -20.257  0.00  0.00    +0.172 C 
ATOM     24  C   UNL     1      33.258 -20.275 -20.583  0.00  0.00    +0.040 C 
ATOM     25  C   UNL     1      35.448 -21.297 -19.190  0.00  0.00    +0.043 C 
ATOM     26  C   UNL     1      33.058 -21.151 -19.516  0.00  0.00    +0.006 C 
ATOM     27  C   UNL     1      34.153 -21.662 -18.820  0.00  0.00    +0.038 C 
BRANCH  27  29
ATOM     28  O   UNL     1      34.905 -23.118 -17.122  0.00  0.00    -0.291 OA
ATOM     29  C   UNL     1      33.945 -22.575 -17.706  0.00  0.00    +0.174 C 
ATOM     30  C   UNL     1      32.533 -22.890 -17.225  0.00  0.00    +0.077 C 
ENDBRANCH  27  29
BRANCH  23  31
ATOM     31  O   UNL     1      36.916 -20.071 -20.609  0.00  0.00    -0.468 OA
ATOM     32  C   UNL     1      37.362 -18.774 -20.221  0.00  0.00    +0.253 C 
ENDBRANCH  23  31
ENDBRANCH  21  22
ENDBRANCH  20  21
ENDBRANCH  19  20
ENDBRANCH  18  19
ENDBRANCH   1  18
TORSDOF 8
ENDMDL
MODEL 7
REMARK VINA RESULT:     -11.1      3.701     11.331
REMARK  Name = 71360
REMARK  8 active torsions:
REMARK  status: ('A' for Active; 'I' for Inactive)
REMARK    1  A    between atoms: N_1  and  C_18
REMARK    2  A    between atoms: C_2  and  C_11
REMARK    3  A    between atoms: C_18  and  C_19
REMARK    4  A    between atoms: C_19  and  C_20
REMARK    5  A    between atoms: C_20  and  O_21
REMARK    6  A    between atoms: O_21  and  C_22
REMARK    7  A    between atoms: C_23  and  O_31
REMARK    8  A    between atoms: C_27  and  C_29
REMARK                            x       y       z     vdW  Elec       q    Type
REMARK                         _______ _______ _______ _____ _____    ______ ____
ROOT
ATOM      1  N   UNL     1      35.602 -18.612 -21.451  0.00  0.00    +0.387 N 
ATOM      2  C   UNL     1      35.443 -21.084 -19.879  0.00  0.00    +0.039 C 
ATOM      3  C   UNL     1      34.199 -20.395 -20.462  0.00  0.00    -0.017 C 
ATOM      4  C   UNL     1      36.568 -20.053 -19.686  0.00  0.00    -0.017 C 
ATOM      5  C   UNL     1      34.545 -19.596 -21.721  0.00  0.00    -0.077 C 
ATOM      6  C   UNL     1      36.828 -19.268 -20.973  0.00  0.00    -0.077 C 
ATOM      7  H   UNL     1      35.271 -17.989 -20.715  0.00  0.00    -0.080 HD
ENDROOT
BRANCH   2  11
ATOM      8  F   UNL     1      37.336 -23.180 -13.776  0.00  0.00    -0.204 F 
ATOM      9  O   UNL     1      34.017 -23.102 -17.257  0.00  0.00    -0.354 OA
ATOM     10  N   UNL     1      33.978 -22.498 -18.507  0.00  0.00    -0.081 NA
ATOM     11  C   UNL     1      35.143 -21.864 -18.619  0.00  0.00    +0.100 A 
ATOM     12  C   UNL     1      35.962 -22.016 -17.491  0.00  0.00    +0.054 A 
ATOM     13  C   UNL     1      35.202 -22.813 -16.652  0.00  0.00    +0.179 A 
ATOM     14  C   UNL     1      37.231 -21.596 -17.066  0.00  0.00    +0.007 C 
ATOM     15  C   UNL     1      35.610 -23.236 -15.391  0.00  0.00    +0.070 C 
ATOM     16  C   UNL     1      37.675 -22.005 -15.800  0.00  0.00    +0.030 C 
ATOM     17  C   UNL     1      36.877 -22.810 -14.979  0.00  0.00    +0.143 C 
ENDBRANCH   2  11
BRANCH   1  18
ATOM     18  C   UNL     1      35.881 -17.819 -22.649  0.00  0.00    -0.074 C 
BRANCH  18  19
ATOM     19  C   UNL     1      34.605 -17.616 -23.458  0.00  0.00    +0.025 C 
BRANCH  19  20
ATOM     20  C   UNL     1      34.740 -16.455 -24.434  0.00  0.00    +0.203 C 
BRANCH  20  21
ATOM     21  O   UNL     1      33.503 -15.758 -24.493  0.00  0.00    -0.472 OA
BRANCH  21  22
ATOM     22  C   UNL     1      33.558 -14.392 -24.389  0.00  0.00    +0.172 C 
ATOM     23  C   UNL     1      33.715 -13.791 -23.145  0.00  0.00    +0.172 C 
ATOM     24  C   UNL     1      33.452 -13.620 -25.540  0.00  0.00    +0.040 C 
ATOM     25  C   UNL     1      33.769 -12.400 -23.051  0.00  0.00    +0.043 C 
ATOM     26  C   UNL     1      33.505 -12.229 -25.447  0.00  0.00    +0.006 C 
ATOM     27  C   UNL     1      33.663 -11.619 -24.203  0.00  0.00    +0.038 C 
BRANCH  27  29
ATOM     28  O   UNL     1      32.724  -9.500 -23.761  0.00  0.00    -0.291 OA
ATOM     29  C   UNL     1      33.720 -10.169 -24.106  0.00  0.00    +0.174 C 
ATOM     30  C   UNL     1      35.013  -9.427 -24.427  0.00  0.00    +0.077 C 
ENDBRANCH  27  29
BRANCH  23  31
ATOM     31  O   UNL     1      33.820 -14.542 -22.013  0.00  0.00    -0.468 OA
ATOM     32  C   UNL     1      33.414 -13.933 -20.790  0.00  0.00    +0.253 C 
ENDBRANCH  23  31
ENDBRANCH  21  22
ENDBRANCH  20  21
ENDBRANCH  19  20
ENDBRANCH  18  19
ENDBRANCH   1  18
TORSDOF 8
ENDMDL
MODEL 8
REMARK VINA RESULT:     -11.1      7.595     14.550
REMARK  Name = 71360
REMARK  8 active torsions:
REMARK  status: ('A' for Active; 'I' for Inactive)
REMARK    1  A    between atoms: N_1  and  C_18
REMARK    2  A    between atoms: C_2  and  C_11
REMARK    3  A    between atoms: C_18  and  C_19
REMARK    4  A    between atoms: C_19  and  C_20
REMARK    5  A    between atoms: C_20  and  O_21
REMARK    6  A    between atoms: O_21  and  C_22
REMARK    7  A    between atoms: C_23  and  O_31
REMARK    8  A    between atoms: C_27  and  C_29
REMARK                            x       y       z     vdW  Elec       q    Type
REMARK                         _______ _______ _______ _____ _____    ______ ____
ROOT
ATOM      1  N   UNL     1      31.860 -10.262 -22.658  0.00  0.00    +0.387 N 
ATOM      2  C   UNL     1      33.450 -12.677 -23.153  0.00  0.00    +0.039 C 
ATOM      3  C   UNL     1      33.387 -11.511 -24.153  0.00  0.00    -0.017 C 
ATOM      4  C   UNL     1      32.182 -12.687 -22.283  0.00  0.00    -0.017 C 
ATOM      5  C   UNL     1      33.100 -10.185 -23.442  0.00  0.00    -0.077 C 
ATOM      6  C   UNL     1      31.939 -11.319 -21.640  0.00  0.00    -0.077 C 
ATOM      7  H   UNL     1      31.098 -10.495 -23.295  0.00  0.00    -0.080 HD
ENDROOT
BRANCH   2  11
ATOM      8  F   UNL     1      35.772 -18.979 -22.816  0.00  0.00    -0.204 F 
ATOM      9  O   UNL     1      33.727 -15.478 -25.403  0.00  0.00    -0.354 OA
ATOM     10  N   UNL     1      33.363 -14.172 -25.099  0.00  0.00    -0.081 NA
ATOM     11  C   UNL     1      33.708 -14.008 -23.824  0.00  0.00    +0.100 A 
ATOM     12  C   UNL     1      34.288 -15.153 -23.259  0.00  0.00    +0.054 A 
ATOM     13  C   UNL     1      34.279 -16.061 -24.303  0.00  0.00    +0.179 A 
ATOM     14  C   UNL     1      34.817 -15.544 -22.020  0.00  0.00    +0.007 C 
ATOM     15  C   UNL     1      34.763 -17.362 -24.215  0.00  0.00    +0.070 C 
ATOM     16  C   UNL     1      35.314 -16.850 -21.895  0.00  0.00    +0.030 C 
ATOM     17  C   UNL     1      35.287 -17.740 -22.974  0.00  0.00    +0.143 C 
ENDBRANCH   2  11
BRANCH   1  18
ATOM     18  C   UNL     1      31.570  -8.971 -22.032  0.00  0.00    -0.074 C 
BRANCH  18  19
ATOM     19  C   UNL     1      32.304  -8.852 -20.702  0.00  0.00    +0.025 C 
BRANCH  19  20
ATOM     20  C   UNL     1      33.162  -7.596 -20.646  0.00  0.00    +0.203 C 
BRANCH  20  21
ATOM     21  O   UNL     1      32.478  -6.543 -21.312  0.00  0.00    -0.472 OA
BRANCH  21  22
ATOM     22  C   UNL     1      33.032  -6.087 -22.480  0.00  0.00    +0.172 C 
ATOM     23  C   UNL     1      32.357  -5.150 -23.255  0.00  0.00    +0.172 C 
ATOM     24  C   UNL     1      34.271  -6.576 -22.880  0.00  0.00    +0.040 C 
ATOM     25  C   UNL     1      32.930  -4.694 -24.443  0.00  0.00    +0.043 C 
ATOM     26  C   UNL     1      34.844  -6.120 -24.067  0.00  0.00    +0.006 C 
ATOM     27  C   UNL     1      34.174  -5.180 -24.849  0.00  0.00    +0.038 C 
BRANCH  27  29
ATOM     28  O   UNL     1      36.009  -4.629 -26.225  0.00  0.00    -0.291 OA
ATOM     29  C   UNL     1      34.772  -4.704 -26.087  0.00  0.00    +0.174 C 
ATOM     30  C   UNL     1      33.887  -4.284 -27.255  0.00  0.00    +0.077 C 
ENDBRANCH  27  29
BRANCH  23  31
ATOM     31  O   UNL     1      31.143  -4.667 -22.869  0.00  0.00    -0.468 OA
ATOM     32  C   UNL     1      31.114  -3.354 -22.313  0.00  0.00    +0.253 C 
ENDBRANCH  23  31
ENDBRANCH  21  22
ENDBRANCH  20  21
ENDBRANCH  19  20
ENDBRANCH  18  19
ENDBRANCH   1  18
TORSDOF 8
ENDMDL
MODEL 9
REMARK VINA RESULT:     -11.0      3.772      6.929
REMARK  Name = 71360
REMARK  8 active torsions:
REMARK  status: ('A' for Active; 'I' for Inactive)
REMARK    1  A    between atoms: N_1  and  C_18
REMARK    2  A    between atoms: C_2  and  C_11
REMARK    3  A    between atoms: C_18  and  C_19
REMARK    4  A    between atoms: C_19  and  C_20
REMARK    5  A    between atoms: C_20  and  O_21
REMARK    6  A    between atoms: O_21  and  C_22
REMARK    7  A    between atoms: C_23  and  O_31
REMARK    8  A    between atoms: C_27  and  C_29
REMARK                            x       y       z     vdW  Elec       q    Type
REMARK                         _______ _______ _______ _____ _____    ______ ____
ROOT
ATOM      1  N   UNL     1      33.040 -23.526 -15.150  0.00  0.00    +0.387 N 
ATOM      2  C   UNL     1      33.317 -22.697 -17.950  0.00  0.00    +0.039 C 
ATOM      3  C   UNL     1      34.517 -22.790 -16.994  0.00  0.00    -0.017 C 
ATOM      4  C   UNL     1      32.026 -22.472 -17.146  0.00  0.00    -0.017 C 
ATOM      5  C   UNL     1      34.271 -23.825 -15.893  0.00  0.00    -0.077 C 
ATOM      6  C   UNL     1      31.870 -23.519 -16.041  0.00  0.00    -0.077 C 
ATOM      7  H   UNL     1      33.133 -22.594 -14.746  0.00  0.00    -0.080 HD
ENDROOT
BRANCH   2  11
ATOM      8  F   UNL     1      37.425 -18.675 -21.439  0.00  0.00    -0.204 F 
ATOM      9  O   UNL     1      32.977 -20.321 -20.638  0.00  0.00    -0.354 OA
ATOM     10  N   UNL     1      32.464 -21.246 -19.738  0.00  0.00    -0.081 NA
ATOM     11  C   UNL     1      33.515 -21.665 -19.038  0.00  0.00    +0.100 A 
ATOM     12  C   UNL     1      34.716 -21.058 -19.434  0.00  0.00    +0.054 A 
ATOM     13  C   UNL     1      34.322 -20.210 -20.454  0.00  0.00    +0.179 A 
ATOM     14  C   UNL     1      36.071 -21.106 -19.072  0.00  0.00    +0.007 C 
ATOM     15  C   UNL     1      35.187 -19.385 -21.166  0.00  0.00    +0.070 C 
ATOM     16  C   UNL     1      36.971 -20.287 -19.769  0.00  0.00    +0.030 C 
ATOM     17  C   UNL     1      36.535 -19.443 -20.796  0.00  0.00    +0.143 C 
ENDBRANCH   2  11
BRANCH   1  18
ATOM     18  C   UNL     1      32.850 -24.491 -14.066  0.00  0.00    -0.074 C 
BRANCH  18  19
ATOM     19  C   UNL     1      33.272 -23.880 -12.735  0.00  0.00    +0.025 C 
BRANCH  19  20
ATOM     20  C   UNL     1      34.619 -24.418 -12.274  0.00  0.00    +0.203 C 
BRANCH  20  21
ATOM     21  O   UNL     1      35.651 -23.720 -12.958  0.00  0.00    -0.472 OA
BRANCH  21  22
ATOM     22  C   UNL     1      36.744 -24.452 -13.342  0.00  0.00    +0.172 C 
ATOM     23  C   UNL     1      37.698 -23.894 -14.187  0.00  0.00    +0.172 C 
ATOM     24  C   UNL     1      36.883 -25.756 -12.880  0.00  0.00    +0.040 C 
ATOM     25  C   UNL     1      38.806 -24.649 -14.572  0.00  0.00    +0.043 C 
ATOM     26  C   UNL     1      37.992 -26.512 -13.266  0.00  0.00    +0.006 C 
ATOM     27  C   UNL     1      38.952 -25.958 -14.112  0.00  0.00    +0.038 C 
BRANCH  27  29
ATOM     28  O   UNL     1      41.175 -26.710 -13.868  0.00  0.00    -0.291 OA
ATOM     29  C   UNL     1      40.108 -26.746 -14.513  0.00  0.00    +0.174 C 
ATOM     30  C   UNL     1      40.037 -27.642 -15.744  0.00  0.00    +0.077 C 
ENDBRANCH  27  29
BRANCH  23  31
ATOM     31  O   UNL     1      37.567 -22.617 -14.642  0.00  0.00    -0.468 OA
ATOM     32  C   UNL     1      37.908 -22.377 -16.006  0.00  0.00    +0.253 C 
ENDBRANCH  23  31
ENDBRANCH  21  22
ENDBRANCH  20  21
ENDBRANCH  19  20
ENDBRANCH  18  19
ENDBRANCH   1  18
TORSDOF 8
ENDMDL
