MODEL 1
REMARK VINA RESULT:     -11.2      0.000      0.000
REMARK  Name = 42628060
REMARK  6 active torsions:
REMARK  status: ('A' for Active; 'I' for Inactive)
REMARK    1  A    between atoms: N_2  and  C_6
REMARK    2  A    between atoms: C_3  and  C_19
REMARK    3  A    between atoms: C_9  and  N_13
REMARK    4  A    between atoms: C_19  and  N_20
REMARK    5  A    between atoms: C_21  and  N_27
REMARK    6  A    between atoms: C_28  and  C_32
REMARK                            x       y       z     vdW  Elec       q    Type
REMARK                         _______ _______ _______ _____ _____    ______ ____
ROOT
ATOM      1  O   UNL     1      32.661 -13.718 -22.787  0.00  0.00    -0.277 OA
ATOM      2  N   UNL     1      34.407 -14.789 -23.937  0.00  0.00    -0.284 N 
ATOM      3  C   UNL     1      33.452 -13.796 -23.721  0.00  0.00    +0.205 C 
ATOM      4  H   UNL     1      34.957 -14.694 -24.747  0.00  0.00    +0.155 HD
ENDROOT
BRANCH   2   6
ATOM      5  F   UNL     1      34.527 -17.357 -25.009  0.00  0.00    -0.203 F 
ATOM      6  C   UNL     1      34.676 -15.917 -23.127  0.00  0.00    +0.078 C 
ATOM      7  C   UNL     1      34.729 -17.189 -23.695  0.00  0.00    +0.155 C 
ATOM      8  C   UNL     1      34.886 -15.755 -21.757  0.00  0.00    +0.018 C 
ATOM      9  C   UNL     1      35.204 -18.138 -21.524  0.00  0.00    +0.061 C 
ATOM     10  C   UNL     1      34.994 -18.300 -22.893  0.00  0.00    +0.046 C 
ATOM     11  C   UNL     1      35.151 -16.866 -20.955  0.00  0.00    +0.017 C 
BRANCH   9  13
ATOM     12  O   UNL     1      37.771 -18.787 -20.360  0.00  0.00    -0.269 OA
ATOM     13  N   UNL     1      35.478 -19.292 -20.690  0.00  0.00    -0.233 N 
ATOM     14  C   UNL     1      36.794 -19.522 -20.212  0.00  0.00    +0.257 C 
ATOM     15  C   UNL     1      34.452 -20.171 -20.336  0.00  0.00    +0.072 C 
ATOM     16  C   UNL     1      37.000 -20.760 -19.397  0.00  0.00    +0.059 C 
ATOM     17  C   UNL     1      34.656 -21.253 -19.579  0.00  0.00    +0.017 C 
ATOM     18  C   UNL     1      35.971 -21.558 -19.102  0.00  0.00    +0.006 C 
ENDBRANCH   9  13
ENDBRANCH   2   6
BRANCH   3  19
ATOM     19  C   UNL     1      33.502 -12.769 -24.840  0.00  0.00    +0.010 C 
BRANCH  19  20
ATOM     20  N   UNL     1      34.272 -11.614 -24.403  0.00  0.00    +0.394 N 
ATOM     21  C   UNL     1      34.355  -9.434 -23.581  0.00  0.00    +0.049 C 
ATOM     22  C   UNL     1      35.175  -9.504 -24.872  0.00  0.00    -0.005 C 
ATOM     23  C   UNL     1      33.472 -10.678 -23.610  0.00  0.00    -0.057 C 
ATOM     24  C   UNL     1      34.774 -10.822 -25.525  0.00  0.00    -0.075 C 
ATOM     25  H   UNL     1      35.032 -12.016 -23.855  0.00  0.00    -0.079 HD
BRANCH  21  27
ATOM     26  O   UNL     1      35.269  -6.912 -22.558  0.00  0.00    -0.270 OA
ATOM     27  N   UNL     1      33.588  -8.224 -23.471  0.00  0.00    -0.304 N 
ATOM     28  C   UNL     1      34.115  -7.044 -22.961  0.00  0.00    +0.252 C 
ATOM     29  H   UNL     1      32.649  -8.231 -23.769  0.00  0.00    +0.150 HD
BRANCH  28  32
ATOM     30 CL   UNL     1      31.192  -2.525 -24.236  0.00  0.00    -0.075 Cl
ATOM     31  S   UNL     1      33.022  -4.863 -24.250  0.00  0.00    -0.071 S 
ATOM     32  C   UNL     1      33.185  -5.888 -22.889  0.00  0.00    +0.084 C 
ATOM     33  C   UNL     1      32.385  -5.487 -21.841  0.00  0.00    +0.012 C 
ATOM     34  C   UNL     1      31.629  -4.323 -22.161  0.00  0.00    +0.019 C 
ATOM     35  C   UNL     1      31.879  -3.878 -23.440  0.00  0.00    +0.087 C 
ENDBRANCH  28  32
ENDBRANCH  21  27
ENDBRANCH  19  20
ENDBRANCH   3  19
TORSDOF 6
ENDMDL
MODEL 2
REMARK VINA RESULT:     -11.0      5.098      8.538
REMARK  Name = 42628060
REMARK  6 active torsions:
REMARK  status: ('A' for Active; 'I' for Inactive)
REMARK    1  A    between atoms: N_2  and  C_6
REMARK    2  A    between atoms: C_3  and  C_19
REMARK    3  A    between atoms: C_9  and  N_13
REMARK    4  A    between atoms: C_19  and  N_20
REMARK    5  A    between atoms: C_21  and  N_27
REMARK    6  A    between atoms: C_28  and  C_32
REMARK                            x       y       z     vdW  Elec       q    Type
REMARK                         _______ _______ _______ _____ _____    ______ ____
ROOT
ATOM      1  O   UNL     1      36.550 -20.519 -19.431  0.00  0.00    -0.277 OA
ATOM      2  N   UNL     1      34.640 -21.625 -18.629  0.00  0.00    -0.284 N 
ATOM      3  C   UNL     1      35.363 -20.820 -19.507  0.00  0.00    +0.205 C 
ATOM      4  H   UNL     1      33.688 -21.756 -18.843  0.00  0.00    +0.155 HD
ENDROOT
BRANCH   2   6
ATOM      5  F   UNL     1      32.994 -23.289 -17.116  0.00  0.00    -0.203 F 
ATOM      6  C   UNL     1      35.114 -22.276 -17.466  0.00  0.00    +0.078 C 
ATOM      7  C   UNL     1      34.265 -23.102 -16.730  0.00  0.00    +0.155 C 
ATOM      8  C   UNL     1      36.434 -22.088 -17.054  0.00  0.00    +0.018 C 
ATOM      9  C   UNL     1      36.054 -23.554 -15.172  0.00  0.00    +0.061 C 
ATOM     10  C   UNL     1      34.735 -23.742 -15.583  0.00  0.00    +0.046 C 
ATOM     11  C   UNL     1      36.904 -22.728 -15.906  0.00  0.00    +0.017 C 
BRANCH   9  13
ATOM     12  O   UNL     1      36.686 -26.369 -14.966  0.00  0.00    -0.269 OA
ATOM     13  N   UNL     1      36.543 -24.218 -13.979  0.00  0.00    -0.233 N 
ATOM     14  C   UNL     1      36.778 -25.617 -13.995  0.00  0.00    +0.257 C 
ATOM     15  C   UNL     1      36.806 -23.487 -12.818  0.00  0.00    +0.072 C 
ATOM     16  C   UNL     1      37.238 -26.230 -12.709  0.00  0.00    +0.059 C 
ATOM     17  C   UNL     1      37.248 -24.055 -11.691  0.00  0.00    +0.017 C 
ATOM     18  C   UNL     1      37.463 -25.469 -11.636  0.00  0.00    +0.006 C 
ENDBRANCH   9  13
ENDBRANCH   2   6
BRANCH   3  19
ATOM     19  C   UNL     1      34.463 -20.323 -20.626  0.00  0.00    +0.010 C 
BRANCH  19  20
ATOM     20  N   UNL     1      35.187 -19.354 -21.434  0.00  0.00    +0.394 N 
ATOM     21  C   UNL     1      35.460 -17.173 -22.212  0.00  0.00    +0.049 C 
ATOM     22  C   UNL     1      35.357 -18.114 -23.415  0.00  0.00    -0.005 C 
ATOM     23  C   UNL     1      34.900 -17.973 -21.040  0.00  0.00    -0.057 C 
ATOM     24  C   UNL     1      34.821 -19.423 -22.849  0.00  0.00    -0.075 C 
ATOM     25  H   UNL     1      36.167 -19.591 -21.287  0.00  0.00    -0.079 HD
BRANCH  21  27
ATOM     26  O   UNL     1      34.829 -15.221 -20.203  0.00  0.00    -0.270 OA
ATOM     27  N   UNL     1      34.761 -15.934 -22.410  0.00  0.00    -0.304 N 
ATOM     28  C   UNL     1      34.498 -15.046 -21.374  0.00  0.00    +0.252 C 
ATOM     29  H   UNL     1      34.454 -15.704 -23.317  0.00  0.00    +0.150 HD
BRANCH  28  32
ATOM     30 CL   UNL     1      30.868 -10.872 -21.347  0.00  0.00    -0.075 Cl
ATOM     31  S   UNL     1      32.453 -13.306 -20.733  0.00  0.00    -0.071 S 
ATOM     32  C   UNL     1      33.741 -13.820 -21.738  0.00  0.00    +0.084 C 
ATOM     33  C   UNL     1      33.921 -12.983 -22.817  0.00  0.00    +0.012 C 
ATOM     34  C   UNL     1      32.989 -11.905 -22.818  0.00  0.00    +0.019 C 
ATOM     35  C   UNL     1      32.133 -11.959 -21.740  0.00  0.00    +0.087 C 
ENDBRANCH  28  32
ENDBRANCH  21  27
ENDBRANCH  19  20
ENDBRANCH   3  19
TORSDOF 6
ENDMDL
MODEL 3
REMARK VINA RESULT:     -10.9      5.761     12.112
REMARK  Name = 42628060
REMARK  6 active torsions:
REMARK  status: ('A' for Active; 'I' for Inactive)
REMARK    1  A    between atoms: N_2  and  C_6
REMARK    2  A    between atoms: C_3  and  C_19
REMARK    3  A    between atoms: C_9  and  N_13
REMARK    4  A    between atoms: C_19  and  N_20
REMARK    5  A    between atoms: C_21  and  N_27
REMARK    6  A    between atoms: C_28  and  C_32
REMARK                            x       y       z     vdW  Elec       q    Type
REMARK                         _______ _______ _______ _____ _____    ______ ____
ROOT
ATOM      1  O   UNL     1      35.311 -15.952 -25.116  0.00  0.00    -0.277 OA
ATOM      2  N   UNL     1      33.506 -15.449 -23.701  0.00  0.00    -0.284 N 
ATOM      3  C   UNL     1      34.376 -16.287 -24.396  0.00  0.00    +0.205 C 
ATOM      4  H   UNL     1      32.805 -15.893 -23.171  0.00  0.00    +0.155 HD
ENDROOT
BRANCH   2   6
ATOM      5  F   UNL     1      33.543 -14.046 -21.294  0.00  0.00    -0.203 F 
ATOM      6  C   UNL     1      33.512 -14.035 -23.669  0.00  0.00    +0.078 C 
ATOM      7  C   UNL     1      33.530 -13.362 -22.448  0.00  0.00    +0.155 C 
ATOM      8  C   UNL     1      33.498 -13.312 -24.863  0.00  0.00    +0.018 C 
ATOM      9  C   UNL     1      33.521 -11.245 -23.612  0.00  0.00    +0.061 C 
ATOM     10  C   UNL     1      33.535 -11.967 -22.419  0.00  0.00    +0.046 C 
ATOM     11  C   UNL     1      33.502 -11.917 -24.834  0.00  0.00    +0.017 C 
BRANCH   9  13
ATOM     12  O   UNL     1      31.354  -9.587 -22.654  0.00  0.00    -0.269 OA
ATOM     13  N   UNL     1      33.525  -9.796 -23.583  0.00  0.00    -0.233 N 
ATOM     14  C   UNL     1      32.380  -9.095 -23.125  0.00  0.00    +0.257 C 
ATOM     15  C   UNL     1      34.657  -9.082 -23.983  0.00  0.00    +0.072 C 
ATOM     16  C   UNL     1      32.451  -7.601 -23.171  0.00  0.00    +0.059 C 
ATOM     17  C   UNL     1      34.707  -7.746 -23.984  0.00  0.00    +0.017 C 
ATOM     18  C   UNL     1      33.566  -6.986 -23.571  0.00  0.00    +0.006 C 
ENDBRANCH   9  13
ENDBRANCH   2   6
BRANCH   3  19
ATOM     19  C   UNL     1      34.012 -17.741 -24.151  0.00  0.00    +0.010 C 
BRANCH  19  20
ATOM     20  N   UNL     1      34.943 -18.319 -23.194  0.00  0.00    +0.394 N 
ATOM     21  C   UNL     1      35.378 -19.768 -21.420  0.00  0.00    +0.049 C 
ATOM     22  C   UNL     1      35.833 -18.360 -21.027  0.00  0.00    -0.005 C 
ATOM     23  C   UNL     1      34.437 -19.559 -22.602  0.00  0.00    -0.057 C 
ATOM     24  C   UNL     1      35.193 -17.435 -22.055  0.00  0.00    -0.075 C 
ATOM     25  H   UNL     1      35.790 -18.480 -23.738  0.00  0.00    -0.079 HD
BRANCH  21  27
ATOM     26  O   UNL     1      36.662 -21.487 -19.512  0.00  0.00    -0.270 OA
ATOM     27  N   UNL     1      34.746 -20.473 -20.338  0.00  0.00    -0.304 N 
ATOM     28  C   UNL     1      35.451 -21.287 -19.460  0.00  0.00    +0.252 C 
ATOM     29  H   UNL     1      33.774 -20.375 -20.215  0.00  0.00    +0.150 HD
BRANCH  28  32
ATOM     30 CL   UNL     1      33.922 -23.827 -14.790  0.00  0.00    -0.075 Cl
ATOM     31  S   UNL     1      35.416 -22.464 -16.964  0.00  0.00    -0.071 S 
ATOM     32  C   UNL     1      34.647 -21.968 -18.411  0.00  0.00    +0.084 C 
ATOM     33  C   UNL     1      33.306 -22.280 -18.418  0.00  0.00    +0.012 C 
ATOM     34  C   UNL     1      32.904 -22.935 -17.218  0.00  0.00    +0.019 C 
ATOM     35  C   UNL     1      33.953 -23.099 -16.341  0.00  0.00    +0.087 C 
ENDBRANCH  28  32
ENDBRANCH  21  27
ENDBRANCH  19  20
ENDBRANCH   3  19
TORSDOF 6
ENDMDL
MODEL 4
REMARK VINA RESULT:     -10.9      9.535     15.160
REMARK  Name = 42628060
REMARK  6 active torsions:
REMARK  status: ('A' for Active; 'I' for Inactive)
REMARK    1  A    between atoms: N_2  and  C_6
REMARK    2  A    between atoms: C_3  and  C_19
REMARK    3  A    between atoms: C_9  and  N_13
REMARK    4  A    between atoms: C_19  and  N_20
REMARK    5  A    between atoms: C_21  and  N_27
REMARK    6  A    between atoms: C_28  and  C_32
REMARK                            x       y       z     vdW  Elec       q    Type
REMARK                         _______ _______ _______ _____ _____    ______ ____
ROOT
ATOM      1  O   UNL     1      31.000 -22.155 -16.971  0.00  0.00    -0.277 OA
ATOM      2  N   UNL     1      33.202 -22.765 -17.510  0.00  0.00    -0.284 N 
ATOM      3  C   UNL     1      31.998 -22.850 -16.814  0.00  0.00    +0.205 C 
ATOM      4  H   UNL     1      33.903 -23.405 -17.247  0.00  0.00    +0.155 HD
ENDROOT
BRANCH   2   6
ATOM      5  F   UNL     1      35.853 -22.246 -18.193  0.00  0.00    -0.203 F 
ATOM      6  C   UNL     1      33.536 -21.866 -18.550  0.00  0.00    +0.078 C 
ATOM      7  C   UNL     1      34.873 -21.628 -18.867  0.00  0.00    +0.155 C 
ATOM      8  C   UNL     1      32.525 -21.216 -19.258  0.00  0.00    +0.018 C 
ATOM      9  C   UNL     1      34.188 -20.091 -20.601  0.00  0.00    +0.061 C 
ATOM     10  C   UNL     1      35.199 -20.741 -19.894  0.00  0.00    +0.046 C 
ATOM     11  C   UNL     1      32.851 -20.328 -20.284  0.00  0.00    +0.017 C 
BRANCH   9  13
ATOM     12  O   UNL     1      35.742 -17.672 -20.286  0.00  0.00    -0.269 OA
ATOM     13  N   UNL     1      34.526 -19.168 -21.667  0.00  0.00    -0.233 N 
ATOM     14  C   UNL     1      35.263 -17.991 -21.375  0.00  0.00    +0.257 C 
ATOM     15  C   UNL     1      34.150 -19.438 -22.985  0.00  0.00    +0.072 C 
ATOM     16  C   UNL     1      35.530 -17.070 -22.523  0.00  0.00    +0.059 C 
ATOM     17  C   UNL     1      34.430 -18.614 -23.999  0.00  0.00    +0.017 C 
ATOM     18  C   UNL     1      35.135 -17.391 -23.757  0.00  0.00    +0.006 C 
ENDBRANCH   9  13
ENDBRANCH   2   6
BRANCH   3  19
ATOM     19  C   UNL     1      32.068 -23.958 -15.777  0.00  0.00    +0.010 C 
BRANCH  19  20
ATOM     20  N   UNL     1      33.151 -23.681 -14.845  0.00  0.00    +0.394 N 
ATOM     21  C   UNL     1      35.377 -23.938 -14.200  0.00  0.00    +0.049 C 
ATOM     22  C   UNL     1      34.476 -24.368 -13.039  0.00  0.00    -0.005 C 
ATOM     23  C   UNL     1      34.468 -23.951 -15.425  0.00  0.00    -0.057 C 
ATOM     24  C   UNL     1      33.088 -24.522 -13.650  0.00  0.00    -0.075 C 
ATOM     25  H   UNL     1      33.036 -22.694 -14.618  0.00  0.00    -0.079 HD
BRANCH  21  27
ATOM     26  O   UNL     1      37.956 -23.589 -12.990  0.00  0.00    -0.270 OA
ATOM     27  N   UNL     1      36.523 -24.789 -14.363  0.00  0.00    -0.304 N 
ATOM     28  C   UNL     1      37.737 -24.541 -13.735  0.00  0.00    +0.252 C 
ATOM     29  H   UNL     1      36.444 -25.581 -14.943  0.00  0.00    +0.150 HD
BRANCH  28  32
ATOM     30 CL   UNL     1      40.649 -28.776 -15.781  0.00  0.00    -0.075 Cl
ATOM     31  S   UNL     1      38.542 -26.795 -15.111  0.00  0.00    -0.071 S 
ATOM     32  C   UNL     1      38.833 -25.502 -14.027  0.00  0.00    +0.084 C 
ATOM     33  C   UNL     1      40.121 -25.518 -13.536  0.00  0.00    +0.012 C 
ATOM     34  C   UNL     1      40.878 -26.606 -14.058  0.00  0.00    +0.019 C 
ATOM     35  C   UNL     1      40.141 -27.380 -14.927  0.00  0.00    +0.087 C 
ENDBRANCH  28  32
ENDBRANCH  21  27
ENDBRANCH  19  20
ENDBRANCH   3  19
TORSDOF 6
ENDMDL
MODEL 5
REMARK VINA RESULT:     -10.6      1.727      2.135
REMARK  Name = 42628060
REMARK  6 active torsions:
REMARK  status: ('A' for Active; 'I' for Inactive)
REMARK    1  A    between atoms: N_2  and  C_6
REMARK    2  A    between atoms: C_3  and  C_19
REMARK    3  A    between atoms: C_9  and  N_13
REMARK    4  A    between atoms: C_19  and  N_20
REMARK    5  A    between atoms: C_21  and  N_27
REMARK    6  A    between atoms: C_28  and  C_32
REMARK                            x       y       z     vdW  Elec       q    Type
REMARK                         _______ _______ _______ _____ _____    ______ ____
ROOT
ATOM      1  O   UNL     1      33.445 -14.538 -25.932  0.00  0.00    -0.277 OA
ATOM      2  N   UNL     1      34.021 -13.741 -23.799  0.00  0.00    -0.284 N 
ATOM      3  C   UNL     1      33.570 -13.633 -25.114  0.00  0.00    +0.205 C 
ATOM      4  H   UNL     1      34.063 -12.904 -23.284  0.00  0.00    +0.155 HD
ENDROOT
BRANCH   2   6
ATOM      5  F   UNL     1      34.177 -13.833 -21.019  0.00  0.00    -0.203 F 
ATOM      6  C   UNL     1      34.424 -14.914 -23.120  0.00  0.00    +0.078 C 
ATOM      7  C   UNL     1      34.492 -14.927 -21.726  0.00  0.00    +0.155 C 
ATOM      8  C   UNL     1      34.756 -16.059 -23.845  0.00  0.00    +0.018 C 
ATOM      9  C   UNL     1      35.223 -17.230 -21.784  0.00  0.00    +0.061 C 
ATOM     10  C   UNL     1      34.891 -16.086 -21.059  0.00  0.00    +0.046 C 
ATOM     11  C   UNL     1      35.155 -17.217 -23.177  0.00  0.00    +0.017 C 
BRANCH   9  13
ATOM     12  O   UNL     1      33.661 -19.654 -21.562  0.00  0.00    -0.269 OA
ATOM     13  N   UNL     1      35.639 -18.434 -21.091  0.00  0.00    -0.233 N 
ATOM     14  C   UNL     1      34.761 -19.546 -21.019  0.00  0.00    +0.257 C 
ATOM     15  C   UNL     1      36.906 -18.515 -20.510  0.00  0.00    +0.072 C 
ATOM     16  C   UNL     1      35.250 -20.730 -20.245  0.00  0.00    +0.059 C 
ATOM     17  C   UNL     1      37.332 -19.598 -19.852  0.00  0.00    +0.017 C 
ATOM     18  C   UNL     1      36.473 -20.736 -19.712  0.00  0.00    +0.006 C 
ENDBRANCH   9  13
ENDBRANCH   2   6
BRANCH   3  19
ATOM     19  C   UNL     1      33.242 -12.185 -25.439  0.00  0.00    +0.010 C 
BRANCH  19  20
ATOM     20  N   UNL     1      33.959 -11.310 -24.524  0.00  0.00    +0.394 N 
ATOM     21  C   UNL     1      34.047  -9.367 -23.238  0.00  0.00    +0.049 C 
ATOM     22  C   UNL     1      35.254  -9.388 -24.180  0.00  0.00    -0.005 C 
ATOM     23  C   UNL     1      33.068 -10.374 -23.834  0.00  0.00    -0.057 C 
ATOM     24  C   UNL     1      34.933 -10.462 -25.212  0.00  0.00    -0.075 C 
ATOM     25  H   UNL     1      34.411 -11.949 -23.872  0.00  0.00    -0.079 HD
BRANCH  21  27
ATOM     26  O   UNL     1      32.489  -8.405 -21.027  0.00  0.00    -0.270 OA
ATOM     27  N   UNL     1      33.467  -8.059 -23.102  0.00  0.00    -0.304 N 
ATOM     28  C   UNL     1      32.724  -7.680 -21.991  0.00  0.00    +0.252 C 
ATOM     29  H   UNL     1      33.601  -7.405 -23.826  0.00  0.00    +0.150 HD
BRANCH  28  32
ATOM     30 CL   UNL     1      31.650  -2.437 -23.392  0.00  0.00    -0.075 Cl
ATOM     31  S   UNL     1      32.686  -5.215 -23.233  0.00  0.00    -0.071 S 
ATOM     32  C   UNL     1      32.170  -6.301 -22.013  0.00  0.00    +0.084 C 
ATOM     33  C   UNL     1      31.254  -5.724 -21.161  0.00  0.00    +0.012 C 
ATOM     34  C   UNL     1      30.972  -4.373 -21.515  0.00  0.00    +0.019 C 
ATOM     35  C   UNL     1      31.682  -3.969 -22.623  0.00  0.00    +0.087 C 
ENDBRANCH  28  32
ENDBRANCH  21  27
ENDBRANCH  19  20
ENDBRANCH   3  19
TORSDOF 6
ENDMDL
MODEL 6
REMARK VINA RESULT:     -10.4      7.440     14.005
REMARK  Name = 42628060
REMARK  6 active torsions:
REMARK  status: ('A' for Active; 'I' for Inactive)
REMARK    1  A    between atoms: N_2  and  C_6
REMARK    2  A    between atoms: C_3  and  C_19
REMARK    3  A    between atoms: C_9  and  N_13
REMARK    4  A    between atoms: C_19  and  N_20
REMARK    5  A    between atoms: C_21  and  N_27
REMARK    6  A    between atoms: C_28  and  C_32
REMARK                            x       y       z     vdW  Elec       q    Type
REMARK                         _______ _______ _______ _____ _____    ______ ____
ROOT
ATOM      1  O   UNL     1      33.691 -20.160 -20.462  0.00  0.00    -0.277 OA
ATOM      2  N   UNL     1      35.739 -19.152 -21.015  0.00  0.00    -0.284 N 
ATOM      3  C   UNL     1      34.918 -20.146 -20.487  0.00  0.00    +0.205 C 
ATOM      4  H   UNL     1      36.709 -19.305 -20.944  0.00  0.00    +0.155 HD
ENDROOT
BRANCH   2   6
ATOM      5  F   UNL     1      35.145 -19.049 -23.735  0.00  0.00    -0.203 F 
ATOM      6  C   UNL     1      35.341 -17.947 -21.640  0.00  0.00    +0.078 C 
ATOM      7  C   UNL     1      35.051 -17.929 -23.005  0.00  0.00    +0.155 C 
ATOM      8  C   UNL     1      35.242 -16.774 -20.891  0.00  0.00    +0.018 C 
ATOM      9  C   UNL     1      34.560 -15.567 -22.870  0.00  0.00    +0.061 C 
ATOM     10  C   UNL     1      34.660 -16.739 -23.619  0.00  0.00    +0.046 C 
ATOM     11  C   UNL     1      34.850 -15.584 -21.506  0.00  0.00    +0.017 C 
BRANCH   9  13
ATOM     12  O   UNL     1      33.774 -15.296 -25.640  0.00  0.00    -0.269 OA
ATOM     13  N   UNL     1      34.155 -14.330 -23.508  0.00  0.00    -0.233 N 
ATOM     14  C   UNL     1      33.830 -14.321 -24.889  0.00  0.00    +0.257 C 
ATOM     15  C   UNL     1      34.060 -13.149 -22.769  0.00  0.00    +0.072 C 
ATOM     16  C   UNL     1      33.466 -12.995 -25.479  0.00  0.00    +0.059 C 
ATOM     17  C   UNL     1      33.701 -11.982 -23.314  0.00  0.00    +0.017 C 
ATOM     18  C   UNL     1      33.402 -11.905 -24.712  0.00  0.00    +0.006 C 
ENDBRANCH   9  13
ENDBRANCH   2   6
BRANCH   3  19
ATOM     19  C   UNL     1      35.760 -21.270 -19.909  0.00  0.00    +0.010 C 
BRANCH  19  20
ATOM     20  N   UNL     1      35.422 -21.455 -18.505  0.00  0.00    +0.394 N 
ATOM     21  C   UNL     1      35.977 -22.234 -16.379  0.00  0.00    +0.049 C 
ATOM     22  C   UNL     1      34.635 -22.845 -16.792  0.00  0.00    -0.005 C 
ATOM     23  C   UNL     1      36.599 -21.740 -17.681  0.00  0.00    -0.057 C 
ATOM     24  C   UNL     1      34.530 -22.594 -18.291  0.00  0.00    -0.075 C 
ATOM     25  H   UNL     1      34.981 -20.575 -18.239  0.00  0.00    -0.079 HD
BRANCH  21  27
ATOM     26  O   UNL     1      35.721 -23.087 -13.650  0.00  0.00    -0.270 OA
ATOM     27  N   UNL     1      36.826 -23.165 -15.688  0.00  0.00    -0.304 N 
ATOM     28  C   UNL     1      36.626 -23.520 -14.360  0.00  0.00    +0.252 C 
ATOM     29  H   UNL     1      37.581 -23.567 -16.176  0.00  0.00    +0.150 HD
BRANCH  28  32
ATOM     30 CL   UNL     1      41.042 -26.773 -13.644  0.00  0.00    -0.075 Cl
ATOM     31  S   UNL     1      39.003 -24.885 -14.687  0.00  0.00    -0.071 S 
ATOM     32  C   UNL     1      37.608 -24.475 -13.783  0.00  0.00    +0.084 C 
ATOM     33  C   UNL     1      37.573 -25.119 -12.565  0.00  0.00    +0.012 C 
ATOM     34  C   UNL     1      38.707 -25.959 -12.373  0.00  0.00    +0.019 C 
ATOM     35  C   UNL     1      39.565 -25.926 -13.450  0.00  0.00    +0.087 C 
ENDBRANCH  28  32
ENDBRANCH  21  27
ENDBRANCH  19  20
ENDBRANCH   3  19
TORSDOF 6
ENDMDL
MODEL 7
REMARK VINA RESULT:     -10.4      4.405      7.672
REMARK  Name = 42628060
REMARK  6 active torsions:
REMARK  status: ('A' for Active; 'I' for Inactive)
REMARK    1  A    between atoms: N_2  and  C_6
REMARK    2  A    between atoms: C_3  and  C_19
REMARK    3  A    between atoms: C_9  and  N_13
REMARK    4  A    between atoms: C_19  and  N_20
REMARK    5  A    between atoms: C_21  and  N_27
REMARK    6  A    between atoms: C_28  and  C_32
REMARK                            x       y       z     vdW  Elec       q    Type
REMARK                         _______ _______ _______ _____ _____    ______ ____
ROOT
ATOM      1  O   UNL     1      36.426 -19.644 -19.946  0.00  0.00    -0.277 OA
ATOM      2  N   UNL     1      34.782 -21.275 -19.557  0.00  0.00    -0.284 N 
ATOM      3  C   UNL     1      35.405 -20.246 -20.261  0.00  0.00    +0.205 C 
ATOM      4  H   UNL     1      33.961 -21.641 -19.958  0.00  0.00    +0.155 HD
ENDROOT
BRANCH   2   6
ATOM      5  F   UNL     1      33.002 -22.690 -17.947  0.00  0.00    -0.203 F 
ATOM      6  C   UNL     1      35.191 -21.853 -18.333  0.00  0.00    +0.078 C 
ATOM      7  C   UNL     1      34.275 -22.555 -17.550  0.00  0.00    +0.155 C 
ATOM      8  C   UNL     1      36.513 -21.718 -17.908  0.00  0.00    +0.018 C 
ATOM      9  C   UNL     1      36.004 -22.989 -15.918  0.00  0.00    +0.061 C 
ATOM     10  C   UNL     1      34.682 -23.124 -16.342  0.00  0.00    +0.046 C 
ATOM     11  C   UNL     1      36.920 -22.287 -16.700  0.00  0.00    +0.017 C 
BRANCH   9  13
ATOM     12  O   UNL     1      36.032 -25.820 -15.327  0.00  0.00    -0.269 OA
ATOM     13  N   UNL     1      36.427 -23.579 -14.662  0.00  0.00    -0.233 N 
ATOM     14  C   UNL     1      36.355 -24.985 -14.483  0.00  0.00    +0.257 C 
ATOM     15  C   UNL     1      36.925 -22.776 -13.634  0.00  0.00    +0.072 C 
ATOM     16  C   UNL     1      36.767 -25.506 -13.142  0.00  0.00    +0.059 C 
ATOM     17  C   UNL     1      37.317 -23.271 -12.456  0.00  0.00    +0.017 C 
ATOM     18  C   UNL     1      37.229 -24.677 -12.203  0.00  0.00    +0.006 C 
ENDBRANCH   9  13
ENDBRANCH   2   6
BRANCH   3  19
ATOM     19  C   UNL     1      34.628 -19.933 -21.529  0.00  0.00    +0.010 C 
BRANCH  19  20
ATOM     20  N   UNL     1      35.187 -18.745 -22.157  0.00  0.00    +0.394 N 
ATOM     21  C   UNL     1      35.302 -16.424 -22.348  0.00  0.00    +0.049 C 
ATOM     22  C   UNL     1      34.985 -17.015 -23.724  0.00  0.00    -0.005 C 
ATOM     23  C   UNL     1      34.970 -17.537 -21.359  0.00  0.00    -0.057 C 
ATOM     24  C   UNL     1      34.568 -18.455 -23.451  0.00  0.00    -0.075 C 
ATOM     25  H   UNL     1      36.179 -18.959 -22.254  0.00  0.00    -0.079 HD
BRANCH  21  27
ATOM     26  O   UNL     1      33.829 -14.848 -24.242  0.00  0.00    -0.270 OA
ATOM     27  N   UNL     1      34.572 -15.217 -22.075  0.00  0.00    -0.304 N 
ATOM     28  C   UNL     1      33.885 -14.517 -23.059  0.00  0.00    +0.252 C 
ATOM     29  H   UNL     1      34.558 -14.872 -21.153  0.00  0.00    +0.150 HD
BRANCH  28  32
ATOM     30 CL   UNL     1      32.204  -9.260 -22.686  0.00  0.00    -0.075 Cl
ATOM     31  S   UNL     1      33.512 -11.812 -23.458  0.00  0.00    -0.071 S 
ATOM     32  C   UNL     1      33.201 -13.273 -22.621  0.00  0.00    +0.084 C 
ATOM     33  C   UNL     1      32.304 -13.098 -21.590  0.00  0.00    +0.012 C 
ATOM     34  C   UNL     1      31.866 -11.746 -21.486  0.00  0.00    +0.019 C 
ATOM     35  C   UNL     1      32.445 -10.939 -22.441  0.00  0.00    +0.087 C 
ENDBRANCH  28  32
ENDBRANCH  21  27
ENDBRANCH  19  20
ENDBRANCH   3  19
TORSDOF 6
ENDMDL
MODEL 8
REMARK VINA RESULT:     -10.3      3.778      6.540
REMARK  Name = 42628060
REMARK  6 active torsions:
REMARK  status: ('A' for Active; 'I' for Inactive)
REMARK    1  A    between atoms: N_2  and  C_6
REMARK    2  A    between atoms: C_3  and  C_19
REMARK    3  A    between atoms: C_9  and  N_13
REMARK    4  A    between atoms: C_19  and  N_20
REMARK    5  A    between atoms: C_21  and  N_27
REMARK    6  A    between atoms: C_28  and  C_32
REMARK                            x       y       z     vdW  Elec       q    Type
REMARK                         _______ _______ _______ _____ _____    ______ ____
ROOT
ATOM      1  O   UNL     1      35.355 -18.039 -20.437  0.00  0.00    -0.277 OA
ATOM      2  N   UNL     1      35.632 -20.317 -20.937  0.00  0.00    -0.284 N 
ATOM      3  C   UNL     1      35.777 -18.947 -21.147  0.00  0.00    +0.205 C 
ATOM      4  H   UNL     1      36.033 -20.905 -21.616  0.00  0.00    +0.155 HD
ENDROOT
BRANCH   2   6
ATOM      5  F   UNL     1      32.853 -20.350 -20.738  0.00  0.00    -0.203 F 
ATOM      6  C   UNL     1      34.975 -20.960 -19.862  0.00  0.00    +0.078 C 
ATOM      7  C   UNL     1      33.582 -20.959 -19.792  0.00  0.00    +0.155 C 
ATOM      8  C   UNL     1      35.722 -21.595 -18.870  0.00  0.00    +0.018 C 
ATOM      9  C   UNL     1      33.684 -22.228 -17.738  0.00  0.00    +0.061 C 
ATOM     10  C   UNL     1      32.936 -21.593 -18.729  0.00  0.00    +0.046 C 
ATOM     11  C   UNL     1      35.077 -22.229 -17.808  0.00  0.00    +0.017 C 
BRANCH   9  13
ATOM     12  O   UNL     1      35.003 -23.641 -15.586  0.00  0.00    -0.269 OA
ATOM     13  N   UNL     1      33.014 -22.886 -16.634  0.00  0.00    -0.233 N 
ATOM     14  C   UNL     1      33.775 -23.583 -15.660  0.00  0.00    +0.257 C 
ATOM     15  C   UNL     1      31.624 -22.823 -16.508  0.00  0.00    +0.072 C 
ATOM     16  C   UNL     1      33.002 -24.272 -14.579  0.00  0.00    +0.059 C 
ATOM     17  C   UNL     1      30.960 -23.421 -15.515  0.00  0.00    +0.017 C 
ATOM     18  C   UNL     1      31.672 -24.173 -14.526  0.00  0.00    +0.006 C 
ENDBRANCH   9  13
ENDBRANCH   2   6
BRANCH   3  19
ATOM     19  C   UNL     1      36.552 -18.691 -22.428  0.00  0.00    +0.010 C 
BRANCH  19  20
ATOM     20  N   UNL     1      35.787 -17.801 -23.288  0.00  0.00    +0.394 N 
ATOM     21  C   UNL     1      34.628 -15.804 -23.608  0.00  0.00    +0.049 C 
ATOM     22  C   UNL     1      33.709 -16.970 -23.981  0.00  0.00    -0.005 C 
ATOM     23  C   UNL     1      35.737 -16.432 -22.771  0.00  0.00    -0.057 C 
ATOM     24  C   UNL     1      34.386 -18.208 -23.405  0.00  0.00    -0.075 C 
ATOM     25  H   UNL     1      36.269 -17.848 -24.184  0.00  0.00    -0.079 HD
BRANCH  21  27
ATOM     26  O   UNL     1      33.512 -13.419 -24.753  0.00  0.00    -0.270 OA
ATOM     27  N   UNL     1      33.943 -14.754 -22.906  0.00  0.00    -0.304 N 
ATOM     28  C   UNL     1      33.433 -13.631 -23.545  0.00  0.00    +0.252 C 
ATOM     29  H   UNL     1      33.830 -14.834 -21.931  0.00  0.00    +0.150 HD
BRANCH  28  32
ATOM     30 CL   UNL     1      31.651  -8.852 -21.403  0.00  0.00    -0.075 Cl
ATOM     31  S   UNL     1      32.924 -10.962 -23.059  0.00  0.00    -0.071 S 
ATOM     32  C   UNL     1      32.775 -12.623 -22.674  0.00  0.00    +0.084 C 
ATOM     33  C   UNL     1      32.018 -12.825 -21.540  0.00  0.00    +0.012 C 
ATOM     34  C   UNL     1      31.556 -11.599 -20.981  0.00  0.00    +0.019 C 
ATOM     35  C   UNL     1      31.976 -10.507 -21.708  0.00  0.00    +0.087 C 
ENDBRANCH  28  32
ENDBRANCH  21  27
ENDBRANCH  19  20
ENDBRANCH   3  19
TORSDOF 6
ENDMDL
MODEL 9
REMARK VINA RESULT:     -10.2      5.074     11.762
REMARK  Name = 42628060
REMARK  6 active torsions:
REMARK  status: ('A' for Active; 'I' for Inactive)
REMARK    1  A    between atoms: N_2  and  C_6
REMARK    2  A    between atoms: C_3  and  C_19
REMARK    3  A    between atoms: C_9  and  N_13
REMARK    4  A    between atoms: C_19  and  N_20
REMARK    5  A    between atoms: C_21  and  N_27
REMARK    6  A    between atoms: C_28  and  C_32
REMARK                            x       y       z     vdW  Elec       q    Type
REMARK                         _______ _______ _______ _____ _____    ______ ____
ROOT
ATOM      1  O   UNL     1      33.065 -13.035 -25.716  0.00  0.00    -0.277 OA
ATOM      2  N   UNL     1      33.464 -12.721 -23.423  0.00  0.00    -0.284 N 
ATOM      3  C   UNL     1      33.385 -13.452 -24.607  0.00  0.00    +0.205 C 
ATOM      4  H   UNL     1      33.734 -13.223 -22.620  0.00  0.00    +0.155 HD
ENDROOT
BRANCH   2   6
ATOM      5  F   UNL     1      31.332 -11.840 -21.860  0.00  0.00    -0.203 F 
ATOM      6  C   UNL     1      33.200 -11.344 -23.240  0.00  0.00    +0.078 C 
ATOM      7  C   UNL     1      32.125 -10.935 -22.452  0.00  0.00    +0.155 C 
ATOM      8  C   UNL     1      34.017 -10.393 -23.852  0.00  0.00    +0.018 C 
ATOM      9  C   UNL     1      32.684  -8.625 -22.886  0.00  0.00    +0.061 C 
ATOM     10  C   UNL     1      31.867  -9.576 -22.274  0.00  0.00    +0.046 C 
ATOM     11  C   UNL     1      33.759  -9.033 -23.674  0.00  0.00    +0.017 C 
BRANCH   9  13
ATOM     12  O   UNL     1      33.127  -7.143 -20.442  0.00  0.00    -0.269 OA
ATOM     13  N   UNL     1      32.415  -7.212 -22.702  0.00  0.00    -0.233 N 
ATOM     14  C   UNL     1      32.638  -6.609 -21.438  0.00  0.00    +0.257 C 
ATOM     15  C   UNL     1      31.958  -6.433 -23.768  0.00  0.00    +0.072 C 
ATOM     16  C   UNL     1      32.292  -5.158 -21.321  0.00  0.00    +0.059 C 
ATOM     17  C   UNL     1      31.687  -5.130 -23.646  0.00  0.00    +0.017 C 
ATOM     18  C   UNL     1      31.854  -4.477 -22.383  0.00  0.00    +0.006 C 
ENDBRANCH   9  13
ENDBRANCH   2   6
BRANCH   3  19
ATOM     19  C   UNL     1      33.752 -14.904 -24.354  0.00  0.00    +0.010 C 
BRANCH  19  20
ATOM     20  N   UNL     1      34.537 -14.999 -23.133  0.00  0.00    +0.394 N 
ATOM     21  C   UNL     1      35.447 -16.278 -21.409  0.00  0.00    +0.049 C 
ATOM     22  C   UNL     1      34.612 -15.150 -20.796  0.00  0.00    -0.005 C 
ATOM     23  C   UNL     1      34.980 -16.367 -22.858  0.00  0.00    -0.057 C 
ATOM     24  C   UNL     1      33.775 -14.606 -21.948  0.00  0.00    -0.075 C 
ATOM     25  H   UNL     1      35.326 -14.374 -23.297  0.00  0.00    -0.079 HD
BRANCH  21  27
ATOM     26  O   UNL     1      36.878 -18.711 -21.927  0.00  0.00    -0.270 OA
ATOM     27  N   UNL     1      35.299 -17.525 -20.711  0.00  0.00    -0.304 N 
ATOM     28  C   UNL     1      36.038 -18.657 -21.032  0.00  0.00    +0.252 C 
ATOM     29  H   UNL     1      34.647 -17.580 -19.974  0.00  0.00    +0.150 HD
BRANCH  28  32
ATOM     30 CL   UNL     1      33.426 -22.853 -18.548  0.00  0.00    -0.075 Cl
ATOM     31  S   UNL     1      34.133 -20.428 -20.109  0.00  0.00    -0.071 S 
ATOM     32  C   UNL     1      35.749 -19.876 -20.232  0.00  0.00    +0.084 C 
ATOM     33  C   UNL     1      36.625 -20.679 -19.536  0.00  0.00    +0.012 C 
ATOM     34  C   UNL     1      35.960 -21.763 -18.892  0.00  0.00    +0.019 C 
ATOM     35  C   UNL     1      34.602 -21.746 -19.121  0.00  0.00    +0.087 C 
ENDBRANCH  28  32
ENDBRANCH  21  27
ENDBRANCH  19  20
ENDBRANCH   3  19
TORSDOF 6
ENDMDL
