MODEL 1
REMARK VINA RESULT:     -11.7      0.000      0.000
REMARK  Name = 11659487
REMARK  5 active torsions:
REMARK  status: ('A' for Active; 'I' for Inactive)
REMARK    1  A    between atoms: C_1  and  C_15
REMARK    2  A    between atoms: C_2  and  C_7
REMARK    3  A    between atoms: C_10  and  O_13
REMARK    4  A    between atoms: C_15  and  C_16
REMARK    5  A    between atoms: C_16  and  C_18
REMARK                            x       y       z     vdW  Elec       q    Type
REMARK                         _______ _______ _______ _____ _____    ______ ____
ROOT
ATOM      1  C   UNL     1      34.318 -21.316 -19.243  0.00  0.00    -0.022 C 
ATOM      2  C   UNL     1      35.166 -19.801 -20.923  0.00  0.00    -0.000 C 
ATOM      3  C   UNL     1      34.094 -20.458 -20.319  0.00  0.00    -0.004 C 
ATOM      4  C   UNL     1      35.616 -21.518 -18.771  0.00  0.00    -0.004 C 
ATOM      5  C   UNL     1      36.463 -20.003 -20.452  0.00  0.00    -0.000 C 
ATOM      6  C   UNL     1      36.688 -20.861 -19.376  0.00  0.00    -0.000 C 
ENDROOT
BRANCH   2   7
ATOM      7  C   UNL     1      34.933 -18.910 -22.039  0.00  0.00    +0.003 C 
ATOM      8  C   UNL     1      35.275 -17.562 -21.939  0.00  0.00    +0.037 C 
ATOM      9  C   UNL     1      34.366 -19.399 -23.215  0.00  0.00    +0.000 C 
ATOM     10  C   UNL     1      35.050 -16.703 -23.015  0.00  0.00    +0.139 C 
ATOM     11  C   UNL     1      34.141 -18.542 -24.291  0.00  0.00    +0.003 C 
ATOM     12  C   UNL     1      34.484 -17.193 -24.191  0.00  0.00    +0.037 C 
BRANCH  10  13
ATOM     13  O   UNL     1      35.385 -15.387 -22.917  0.00  0.00    -0.471 OA
ATOM     14  C   UNL     1      34.317 -14.456 -22.751  0.00  0.00    +0.252 C 
ENDBRANCH  10  13
ENDBRANCH   2   7
BRANCH   1  15
ATOM     15  C   UNL     1      33.173 -22.019 -18.596  0.00  0.00    +0.034 C 
BRANCH  15  16
ATOM     16  C   UNL     1      33.564 -22.844 -17.354  0.00  0.00    +0.064 C 
BRANCH  16  18
ATOM     17  N   UNL     1      31.192 -22.801 -16.865  0.00  0.00    -0.396 NA
ATOM     18  C   UNL     1      32.425 -23.024 -16.378  0.00  0.00    +0.110 C 
ATOM     19  C   UNL     1      32.715 -23.395 -15.084  0.00  0.00    +0.023 C 
ATOM     20  C   UNL     1      31.644 -23.553 -14.211  0.00  0.00    -0.015 C 
ATOM     21  C   UNL     1      30.177 -22.963 -15.988  0.00  0.00    +0.158 C 
ATOM     22  C   UNL     1      30.348 -23.335 -14.664  0.00  0.00    +0.100 C 
ATOM     23  N   UNL     1      28.849 -22.745 -16.434  0.00  0.00    -0.336 N 
ATOM     24  H   UNL     1      28.681 -22.480 -17.367  0.00  0.00    +0.144 HD
ATOM     25  H   UNL     1      28.096 -22.858 -15.810  0.00  0.00    +0.144 HD
ENDBRANCH  16  18
ENDBRANCH  15  16
ENDBRANCH   1  15
TORSDOF 5
ENDMDL
MODEL 2
REMARK VINA RESULT:     -11.2      4.452      8.634
REMARK  Name = 11659487
REMARK  5 active torsions:
REMARK  status: ('A' for Active; 'I' for Inactive)
REMARK    1  A    between atoms: C_1  and  C_15
REMARK    2  A    between atoms: C_2  and  C_7
REMARK    3  A    between atoms: C_10  and  O_13
REMARK    4  A    between atoms: C_15  and  C_16
REMARK    5  A    between atoms: C_16  and  C_18
REMARK                            x       y       z     vdW  Elec       q    Type
REMARK                         _______ _______ _______ _____ _____    ______ ____
ROOT
ATOM      1  C   UNL     1      35.104 -18.930 -22.358  0.00  0.00    -0.022 C 
ATOM      2  C   UNL     1      35.391 -20.211 -20.329  0.00  0.00    -0.000 C 
ATOM      3  C   UNL     1      34.582 -19.778 -21.381  0.00  0.00    -0.004 C 
ATOM      4  C   UNL     1      36.433 -18.514 -22.282  0.00  0.00    -0.004 C 
ATOM      5  C   UNL     1      36.720 -19.795 -20.254  0.00  0.00    -0.000 C 
ATOM      6  C   UNL     1      37.241 -18.946 -21.231  0.00  0.00    -0.000 C 
ENDROOT
BRANCH   2   7
ATOM      7  C   UNL     1      34.850 -21.092 -19.317  0.00  0.00    +0.003 C 
ATOM      8  C   UNL     1      35.696 -21.669 -18.371  0.00  0.00    +0.037 C 
ATOM      9  C   UNL     1      33.483 -21.363 -19.286  0.00  0.00    +0.000 C 
ATOM     10  C   UNL     1      35.174 -22.518 -17.394  0.00  0.00    +0.139 C 
ATOM     11  C   UNL     1      32.960 -22.211 -18.311  0.00  0.00    +0.003 C 
ATOM     12  C   UNL     1      33.807 -22.789 -17.364  0.00  0.00    +0.037 C 
BRANCH  10  13
ATOM     13  O   UNL     1      36.000 -23.082 -16.470  0.00  0.00    -0.471 OA
ATOM     14  C   UNL     1      37.127 -22.315 -16.051  0.00  0.00    +0.252 C 
ENDBRANCH  10  13
ENDBRANCH   2   7
BRANCH   1  15
ATOM     15  C   UNL     1      34.241 -18.467 -23.482  0.00  0.00    +0.034 C 
BRANCH  15  16
ATOM     16  C   UNL     1      34.895 -17.394 -24.375  0.00  0.00    +0.064 C 
BRANCH  16  18
ATOM     17  N   UNL     1      33.891 -15.293 -25.042  0.00  0.00    -0.396 NA
ATOM     18  C   UNL     1      34.452 -15.990 -24.038  0.00  0.00    +0.110 C 
ATOM     19  C   UNL     1      34.647 -15.524 -22.757  0.00  0.00    +0.023 C 
ATOM     20  C   UNL     1      34.227 -14.227 -22.480  0.00  0.00    -0.015 C 
ATOM     21  C   UNL     1      33.497 -14.038 -24.736  0.00  0.00    +0.158 C 
ATOM     22  C   UNL     1      33.640 -13.463 -23.482  0.00  0.00    +0.100 C 
ATOM     23  N   UNL     1      32.896 -13.246 -25.746  0.00  0.00    -0.336 N 
ATOM     24  H   UNL     1      32.775 -13.613 -26.651  0.00  0.00    +0.144 HD
ATOM     25  H   UNL     1      32.602 -12.329 -25.543  0.00  0.00    +0.144 HD
ENDBRANCH  16  18
ENDBRANCH  15  16
ENDBRANCH   1  15
TORSDOF 5
ENDMDL
MODEL 3
REMARK VINA RESULT:     -10.9      3.679      8.631
REMARK  Name = 11659487
REMARK  5 active torsions:
REMARK  status: ('A' for Active; 'I' for Inactive)
REMARK    1  A    between atoms: C_1  and  C_15
REMARK    2  A    between atoms: C_2  and  C_7
REMARK    3  A    between atoms: C_10  and  O_13
REMARK    4  A    between atoms: C_15  and  C_16
REMARK    5  A    between atoms: C_16  and  C_18
REMARK                            x       y       z     vdW  Elec       q    Type
REMARK                         _______ _______ _______ _____ _____    ______ ____
ROOT
ATOM      1  C   UNL     1      34.298 -22.586 -17.630  0.00  0.00    -0.022 C 
ATOM      2  C   UNL     1      32.586 -23.216 -16.046  0.00  0.00    -0.000 C 
ATOM      3  C   UNL     1      32.954 -22.807 -17.328  0.00  0.00    -0.004 C 
ATOM      4  C   UNL     1      35.273 -22.772 -16.649  0.00  0.00    -0.004 C 
ATOM      5  C   UNL     1      33.560 -23.403 -15.066  0.00  0.00    -0.000 C 
ATOM      6  C   UNL     1      34.904 -23.181 -15.367  0.00  0.00    -0.000 C 
ENDROOT
BRANCH   2   7
ATOM      7  C   UNL     1      31.192 -23.447 -15.733  0.00  0.00    +0.003 C 
ATOM      8  C   UNL     1      30.207 -22.639 -16.300  0.00  0.00    +0.037 C 
ATOM      9  C   UNL     1      30.833 -24.479 -14.866  0.00  0.00    +0.000 C 
ATOM     10  C   UNL     1      28.863 -22.862 -15.999  0.00  0.00    +0.139 C 
ATOM     11  C   UNL     1      29.490 -24.703 -14.565  0.00  0.00    +0.003 C 
ATOM     12  C   UNL     1      28.504 -23.894 -15.132  0.00  0.00    +0.037 C 
BRANCH  10  13
ATOM     13  O   UNL     1      27.901 -22.073 -16.552  0.00  0.00    -0.471 OA
ATOM     14  C   UNL     1      26.583 -22.185 -16.018  0.00  0.00    +0.252 C 
ENDBRANCH  10  13
ENDBRANCH   2   7
BRANCH   1  15
ATOM     15  C   UNL     1      34.693 -22.149 -18.999  0.00  0.00    +0.034 C 
BRANCH  15  16
ATOM     16  C   UNL     1      33.891 -20.944 -19.530  0.00  0.00    +0.064 C 
BRANCH  16  18
ATOM     17  N   UNL     1      35.899 -19.744 -20.158  0.00  0.00    -0.396 NA
ATOM     18  C   UNL     1      34.659 -20.111 -20.527  0.00  0.00    +0.110 C 
ATOM     19  C   UNL     1      34.056 -19.786 -21.723  0.00  0.00    +0.023 C 
ATOM     20  C   UNL     1      34.791 -19.019 -22.620  0.00  0.00    -0.015 C 
ATOM     21  C   UNL     1      36.582 -18.999 -21.054  0.00  0.00    +0.158 C 
ATOM     22  C   UNL     1      36.078 -18.613 -22.287  0.00  0.00    +0.100 C 
ATOM     23  N   UNL     1      37.896 -18.578 -20.730  0.00  0.00    -0.336 N 
ATOM     24  H   UNL     1      38.293 -18.828 -19.865  0.00  0.00    +0.144 HD
ATOM     25  H   UNL     1      38.410 -18.034 -21.370  0.00  0.00    +0.144 HD
ENDBRANCH  16  18
ENDBRANCH  15  16
ENDBRANCH   1  15
TORSDOF 5
ENDMDL
MODEL 4
REMARK VINA RESULT:     -10.8      4.457      8.625
REMARK  Name = 11659487
REMARK  5 active torsions:
REMARK  status: ('A' for Active; 'I' for Inactive)
REMARK    1  A    between atoms: C_1  and  C_15
REMARK    2  A    between atoms: C_2  and  C_7
REMARK    3  A    between atoms: C_10  and  O_13
REMARK    4  A    between atoms: C_15  and  C_16
REMARK    5  A    between atoms: C_16  and  C_18
REMARK                            x       y       z     vdW  Elec       q    Type
REMARK                         _______ _______ _______ _____ _____    ______ ____
ROOT
ATOM      1  C   UNL     1      34.892 -16.741 -22.771  0.00  0.00    -0.022 C 
ATOM      2  C   UNL     1      34.818 -19.007 -21.933  0.00  0.00    -0.000 C 
ATOM      3  C   UNL     1      35.001 -17.641 -21.711  0.00  0.00    -0.004 C 
ATOM      4  C   UNL     1      34.601 -17.207 -24.053  0.00  0.00    -0.004 C 
ATOM      5  C   UNL     1      34.527 -19.472 -23.215  0.00  0.00    -0.000 C 
ATOM      6  C   UNL     1      34.419 -18.572 -24.276  0.00  0.00    -0.000 C 
ENDROOT
BRANCH   2   7
ATOM      7  C   UNL     1      34.929 -19.940 -20.833  0.00  0.00    +0.003 C 
ATOM      8  C   UNL     1      33.783 -20.523 -20.294  0.00  0.00    +0.037 C 
ATOM      9  C   UNL     1      36.183 -20.257 -20.313  0.00  0.00    +0.000 C 
ATOM     10  C   UNL     1      33.891 -21.423 -19.234  0.00  0.00    +0.139 C 
ATOM     11  C   UNL     1      36.292 -21.157 -19.253  0.00  0.00    +0.003 C 
ATOM     12  C   UNL     1      35.145 -21.741 -18.714  0.00  0.00    +0.037 C 
BRANCH  10  13
ATOM     13  O   UNL     1      32.772 -21.993 -18.707  0.00  0.00    -0.471 OA
ATOM     14  C   UNL     1      32.937 -22.787 -17.535  0.00  0.00    +0.252 C 
ENDBRANCH  10  13
ENDBRANCH   2   7
BRANCH   1  15
ATOM     15  C   UNL     1      35.087 -15.282 -22.534  0.00  0.00    +0.034 C 
BRANCH  15  16
ATOM     16  C   UNL     1      34.046 -14.387 -23.238  0.00  0.00    +0.064 C 
BRANCH  16  18
ATOM     17  N   UNL     1      32.866 -12.324 -22.772  0.00  0.00    -0.396 NA
ATOM     18  C   UNL     1      33.276 -13.508 -22.282  0.00  0.00    +0.110 C 
ATOM     19  C   UNL     1      33.050 -13.961 -21.001  0.00  0.00    +0.023 C 
ATOM     20  C   UNL     1      32.337 -13.127 -20.146  0.00  0.00    -0.015 C 
ATOM     21  C   UNL     1      32.178 -11.541 -21.913  0.00  0.00    +0.158 C 
ATOM     22  C   UNL     1      31.890 -11.892 -20.603  0.00  0.00    +0.100 C 
ATOM     23  N   UNL     1      31.714 -10.280 -22.363  0.00  0.00    -0.336 N 
ATOM     24  H   UNL     1      31.896  -9.990 -23.285  0.00  0.00    +0.144 HD
ATOM     25  H   UNL     1      31.210  -9.694 -21.752  0.00  0.00    +0.144 HD
ENDBRANCH  16  18
ENDBRANCH  15  16
ENDBRANCH   1  15
TORSDOF 5
ENDMDL
MODEL 5
REMARK VINA RESULT:     -10.7      3.238      6.277
REMARK  Name = 11659487
REMARK  5 active torsions:
REMARK  status: ('A' for Active; 'I' for Inactive)
REMARK    1  A    between atoms: C_1  and  C_15
REMARK    2  A    between atoms: C_2  and  C_7
REMARK    3  A    between atoms: C_10  and  O_13
REMARK    4  A    between atoms: C_15  and  C_16
REMARK    5  A    between atoms: C_16  and  C_18
REMARK                            x       y       z     vdW  Elec       q    Type
REMARK                         _______ _______ _______ _____ _____    ______ ____
ROOT
ATOM      1  C   UNL     1      35.017 -16.542 -22.244  0.00  0.00    -0.022 C 
ATOM      2  C   UNL     1      33.935 -14.576 -23.138  0.00  0.00    -0.000 C 
ATOM      3  C   UNL     1      34.535 -15.245 -22.071  0.00  0.00    -0.004 C 
ATOM      4  C   UNL     1      34.897 -17.172 -23.483  0.00  0.00    -0.004 C 
ATOM      5  C   UNL     1      33.815 -15.205 -24.377  0.00  0.00    -0.000 C 
ATOM      6  C   UNL     1      34.296 -16.503 -24.550  0.00  0.00    -0.000 C 
ENDROOT
BRANCH   2   7
ATOM      7  C   UNL     1      33.436 -13.229 -22.960  0.00  0.00    +0.003 C 
ATOM      8  C   UNL     1      32.513 -12.955 -21.952  0.00  0.00    +0.037 C 
ATOM      9  C   UNL     1      33.881 -12.205 -23.795  0.00  0.00    +0.000 C 
ATOM     10  C   UNL     1      32.034 -11.656 -21.779  0.00  0.00    +0.139 C 
ATOM     11  C   UNL     1      33.402 -10.907 -23.624  0.00  0.00    +0.003 C 
ATOM     12  C   UNL     1      32.478 -10.632 -22.615  0.00  0.00    +0.037 C 
BRANCH  10  13
ATOM     13  O   UNL     1      31.132 -11.388 -20.794  0.00  0.00    -0.471 OA
ATOM     14  C   UNL     1      31.457 -10.340 -19.884  0.00  0.00    +0.252 C 
ENDBRANCH  10  13
ENDBRANCH   2   7
BRANCH   1  15
ATOM     15  C   UNL     1      35.659 -17.258 -21.103  0.00  0.00    +0.034 C 
BRANCH  15  16
ATOM     16  C   UNL     1      36.198 -18.657 -21.464  0.00  0.00    +0.064 C 
BRANCH  16  18
ATOM     17  N   UNL     1      34.326 -19.895 -20.553  0.00  0.00    -0.396 NA
ATOM     18  C   UNL     1      35.662 -19.749 -20.569  0.00  0.00    +0.110 C 
ATOM     19  C   UNL     1      36.555 -20.506 -19.843  0.00  0.00    +0.023 C 
ATOM     20  C   UNL     1      36.029 -21.503 -19.028  0.00  0.00    -0.015 C 
ATOM     21  C   UNL     1      33.852 -20.872 -19.751  0.00  0.00    +0.158 C 
ATOM     22  C   UNL     1      34.653 -21.697 -18.976  0.00  0.00    +0.100 C 
ATOM     23  N   UNL     1      32.452 -21.083 -19.687  0.00  0.00    -0.336 N 
ATOM     24  H   UNL     1      31.845 -20.521 -20.220  0.00  0.00    +0.144 HD
ATOM     25  H   UNL     1      32.087 -21.791 -19.107  0.00  0.00    +0.144 HD
ENDBRANCH  16  18
ENDBRANCH  15  16
ENDBRANCH   1  15
TORSDOF 5
ENDMDL
MODEL 6
REMARK VINA RESULT:     -10.7      3.224      6.265
REMARK  Name = 11659487
REMARK  5 active torsions:
REMARK  status: ('A' for Active; 'I' for Inactive)
REMARK    1  A    between atoms: C_1  and  C_15
REMARK    2  A    between atoms: C_2  and  C_7
REMARK    3  A    between atoms: C_10  and  O_13
REMARK    4  A    between atoms: C_15  and  C_16
REMARK    5  A    between atoms: C_16  and  C_18
REMARK                            x       y       z     vdW  Elec       q    Type
REMARK                         _______ _______ _______ _____ _____    ______ ____
ROOT
ATOM      1  C   UNL     1      35.041 -16.509 -22.223  0.00  0.00    -0.022 C 
ATOM      2  C   UNL     1      33.874 -14.540 -22.999  0.00  0.00    -0.000 C 
ATOM      3  C   UNL     1      34.501 -15.248 -21.972  0.00  0.00    -0.004 C 
ATOM      4  C   UNL     1      34.952 -17.064 -23.500  0.00  0.00    -0.004 C 
ATOM      5  C   UNL     1      33.786 -15.095 -24.275  0.00  0.00    -0.000 C 
ATOM      6  C   UNL     1      34.324 -16.357 -24.526  0.00  0.00    -0.000 C 
ENDROOT
BRANCH   2   7
ATOM      7  C   UNL     1      33.316 -13.231 -22.739  0.00  0.00    +0.003 C 
ATOM      8  C   UNL     1      33.684 -12.146 -23.533  0.00  0.00    +0.037 C 
ATOM      9  C   UNL     1      32.408 -13.055 -21.695  0.00  0.00    +0.000 C 
ATOM     10  C   UNL     1      33.145 -10.884 -23.283  0.00  0.00    +0.139 C 
ATOM     11  C   UNL     1      31.869 -11.793 -21.444  0.00  0.00    +0.003 C 
ATOM     12  C   UNL     1      32.237 -10.707 -22.239  0.00  0.00    +0.037 C 
BRANCH  10  13
ATOM     13  O   UNL     1      33.504  -9.823 -24.059  0.00  0.00    -0.471 OA
ATOM     14  C   UNL     1      34.852  -9.369 -23.954  0.00  0.00    +0.252 C 
ENDBRANCH  10  13
ENDBRANCH   2   7
BRANCH   1  15
ATOM     15  C   UNL     1      35.711 -17.265 -21.127  0.00  0.00    +0.034 C 
BRANCH  15  16
ATOM     16  C   UNL     1      36.169 -18.681 -21.530  0.00  0.00    +0.064 C 
BRANCH  16  18
ATOM     17  N   UNL     1      34.304 -19.904 -20.586  0.00  0.00    -0.396 NA
ATOM     18  C   UNL     1      35.640 -19.760 -20.615  0.00  0.00    +0.110 C 
ATOM     19  C   UNL     1      36.538 -20.508 -19.886  0.00  0.00    +0.023 C 
ATOM     20  C   UNL     1      36.019 -21.493 -19.053  0.00  0.00    -0.015 C 
ATOM     21  C   UNL     1      33.836 -20.870 -19.765  0.00  0.00    +0.158 C 
ATOM     22  C   UNL     1      34.643 -21.684 -18.986  0.00  0.00    +0.100 C 
ATOM     23  N   UNL     1      32.436 -21.078 -19.686  0.00  0.00    -0.336 N 
ATOM     24  H   UNL     1      31.826 -20.523 -20.221  0.00  0.00    +0.144 HD
ATOM     25  H   UNL     1      32.075 -21.777 -19.093  0.00  0.00    +0.144 HD
ENDBRANCH  16  18
ENDBRANCH  15  16
ENDBRANCH   1  15
TORSDOF 5
ENDMDL
MODEL 7
REMARK VINA RESULT:     -10.7      3.794      8.378
REMARK  Name = 11659487
REMARK  5 active torsions:
REMARK  status: ('A' for Active; 'I' for Inactive)
REMARK    1  A    between atoms: C_1  and  C_15
REMARK    2  A    between atoms: C_2  and  C_7
REMARK    3  A    between atoms: C_10  and  O_13
REMARK    4  A    between atoms: C_15  and  C_16
REMARK    5  A    between atoms: C_16  and  C_18
REMARK                            x       y       z     vdW  Elec       q    Type
REMARK                         _______ _______ _______ _____ _____    ______ ____
ROOT
ATOM      1  C   UNL     1      35.286 -18.941 -22.277  0.00  0.00    -0.022 C 
ATOM      2  C   UNL     1      35.712 -20.192 -20.254  0.00  0.00    -0.000 C 
ATOM      3  C   UNL     1      34.839 -19.792 -21.267  0.00  0.00    -0.004 C 
ATOM      4  C   UNL     1      36.606 -18.487 -22.273  0.00  0.00    -0.004 C 
ATOM      5  C   UNL     1      37.031 -19.739 -20.250  0.00  0.00    -0.000 C 
ATOM      6  C   UNL     1      37.478 -18.886 -21.260  0.00  0.00    -0.000 C 
ENDROOT
BRANCH   2   7
ATOM      7  C   UNL     1      35.249 -21.076 -19.207  0.00  0.00    +0.003 C 
ATOM      8  C   UNL     1      33.893 -21.387 -19.105  0.00  0.00    +0.037 C 
ATOM      9  C   UNL     1      36.158 -21.620 -18.300  0.00  0.00    +0.000 C 
ATOM     10  C   UNL     1      33.447 -22.241 -18.096  0.00  0.00    +0.139 C 
ATOM     11  C   UNL     1      35.712 -22.473 -17.291  0.00  0.00    +0.003 C 
ATOM     12  C   UNL     1      34.356 -22.784 -17.189  0.00  0.00    +0.037 C 
BRANCH  10  13
ATOM     13  O   UNL     1      32.123 -22.544 -17.997  0.00  0.00    -0.471 OA
ATOM     14  C   UNL     1      31.622 -22.850 -16.697  0.00  0.00    +0.252 C 
ENDBRANCH  10  13
ENDBRANCH   2   7
BRANCH   1  15
ATOM     15  C   UNL     1      34.354 -18.514 -23.360  0.00  0.00    +0.034 C 
BRANCH  15  16
ATOM     16  C   UNL     1      34.880 -17.343 -24.214  0.00  0.00    +0.064 C 
BRANCH  16  18
ATOM     17  N   UNL     1      34.633 -15.707 -22.446  0.00  0.00    -0.396 NA
ATOM     18  C   UNL     1      34.396 -15.995 -23.738  0.00  0.00    +0.110 C 
ATOM     19  C   UNL     1      33.757 -15.167 -24.634  0.00  0.00    +0.023 C 
ATOM     20  C   UNL     1      33.323 -13.932 -24.163  0.00  0.00    -0.015 C 
ATOM     21  C   UNL     1      34.197 -14.500 -22.024  0.00  0.00    +0.158 C 
ATOM     22  C   UNL     1      33.543 -13.584 -22.835  0.00  0.00    +0.100 C 
ATOM     23  N   UNL     1      34.415 -14.130 -20.674  0.00  0.00    -0.336 N 
ATOM     24  H   UNL     1      34.874 -14.749 -20.063  0.00  0.00    +0.144 HD
ATOM     25  H   UNL     1      34.104 -13.254 -20.347  0.00  0.00    +0.144 HD
ENDBRANCH  16  18
ENDBRANCH  15  16
ENDBRANCH   1  15
TORSDOF 5
ENDMDL
MODEL 8
REMARK VINA RESULT:     -10.5      3.547      8.370
REMARK  Name = 11659487
REMARK  5 active torsions:
REMARK  status: ('A' for Active; 'I' for Inactive)
REMARK    1  A    between atoms: C_1  and  C_15
REMARK    2  A    between atoms: C_2  and  C_7
REMARK    3  A    between atoms: C_10  and  O_13
REMARK    4  A    between atoms: C_15  and  C_16
REMARK    5  A    between atoms: C_16  and  C_18
REMARK                            x       y       z     vdW  Elec       q    Type
REMARK                         _______ _______ _______ _____ _____    ______ ____
ROOT
ATOM      1  C   UNL     1      35.652 -22.019 -18.012  0.00  0.00    -0.022 C 
ATOM      2  C   UNL     1      34.208 -22.853 -16.263  0.00  0.00    -0.000 C 
ATOM      3  C   UNL     1      34.380 -22.372 -17.562  0.00  0.00    -0.004 C 
ATOM      4  C   UNL     1      36.752 -22.146 -17.164  0.00  0.00    -0.004 C 
ATOM      5  C   UNL     1      35.308 -22.980 -15.415  0.00  0.00    -0.000 C 
ATOM      6  C   UNL     1      36.580 -22.626 -15.865  0.00  0.00    -0.000 C 
ENDROOT
BRANCH   2   7
ATOM      7  C   UNL     1      32.889 -23.220 -15.797  0.00  0.00    +0.003 C 
ATOM      8  C   UNL     1      31.759 -22.806 -16.502  0.00  0.00    +0.037 C 
ATOM      9  C   UNL     1      32.747 -23.991 -14.643  0.00  0.00    +0.000 C 
ATOM     10  C   UNL     1      30.487 -23.160 -16.052  0.00  0.00    +0.139 C 
ATOM     11  C   UNL     1      31.476 -24.346 -14.193  0.00  0.00    +0.003 C 
ATOM     12  C   UNL     1      30.345 -23.931 -14.898  0.00  0.00    +0.037 C 
BRANCH  10  13
ATOM     13  O   UNL     1      29.384 -22.756 -16.740  0.00  0.00    -0.471 OA
ATOM     14  C   UNL     1      28.116 -23.167 -16.234  0.00  0.00    +0.252 C 
ENDBRANCH  10  13
ENDBRANCH   2   7
BRANCH   1  15
ATOM     15  C   UNL     1      35.837 -21.505 -19.400  0.00  0.00    +0.034 C 
BRANCH  15  16
ATOM     16  C   UNL     1      34.617 -20.742 -19.954  0.00  0.00    +0.064 C 
BRANCH  16  18
ATOM     17  N   UNL     1      34.192 -19.747 -22.122  0.00  0.00    -0.396 NA
ATOM     18  C   UNL     1      34.978 -19.746 -21.030  0.00  0.00    +0.110 C 
ATOM     19  C   UNL     1      36.063 -18.921 -20.831  0.00  0.00    +0.023 C 
ATOM     20  C   UNL     1      36.368 -18.015 -21.841  0.00  0.00    -0.015 C 
ATOM     21  C   UNL     1      34.520 -18.855 -23.081  0.00  0.00    +0.158 C 
ATOM     22  C   UNL     1      35.588 -17.975 -22.991  0.00  0.00    +0.100 C 
ATOM     23  N   UNL     1      33.733 -18.800 -24.259  0.00  0.00    -0.336 N 
ATOM     24  H   UNL     1      32.966 -19.407 -24.366  0.00  0.00    +0.144 HD
ATOM     25  H   UNL     1      33.956 -18.157 -24.970  0.00  0.00    +0.144 HD
ENDBRANCH  16  18
ENDBRANCH  15  16
ENDBRANCH   1  15
TORSDOF 5
ENDMDL
MODEL 9
REMARK VINA RESULT:     -10.5      5.586      9.642
REMARK  Name = 11659487
REMARK  5 active torsions:
REMARK  status: ('A' for Active; 'I' for Inactive)
REMARK    1  A    between atoms: C_1  and  C_15
REMARK    2  A    between atoms: C_2  and  C_7
REMARK    3  A    between atoms: C_10  and  O_13
REMARK    4  A    between atoms: C_15  and  C_16
REMARK    5  A    between atoms: C_16  and  C_18
REMARK                            x       y       z     vdW  Elec       q    Type
REMARK                         _______ _______ _______ _____ _____    ______ ____
ROOT
ATOM      1  C   UNL     1      33.588 -13.456 -24.036  0.00  0.00    -0.022 C 
ATOM      2  C   UNL     1      33.665 -11.047 -24.204  0.00  0.00    -0.000 C 
ATOM      3  C   UNL     1      33.715 -12.207 -23.429  0.00  0.00    -0.004 C 
ATOM      4  C   UNL     1      33.410 -13.546 -25.417  0.00  0.00    -0.004 C 
ATOM      5  C   UNL     1      33.487 -11.136 -25.584  0.00  0.00    -0.000 C 
ATOM      6  C   UNL     1      33.359 -12.386 -26.190  0.00  0.00    -0.000 C 
ENDROOT
BRANCH   2   7
ATOM      7  C   UNL     1      33.798  -9.751 -23.574  0.00  0.00    +0.003 C 
ATOM      8  C   UNL     1      32.871  -9.342 -22.616  0.00  0.00    +0.037 C 
ATOM      9  C   UNL     1      34.855  -8.911 -23.924  0.00  0.00    +0.000 C 
ATOM     10  C   UNL     1      33.000  -8.093 -22.009  0.00  0.00    +0.139 C 
ATOM     11  C   UNL     1      34.984  -7.662 -23.318  0.00  0.00    +0.003 C 
ATOM     12  C   UNL     1      34.056  -7.253 -22.359  0.00  0.00    +0.037 C 
BRANCH  10  13
ATOM     13  O   UNL     1      32.094  -7.693 -21.074  0.00  0.00    -0.471 OA
ATOM     14  C   UNL     1      32.610  -7.159 -19.856  0.00  0.00    +0.252 C 
ENDBRANCH  10  13
ENDBRANCH   2   7
BRANCH   1  15
ATOM     15  C   UNL     1      33.642 -14.696 -23.209  0.00  0.00    +0.034 C 
BRANCH  15  16
ATOM     16  C   UNL     1      35.024 -15.379 -23.191  0.00  0.00    +0.064 C 
BRANCH  16  18
ATOM     17  N   UNL     1      35.424 -17.363 -21.860  0.00  0.00    -0.396 NA
ATOM     18  C   UNL     1      34.944 -16.877 -23.019  0.00  0.00    +0.110 C 
ATOM     19  C   UNL     1      34.400 -17.632 -24.034  0.00  0.00    +0.023 C 
ATOM     20  C   UNL     1      34.341 -19.009 -23.843  0.00  0.00    -0.015 C 
ATOM     21  C   UNL     1      35.351 -18.703 -21.711  0.00  0.00    +0.158 C 
ATOM     22  C   UNL     1      34.823 -19.562 -22.663  0.00  0.00    +0.100 C 
ATOM     23  N   UNL     1      35.837 -19.283 -20.513  0.00  0.00    -0.336 N 
ATOM     24  H   UNL     1      36.220 -18.711 -19.810  0.00  0.00    +0.144 HD
ATOM     25  H   UNL     1      35.793 -20.259 -20.385  0.00  0.00    +0.144 HD
ENDBRANCH  16  18
ENDBRANCH  15  16
ENDBRANCH   1  15
TORSDOF 5
ENDMDL
