MODEL 1
REMARK VINA RESULT:     -12.2      0.000      0.000
REMARK  Name = 5291
REMARK  6 active torsions:
REMARK  status: ('A' for Active; 'I' for Inactive)
REMARK    1  A    between atoms: C_1  and  N_23
REMARK    2  A    between atoms: C_2  and  N_8
REMARK    3  A    between atoms: C_12  and  C_17
REMARK    4  A    between atoms: C_24  and  C_31
REMARK    5  A    between atoms: C_26  and  C_32
REMARK    6  A    between atoms: C_32  and  N_33
REMARK                            x       y       z     vdW  Elec       q    Type
REMARK                         _______ _______ _______ _____ _____    ______ ____
ROOT
ATOM      1  C   UNL     1      32.703 -22.880 -16.206  0.00  0.00    +0.052 C 
ATOM      2  C   UNL     1      32.731 -23.639 -13.933  0.00  0.00    +0.055 C 
ATOM      3  C   UNL     1      33.316 -22.908 -14.965  0.00  0.00    +0.030 C 
ATOM      4  C   UNL     1      31.541 -24.332 -14.156  0.00  0.00    -0.008 C 
ATOM      5  C   UNL     1      31.522 -23.562 -16.445  0.00  0.00    +0.014 C 
ATOM      6  C   UNL     1      30.937 -24.294 -15.412  0.00  0.00    -0.002 C 
ATOM      7  C   UNL     1      30.893 -25.125 -13.068  0.00  0.00    +0.032 C 
ENDROOT
BRANCH   2   8
ATOM      8  N   UNL     1      33.355 -23.668 -12.666  0.00  0.00    -0.248 N 
ATOM      9  N   UNL     1      35.358 -24.792 -13.149  0.00  0.00    -0.337 NA
ATOM     10  N   UNL     1      34.871 -24.038 -10.913  0.00  0.00    -0.170 NA
ATOM     11  C   UNL     1      34.585 -24.189 -12.222  0.00  0.00    +0.149 C 
ATOM     12  C   UNL     1      36.528 -25.281 -12.691  0.00  0.00    +0.147 C 
ATOM     13  C   UNL     1      36.935 -25.188 -11.375  0.00  0.00    +0.055 C 
ATOM     14  C   UNL     1      36.057 -24.551 -10.522  0.00  0.00    +0.114 C 
ATOM     15  H   UNL     1      32.828 -23.238 -11.955  0.00  0.00    +0.165 HD
BRANCH  12  17
ATOM     16  N   UNL     1      37.509 -27.180 -15.745  0.00  0.00    -0.242 NA
ATOM     17  C   UNL     1      37.355 -25.924 -13.683  0.00  0.00    +0.050 C 
ATOM     18  C   UNL     1      38.742 -25.926 -13.571  0.00  0.00    +0.006 C 
ATOM     19  C   UNL     1      36.794 -26.559 -14.779  0.00  0.00    +0.101 C 
ATOM     20  C   UNL     1      39.512 -26.554 -14.543  0.00  0.00    +0.021 C 
ATOM     21  C   UNL     1      38.853 -27.160 -15.600  0.00  0.00    +0.099 C 
ENDBRANCH  12  17
ENDBRANCH   2   8
BRANCH   1  23
ATOM     22  O   UNL     1      33.857 -23.794 -18.818  0.00  0.00    -0.270 OA
ATOM     23  N   UNL     1      33.296 -22.136 -17.255  0.00  0.00    -0.280 N 
ATOM     24  C   UNL     1      33.826 -22.604 -18.466  0.00  0.00    +0.249 C 
ATOM     25  H   UNL     1      33.343 -21.163 -17.116  0.00  0.00    +0.155 HD
BRANCH  24  31
ATOM     26  C   UNL     1      35.492 -19.662 -21.008  0.00  0.00    -0.043 C 
ATOM     27  C   UNL     1      36.329 -20.421 -20.203  0.00  0.00    -0.006 C 
ATOM     28  C   UNL     1      34.117 -19.853 -20.993  0.00  0.00    -0.006 C 
ATOM     29  C   UNL     1      35.779 -21.392 -19.365  0.00  0.00    +0.004 C 
ATOM     30  C   UNL     1      33.568 -20.823 -20.155  0.00  0.00    +0.004 C 
ATOM     31  C   UNL     1      34.399 -21.593 -19.341  0.00  0.00    +0.054 C 
BRANCH  26  32
ATOM     32  C   UNL     1      36.084 -18.615 -21.913  0.00  0.00    -0.050 C 
BRANCH  32  33
ATOM     33  N   UNL     1      35.115 -17.571 -22.246  0.00  0.00    +0.387 N 
ATOM     34  N   UNL     1      34.378 -14.975 -23.284  0.00  0.00    +0.383 N 
ATOM     35  C   UNL     1      35.117 -17.299 -23.688  0.00  0.00    -0.100 C 
ATOM     36  C   UNL     1      35.393 -16.343 -21.492  0.00  0.00    -0.100 C 
ATOM     37  C   UNL     1      34.102 -16.205 -24.037  0.00  0.00    -0.101 C 
ATOM     38  C   UNL     1      34.379 -15.247 -21.841  0.00  0.00    -0.101 C 
ATOM     39  C   UNL     1      33.408 -13.934 -23.615  0.00  0.00    -0.101 C 
ATOM     40  H   UNL     1      34.189 -17.908 -21.983  0.00  0.00    -0.079 HD
ATOM     41  H   UNL     1      35.304 -14.638 -23.547  0.00  0.00    -0.080 HD
ENDBRANCH  32  33
ENDBRANCH  26  32
ENDBRANCH  24  31
ENDBRANCH   1  23
TORSDOF 6
ENDMDL
MODEL 2
REMARK VINA RESULT:     -11.2      1.615      1.908
REMARK  Name = 5291
REMARK  6 active torsions:
REMARK  status: ('A' for Active; 'I' for Inactive)
REMARK    1  A    between atoms: C_1  and  N_23
REMARK    2  A    between atoms: C_2  and  N_8
REMARK    3  A    between atoms: C_12  and  C_17
REMARK    4  A    between atoms: C_24  and  C_31
REMARK    5  A    between atoms: C_26  and  C_32
REMARK    6  A    between atoms: C_32  and  N_33
REMARK                            x       y       z     vdW  Elec       q    Type
REMARK                         _______ _______ _______ _____ _____    ______ ____
ROOT
ATOM      1  C   UNL     1      34.108 -22.636 -17.035  0.00  0.00    +0.052 C 
ATOM      2  C   UNL     1      34.459 -23.188 -14.728  0.00  0.00    +0.055 C 
ATOM      3  C   UNL     1      34.763 -22.401 -15.837  0.00  0.00    +0.030 C 
ATOM      4  C   UNL     1      33.505 -24.201 -14.832  0.00  0.00    -0.008 C 
ATOM      5  C   UNL     1      33.159 -23.636 -17.155  0.00  0.00    +0.014 C 
ATOM      6  C   UNL     1      32.856 -24.425 -16.046  0.00  0.00    -0.002 C 
ATOM      7  C   UNL     1      33.161 -25.061 -13.660  0.00  0.00    +0.032 C 
ENDROOT
BRANCH   2   8
ATOM      8  N   UNL     1      35.126 -22.948 -13.506  0.00  0.00    -0.248 N 
ATOM      9  N   UNL     1      37.007 -24.336 -13.712  0.00  0.00    -0.337 NA
ATOM     10  N   UNL     1      36.669 -22.994 -11.739  0.00  0.00    -0.170 NA
ATOM     11  C   UNL     1      36.322 -23.449 -12.961  0.00  0.00    +0.149 C 
ATOM     12  C   UNL     1      38.148 -24.796 -13.159  0.00  0.00    +0.147 C 
ATOM     13  C   UNL     1      38.610 -24.407 -11.918  0.00  0.00    +0.055 C 
ATOM     14  C   UNL     1      37.822 -23.495 -11.246  0.00  0.00    +0.114 C 
ATOM     15  H   UNL     1      34.663 -22.304 -12.923  0.00  0.00    +0.165 HD
BRANCH  12  17
ATOM     16  N   UNL     1      41.012 -26.633 -14.681  0.00  0.00    -0.242 NA
ATOM     17  C   UNL     1      38.880 -25.744 -13.963  0.00  0.00    +0.050 C 
ATOM     18  C   UNL     1      38.218 -26.661 -14.775  0.00  0.00    +0.006 C 
ATOM     19  C   UNL     1      40.266 -25.772 -13.953  0.00  0.00    +0.101 C 
ATOM     20  C   UNL     1      38.951 -27.562 -15.538  0.00  0.00    +0.021 C 
ATOM     21  C   UNL     1      40.333 -27.508 -15.456  0.00  0.00    +0.099 C 
ENDBRANCH  12  17
ENDBRANCH   2   8
BRANCH   1  23
ATOM     22  O   UNL     1      36.763 -21.832 -18.174  0.00  0.00    -0.270 OA
ATOM     23  N   UNL     1      34.416 -21.835 -18.161  0.00  0.00    -0.280 N 
ATOM     24  C   UNL     1      35.677 -21.481 -18.663  0.00  0.00    +0.249 C 
ATOM     25  H   UNL     1      33.644 -21.480 -18.657  0.00  0.00    +0.155 HD
BRANCH  24  31
ATOM     26  C   UNL     1      35.672 -18.959 -22.058  0.00  0.00    -0.043 C 
ATOM     27  C   UNL     1      36.826 -19.076 -21.296  0.00  0.00    -0.006 C 
ATOM     28  C   UNL     1      34.520 -19.656 -21.723  0.00  0.00    -0.006 C 
ATOM     29  C   UNL     1      36.828 -19.908 -20.177  0.00  0.00    +0.004 C 
ATOM     30  C   UNL     1      34.522 -20.488 -20.604  0.00  0.00    +0.004 C 
ATOM     31  C   UNL     1      35.675 -20.615 -19.831  0.00  0.00    +0.054 C 
BRANCH  26  32
ATOM     32  C   UNL     1      35.670 -18.061 -23.267  0.00  0.00    -0.050 C 
BRANCH  32  33
ATOM     33  N   UNL     1      34.756 -16.931 -23.105  0.00  0.00    +0.387 N 
ATOM     34  N   UNL     1      34.107 -14.114 -23.153  0.00  0.00    +0.383 N 
ATOM     35  C   UNL     1      34.589 -16.210 -24.372  0.00  0.00    -0.100 C 
ATOM     36  C   UNL     1      35.232 -16.022 -22.056  0.00  0.00    -0.100 C 
ATOM     37  C   UNL     1      33.631 -15.025 -24.202  0.00  0.00    -0.101 C 
ATOM     38  C   UNL     1      34.276 -14.836 -21.885  0.00  0.00    -0.101 C 
ATOM     39  C   UNL     1      33.192 -12.987 -22.991  0.00  0.00    -0.101 C 
ATOM     40  H   UNL     1      33.848 -17.301 -22.823  0.00  0.00    -0.079 HD
ATOM     41  H   UNL     1      35.014 -13.745 -23.435  0.00  0.00    -0.080 HD
ENDBRANCH  32  33
ENDBRANCH  26  32
ENDBRANCH  24  31
ENDBRANCH   1  23
TORSDOF 6
ENDMDL
MODEL 3
REMARK VINA RESULT:      -9.9      2.333      5.511
REMARK  Name = 5291
REMARK  6 active torsions:
REMARK  status: ('A' for Active; 'I' for Inactive)
REMARK    1  A    between atoms: C_1  and  N_23
REMARK    2  A    between atoms: C_2  and  N_8
REMARK    3  A    between atoms: C_12  and  C_17
REMARK    4  A    between atoms: C_24  and  C_31
REMARK    5  A    between atoms: C_26  and  C_32
REMARK    6  A    between atoms: C_32  and  N_33
REMARK                            x       y       z     vdW  Elec       q    Type
REMARK                         _______ _______ _______ _____ _____    ______ ____
ROOT
ATOM      1  C   UNL     1      34.283 -20.305 -20.129  0.00  0.00    +0.052 C 
ATOM      2  C   UNL     1      33.172 -21.844 -18.665  0.00  0.00    +0.055 C 
ATOM      3  C   UNL     1      33.133 -20.707 -19.470  0.00  0.00    +0.030 C 
ATOM      4  C   UNL     1      34.360 -22.563 -18.530  0.00  0.00    -0.008 C 
ATOM      5  C   UNL     1      35.470 -21.006 -20.006  0.00  0.00    +0.014 C 
ATOM      6  C   UNL     1      35.509 -22.143 -19.199  0.00  0.00    -0.002 C 
ATOM      7  C   UNL     1      34.431 -23.785 -17.672  0.00  0.00    +0.032 C 
ENDROOT
BRANCH   2   8
ATOM      8  N   UNL     1      32.000 -22.257 -17.994  0.00  0.00    -0.248 N 
ATOM      9  N   UNL     1      32.858 -22.942 -15.919  0.00  0.00    -0.337 NA
ATOM     10  N   UNL     1      30.497 -23.073 -16.386  0.00  0.00    -0.170 NA
ATOM     11  C   UNL     1      31.774 -22.781 -16.707  0.00  0.00    +0.149 C 
ATOM     12  C   UNL     1      32.607 -23.447 -14.694  0.00  0.00    +0.147 C 
ATOM     13  C   UNL     1      31.345 -23.784 -14.248  0.00  0.00    +0.055 C 
ATOM     14  C   UNL     1      30.318 -23.574 -15.146  0.00  0.00    +0.114 C 
ATOM     15  H   UNL     1      31.180 -22.157 -18.530  0.00  0.00    +0.165 HD
BRANCH  12  17
ATOM     16  N   UNL     1      34.707 -24.403 -11.767  0.00  0.00    -0.242 NA
ATOM     17  C   UNL     1      33.766 -23.618 -13.852  0.00  0.00    +0.050 C 
ATOM     18  C   UNL     1      35.024 -23.191 -14.266  0.00  0.00    +0.006 C 
ATOM     19  C   UNL     1      33.663 -24.212 -12.604  0.00  0.00    +0.101 C 
ATOM     20  C   UNL     1      36.121 -23.369 -13.433  0.00  0.00    +0.021 C 
ATOM     21  C   UNL     1      35.912 -23.975 -12.204  0.00  0.00    +0.099 C 
ENDBRANCH  12  17
ENDBRANCH   2   8
BRANCH   1  23
ATOM     22  O   UNL     1      36.495 -18.851 -21.538  0.00  0.00    -0.270 OA
ATOM     23  N   UNL     1      34.243 -19.150 -20.948  0.00  0.00    -0.280 N 
ATOM     24  C   UNL     1      35.305 -18.499 -21.592  0.00  0.00    +0.249 C 
ATOM     25  H   UNL     1      33.353 -18.752 -21.083  0.00  0.00    +0.155 HD
BRANCH  24  31
ATOM     26  C   UNL     1      34.281 -15.036 -23.793  0.00  0.00    -0.043 C 
ATOM     27  C   UNL     1      34.564 -14.925 -22.440  0.00  0.00    -0.006 C 
ATOM     28  C   UNL     1      34.328 -16.265 -24.436  0.00  0.00    -0.006 C 
ATOM     29  C   UNL     1      34.903 -16.067 -21.714  0.00  0.00    +0.004 C 
ATOM     30  C   UNL     1      34.667 -17.407 -23.710  0.00  0.00    +0.004 C 
ATOM     31  C   UNL     1      34.954 -17.308 -22.349  0.00  0.00    +0.054 C 
BRANCH  26  32
ATOM     32  C   UNL     1      33.916 -13.803 -24.578  0.00  0.00    -0.050 C 
BRANCH  32  33
ATOM     33  N   UNL     1      33.763 -12.633 -23.715  0.00  0.00    +0.387 N 
ATOM     34  N   UNL     1      32.446 -10.196 -22.887  0.00  0.00    +0.383 N 
ATOM     35  C   UNL     1      32.471 -12.664 -23.019  0.00  0.00    -0.100 C 
ATOM     36  C   UNL     1      33.900 -11.394 -24.488  0.00  0.00    -0.100 C 
ATOM     37  C   UNL     1      32.310 -11.437 -22.115  0.00  0.00    -0.101 C 
ATOM     38  C   UNL     1      33.738 -10.166 -23.585  0.00  0.00    -0.101 C 
ATOM     39  C   UNL     1      32.295  -9.028 -22.023  0.00  0.00    -0.101 C 
ATOM     40  H   UNL     1      34.505 -12.660 -23.016  0.00  0.00    -0.079 HD
ATOM     41  H   UNL     1      31.704 -10.169 -23.586  0.00  0.00    -0.080 HD
ENDBRANCH  32  33
ENDBRANCH  26  32
ENDBRANCH  24  31
ENDBRANCH   1  23
TORSDOF 6
ENDMDL
MODEL 4
REMARK VINA RESULT:      -9.6      5.588     15.502
REMARK  Name = 5291
REMARK  6 active torsions:
REMARK  status: ('A' for Active; 'I' for Inactive)
REMARK    1  A    between atoms: C_1  and  N_23
REMARK    2  A    between atoms: C_2  and  N_8
REMARK    3  A    between atoms: C_12  and  C_17
REMARK    4  A    between atoms: C_24  and  C_31
REMARK    5  A    between atoms: C_26  and  C_32
REMARK    6  A    between atoms: C_32  and  N_33
REMARK                            x       y       z     vdW  Elec       q    Type
REMARK                         _______ _______ _______ _____ _____    ______ ____
ROOT
ATOM      1  C   UNL     1      33.798 -12.690 -23.257  0.00  0.00    +0.052 C 
ATOM      2  C   UNL     1      32.872 -10.555 -22.681  0.00  0.00    +0.055 C 
ATOM      3  C   UNL     1      33.351 -11.805 -22.291  0.00  0.00    +0.030 C 
ATOM      4  C   UNL     1      32.845 -10.209 -24.032  0.00  0.00    -0.008 C 
ATOM      5  C   UNL     1      33.779 -12.363 -24.602  0.00  0.00    +0.014 C 
ATOM      6  C   UNL     1      33.298 -11.113 -24.993  0.00  0.00    -0.002 C 
ATOM      7  C   UNL     1      32.335  -8.878 -24.479  0.00  0.00    +0.032 C 
ENDROOT
BRANCH   2   8
ATOM      8  N   UNL     1      32.417  -9.651 -21.696  0.00  0.00    -0.248 N 
ATOM      9  N   UNL     1      32.960  -7.583 -22.665  0.00  0.00    -0.337 NA
ATOM     10  N   UNL     1      31.895  -7.696 -20.506  0.00  0.00    -0.170 NA
ATOM     11  C   UNL     1      32.424  -8.246 -21.619  0.00  0.00    +0.149 C 
ATOM     12  C   UNL     1      32.953  -6.238 -22.558  0.00  0.00    +0.147 C 
ATOM     13  C   UNL     1      32.440  -5.559 -21.471  0.00  0.00    +0.055 C 
ATOM     14  C   UNL     1      31.920  -6.347 -20.465  0.00  0.00    +0.114 C 
ATOM     15  H   UNL     1      32.015 -10.088 -20.912  0.00  0.00    +0.165 HD
BRANCH  12  17
ATOM     16  N   UNL     1      33.393  -3.697 -25.248  0.00  0.00    -0.242 NA
ATOM     17  C   UNL     1      33.526  -5.531 -23.677  0.00  0.00    +0.050 C 
ATOM     18  C   UNL     1      34.714  -5.956 -24.264  0.00  0.00    +0.006 C 
ATOM     19  C   UNL     1      32.911  -4.406 -24.203  0.00  0.00    +0.101 C 
ATOM     20  C   UNL     1      35.241  -5.253 -25.341  0.00  0.00    +0.021 C 
ATOM     21  C   UNL     1      34.549  -4.141 -25.791  0.00  0.00    +0.099 C 
ENDBRANCH  12  17
ENDBRANCH   2   8
BRANCH   1  23
ATOM     22  O   UNL     1      33.596 -15.356 -24.616  0.00  0.00    -0.270 OA
ATOM     23  N   UNL     1      34.287 -13.958 -22.861  0.00  0.00    -0.280 N 
ATOM     24  C   UNL     1      34.171 -15.187 -23.528  0.00  0.00    +0.249 C 
ATOM     25  H   UNL     1      34.771 -13.982 -22.004  0.00  0.00    +0.155 HD
BRANCH  24  31
ATOM     26  C   UNL     1      35.872 -18.525 -21.566  0.00  0.00    -0.043 C 
ATOM     27  C   UNL     1      35.547 -18.617 -22.912  0.00  0.00    -0.006 C 
ATOM     28  C   UNL     1      35.647 -17.355 -20.854  0.00  0.00    -0.006 C 
ATOM     29  C   UNL     1      34.987 -17.516 -23.559  0.00  0.00    +0.004 C 
ATOM     30  C   UNL     1      35.087 -16.254 -21.501  0.00  0.00    +0.004 C 
ATOM     31  C   UNL     1      34.757 -16.334 -22.853  0.00  0.00    +0.054 C 
BRANCH  26  32
ATOM     32  C   UNL     1      36.478 -19.713 -20.867  0.00  0.00    -0.050 C 
BRANCH  32  33
ATOM     33  N   UNL     1      35.595 -20.243 -19.828  0.00  0.00    +0.387 N 
ATOM     34  N   UNL     1      33.919 -22.294 -18.670  0.00  0.00    +0.383 N 
ATOM     35  C   UNL     1      36.175 -21.443 -19.213  0.00  0.00    -0.100 C 
ATOM     36  C   UNL     1      34.265 -20.537 -20.374  0.00  0.00    -0.100 C 
ATOM     37  C   UNL     1      35.249 -21.999 -18.125  0.00  0.00    -0.101 C 
ATOM     38  C   UNL     1      33.339 -21.094 -19.288  0.00  0.00    -0.101 C 
ATOM     39  C   UNL     1      33.037 -22.821 -17.631  0.00  0.00    -0.101 C 
ATOM     40  H   UNL     1      35.495 -19.528 -19.107  0.00  0.00    -0.079 HD
ATOM     41  H   UNL     1      34.018 -23.009 -19.391  0.00  0.00    -0.080 HD
ENDBRANCH  32  33
ENDBRANCH  26  32
ENDBRANCH  24  31
ENDBRANCH   1  23
TORSDOF 6
ENDMDL
MODEL 5
REMARK VINA RESULT:      -9.4      3.220      7.066
REMARK  Name = 5291
REMARK  6 active torsions:
REMARK  status: ('A' for Active; 'I' for Inactive)
REMARK    1  A    between atoms: C_1  and  N_23
REMARK    2  A    between atoms: C_2  and  N_8
REMARK    3  A    between atoms: C_12  and  C_17
REMARK    4  A    between atoms: C_24  and  C_31
REMARK    5  A    between atoms: C_26  and  C_32
REMARK    6  A    between atoms: C_32  and  N_33
REMARK                            x       y       z     vdW  Elec       q    Type
REMARK                         _______ _______ _______ _____ _____    ______ ____
ROOT
ATOM      1  C   UNL     1      35.279 -18.258 -21.164  0.00  0.00    +0.052 C 
ATOM      2  C   UNL     1      34.628 -20.298 -20.087  0.00  0.00    +0.055 C 
ATOM      3  C   UNL     1      34.280 -19.085 -20.677  0.00  0.00    +0.030 C 
ATOM      4  C   UNL     1      35.970 -20.668 -19.990  0.00  0.00    -0.008 C 
ATOM      5  C   UNL     1      36.615 -18.609 -21.076  0.00  0.00    +0.014 C 
ATOM      6  C   UNL     1      36.963 -19.823 -20.484  0.00  0.00    -0.002 C 
ATOM      7  C   UNL     1      36.371 -21.962 -19.361  0.00  0.00    +0.032 C 
ENDROOT
BRANCH   2   8
ATOM      8  N   UNL     1      33.610 -21.144 -19.591  0.00  0.00    -0.248 N 
ATOM      9  N   UNL     1      34.616 -22.014 -17.657  0.00  0.00    -0.337 NA
ATOM     10  N   UNL     1      32.382 -22.660 -18.288  0.00  0.00    -0.170 NA
ATOM     11  C   UNL     1      33.532 -21.977 -18.460  0.00  0.00    +0.149 C 
ATOM     12  C   UNL     1      34.509 -22.823 -16.584  0.00  0.00    +0.147 C 
ATOM     13  C   UNL     1      33.385 -23.572 -16.298  0.00  0.00    +0.055 C 
ATOM     14  C   UNL     1      32.342 -23.450 -17.194  0.00  0.00    +0.114 C 
ATOM     15  H   UNL     1      32.796 -21.149 -20.144  0.00  0.00    +0.165 HD
BRANCH  12  17
ATOM     16  N   UNL     1      36.612 -23.328 -13.549  0.00  0.00    -0.242 NA
ATOM     17  C   UNL     1      35.668 -22.861 -15.726  0.00  0.00    +0.050 C 
ATOM     18  C   UNL     1      36.923 -22.490 -16.198  0.00  0.00    +0.006 C 
ATOM     19  C   UNL     1      35.568 -23.269 -14.405  0.00  0.00    +0.101 C 
ATOM     20  C   UNL     1      38.021 -22.537 -15.347  0.00  0.00    +0.021 C 
ATOM     21  C   UNL     1      37.815 -22.959 -14.044  0.00  0.00    +0.099 C 
ENDBRANCH  12  17
ENDBRANCH   2   8
BRANCH   1  23
ATOM     22  O   UNL     1      34.537 -17.628 -24.000  0.00  0.00    -0.270 OA
ATOM     23  N   UNL     1      34.925 -17.026 -21.765  0.00  0.00    -0.280 N 
ATOM     24  C   UNL     1      34.583 -16.772 -23.101  0.00  0.00    +0.249 C 
ATOM     25  H   UNL     1      34.919 -16.244 -21.166  0.00  0.00    +0.155 HD
BRANCH  24  31
ATOM     26  C   UNL     1      33.732 -12.740 -24.054  0.00  0.00    -0.043 C 
ATOM     27  C   UNL     1      34.232 -13.054 -22.798  0.00  0.00    -0.006 C 
ATOM     28  C   UNL     1      33.508 -13.728 -25.002  0.00  0.00    -0.006 C 
ATOM     29  C   UNL     1      34.513 -14.383 -22.485  0.00  0.00    +0.004 C 
ATOM     30  C   UNL     1      33.789 -15.058 -24.688  0.00  0.00    +0.004 C 
ATOM     31  C   UNL     1      34.292 -15.386 -23.430  0.00  0.00    +0.054 C 
BRANCH  26  32
ATOM     32  C   UNL     1      33.429 -11.305 -24.394  0.00  0.00    -0.050 C 
BRANCH  32  33
ATOM     33  N   UNL     1      33.362 -10.464 -23.200  0.00  0.00    +0.387 N 
ATOM     34  N   UNL     1      32.265  -8.297 -21.632  0.00  0.00    +0.383 N 
ATOM     35  C   UNL     1      32.049 -10.580 -22.554  0.00  0.00    -0.100 C 
ATOM     36  C   UNL     1      33.649  -9.064 -23.531  0.00  0.00    -0.100 C 
ATOM     37  C   UNL     1      31.978  -9.698 -21.302  0.00  0.00    -0.101 C 
ATOM     38  C   UNL     1      33.577  -8.180 -22.281  0.00  0.00    -0.101 C 
ATOM     39  C   UNL     1      32.200  -7.458 -20.438  0.00  0.00    -0.101 C 
ATOM     40  H   UNL     1      34.073 -10.792 -22.546  0.00  0.00    -0.079 HD
ATOM     41  H   UNL     1      31.554  -7.969 -22.286  0.00  0.00    -0.080 HD
ENDBRANCH  32  33
ENDBRANCH  26  32
ENDBRANCH  24  31
ENDBRANCH   1  23
TORSDOF 6
ENDMDL
