MODEL 1
REMARK VINA RESULT:     -12.2      0.000      0.000
REMARK  Name = 11697676
REMARK  7 active torsions:
REMARK  status: ('A' for Active; 'I' for Inactive)
REMARK    1  A    between atoms: N_1  and  C_18
REMARK    2  A    between atoms: N_2  and  C_8
REMARK    3  A    between atoms: C_18  and  C_19
REMARK    4  A    between atoms: C_19  and  C_20
REMARK    5  A    between atoms: C_20  and  C_21
REMARK    6  A    between atoms: C_21  and  O_22
REMARK    7  A    between atoms: O_22  and  C_28
REMARK                            x       y       z     vdW  Elec       q    Type
REMARK                         _______ _______ _______ _____ _____    ______ ____
ROOT
ATOM      1  N   UNL     1      34.067 -15.927 -23.599  0.00  0.00    +0.389 N 
ATOM      2  N   UNL     1      33.375 -13.217 -23.023  0.00  0.00    -0.312 N 
ATOM      3  C   UNL     1      34.580 -15.271 -22.389  0.00  0.00    -0.055 C 
ATOM      4  C   UNL     1      33.939 -14.946 -24.683  0.00  0.00    -0.055 C 
ATOM      5  C   UNL     1      33.637 -14.158 -21.927  0.00  0.00    +0.068 C 
ATOM      6  C   UNL     1      32.975 -13.821 -24.297  0.00  0.00    +0.068 C 
ATOM      7  H   UNL     1      33.146 -16.317 -23.397  0.00  0.00    -0.080 HD
ENDROOT
BRANCH   2   8
ATOM      8  C   UNL     1      32.926 -11.933 -22.693  0.00  0.00    +0.048 C 
ATOM      9  C   UNL     1      33.489 -10.752 -23.254  0.00  0.00    +0.013 C 
ATOM     10  C   UNL     1      31.871 -11.794 -21.765  0.00  0.00    +0.015 C 
ATOM     11  C   UNL     1      32.998  -9.478 -22.886  0.00  0.00    +0.001 C 
ATOM     12  C   UNL     1      34.541 -10.841 -24.180  0.00  0.00    +0.001 C 
ATOM     13  C   UNL     1      31.387 -10.540 -21.404  0.00  0.00    +0.001 C 
ATOM     14  C   UNL     1      31.945  -9.389 -21.959  0.00  0.00    +0.000 C 
ATOM     15  C   UNL     1      33.572  -8.329 -23.454  0.00  0.00    +0.000 C 
ATOM     16  C   UNL     1      35.100  -9.690 -24.736  0.00  0.00    +0.000 C 
ATOM     17  C   UNL     1      34.616  -8.436 -24.373  0.00  0.00    +0.000 C 
ENDBRANCH   2   8
BRANCH   1  18
ATOM     18  C   UNL     1      34.948 -17.024 -24.000  0.00  0.00    -0.077 C 
BRANCH  18  19
ATOM     19  C   UNL     1      34.169 -18.337 -24.054  0.00  0.00    -0.019 C 
BRANCH  19  20
ATOM     20  C   UNL     1      34.887 -19.437 -23.274  0.00  0.00    +0.045 C 
BRANCH  20  21
ATOM     21  C   UNL     1      34.877 -19.163 -21.776  0.00  0.00    +0.208 C 
BRANCH  21  22
ATOM     22  O   UNL     1      33.745 -19.781 -21.180  0.00  0.00    -0.452 OA
BRANCH  22  28
ATOM     23  O   UNL     1      31.105 -23.619 -15.981  0.00  0.00    -0.275 OA
ATOM     24  N   UNL     1      32.017 -22.411 -17.709  0.00  0.00    -0.263 N 
ATOM     25  N   UNL     1      32.900 -21.085 -19.458  0.00  0.00    -0.357 NA
ATOM     26  C   UNL     1      34.411 -22.268 -17.987  0.00  0.00    +0.090 C 
ATOM     27  C   UNL     1      34.589 -23.264 -16.881  0.00  0.00    +0.022 C 
ATOM     28  C   UNL     1      33.982 -20.610 -20.115  0.00  0.00    +0.278 C 
ATOM     29  C   UNL     1      33.131 -21.898 -18.399  0.00  0.00    +0.170 C 
ATOM     30  C   UNL     1      33.456 -23.161 -15.873  0.00  0.00    +0.086 C 
ATOM     31  C   UNL     1      35.499 -21.767 -18.702  0.00  0.00    -0.012 C 
ATOM     32  C   UNL     1      35.288 -20.915 -19.779  0.00  0.00    +0.068 C 
ATOM     33  C   UNL     1      32.091 -23.123 -16.528  0.00  0.00    +0.228 C 
ATOM     34  H   UNL     1      31.124 -22.251 -18.093  0.00  0.00    +0.157 HD
ENDBRANCH  22  28
ENDBRANCH  21  22
ENDBRANCH  20  21
ENDBRANCH  19  20
ENDBRANCH  18  19
ENDBRANCH   1  18
TORSDOF 7
ENDMDL
MODEL 2
REMARK VINA RESULT:     -11.8      1.965      2.387
REMARK  Name = 11697676
REMARK  7 active torsions:
REMARK  status: ('A' for Active; 'I' for Inactive)
REMARK    1  A    between atoms: N_1  and  C_18
REMARK    2  A    between atoms: N_2  and  C_8
REMARK    3  A    between atoms: C_18  and  C_19
REMARK    4  A    between atoms: C_19  and  C_20
REMARK    5  A    between atoms: C_20  and  C_21
REMARK    6  A    between atoms: C_21  and  O_22
REMARK    7  A    between atoms: O_22  and  C_28
REMARK                            x       y       z     vdW  Elec       q    Type
REMARK                         _______ _______ _______ _____ _____    ______ ____
ROOT
ATOM      1  N   UNL     1      34.756 -15.787 -23.654  0.00  0.00    +0.389 N 
ATOM      2  N   UNL     1      33.390 -13.419 -22.826  0.00  0.00    -0.312 N 
ATOM      3  C   UNL     1      33.585 -15.306 -24.399  0.00  0.00    -0.055 C 
ATOM      4  C   UNL     1      34.601 -15.478 -22.227  0.00  0.00    -0.055 C 
ATOM      5  C   UNL     1      33.421 -13.792 -24.245  0.00  0.00    +0.068 C 
ATOM      6  C   UNL     1      34.469 -13.970 -22.002  0.00  0.00    +0.068 C 
ATOM      7  H   UNL     1      35.587 -15.313 -24.005  0.00  0.00    -0.080 HD
ENDROOT
BRANCH   2   8
ATOM      8  C   UNL     1      32.811 -12.192 -22.482  0.00  0.00    +0.048 C 
ATOM      9  C   UNL     1      33.281 -10.949 -22.991  0.00  0.00    +0.013 C 
ATOM     10  C   UNL     1      31.715 -12.179 -21.593  0.00  0.00    +0.015 C 
ATOM     11  C   UNL     1      32.659  -9.736 -22.610  0.00  0.00    +0.001 C 
ATOM     12  C   UNL     1      34.370 -10.913 -23.877  0.00  0.00    +0.001 C 
ATOM     13  C   UNL     1      31.102 -10.986 -21.219  0.00  0.00    +0.001 C 
ATOM     14  C   UNL     1      31.570  -9.773 -21.723  0.00  0.00    +0.000 C 
ATOM     15  C   UNL     1      33.143  -8.524 -23.127  0.00  0.00    +0.000 C 
ATOM     16  C   UNL     1      34.838  -9.699 -24.381  0.00  0.00    +0.000 C 
ATOM     17  C   UNL     1      34.226  -8.507 -24.006  0.00  0.00    +0.000 C 
ENDBRANCH   2   8
BRANCH   1  18
ATOM     18  C   UNL     1      34.934 -17.225 -23.851  0.00  0.00    -0.077 C 
BRANCH  18  19
ATOM     19  C   UNL     1      35.487 -17.871 -22.582  0.00  0.00    -0.019 C 
BRANCH  19  20
ATOM     20  C   UNL     1      35.112 -19.349 -22.505  0.00  0.00    +0.045 C 
BRANCH  20  21
ATOM     21  C   UNL     1      34.680 -19.748 -21.100  0.00  0.00    +0.208 C 
BRANCH  21  22
ATOM     22  O   UNL     1      35.757 -20.387 -20.428  0.00  0.00    -0.452 OA
BRANCH  22  28
ATOM     23  O   UNL     1      37.883 -23.141 -14.376  0.00  0.00    -0.275 OA
ATOM     24  N   UNL     1      37.125 -22.210 -16.335  0.00  0.00    -0.263 N 
ATOM     25  N   UNL     1      36.423 -21.295 -18.400  0.00  0.00    -0.357 NA
ATOM     26  C   UNL     1      34.856 -22.574 -17.077  0.00  0.00    +0.090 C 
ATOM     27  C   UNL     1      34.555 -23.273 -15.785  0.00  0.00    +0.022 C 
ATOM     28  C   UNL     1      35.443 -21.120 -19.313  0.00  0.00    +0.278 C 
ATOM     29  C   UNL     1      36.119 -22.027 -17.302  0.00  0.00    +0.170 C 
ATOM     30  C   UNL     1      35.799 -23.955 -15.238  0.00  0.00    +0.086 C 
ATOM     31  C   UNL     1      33.868 -22.358 -18.038  0.00  0.00    -0.012 C 
ATOM     32  C   UNL     1      34.163 -21.628 -19.182  0.00  0.00    +0.068 C 
ATOM     33  C   UNL     1      37.014 -23.051 -15.244  0.00  0.00    +0.228 C 
ATOM     34  H   UNL     1      37.963 -21.706 -16.442  0.00  0.00    +0.157 HD
ENDBRANCH  22  28
ENDBRANCH  21  22
ENDBRANCH  20  21
ENDBRANCH  19  20
ENDBRANCH  18  19
ENDBRANCH   1  18
TORSDOF 7
ENDMDL
MODEL 3
REMARK VINA RESULT:     -11.7      0.779      2.080
REMARK  Name = 11697676
REMARK  7 active torsions:
REMARK  status: ('A' for Active; 'I' for Inactive)
REMARK    1  A    between atoms: N_1  and  C_18
REMARK    2  A    between atoms: N_2  and  C_8
REMARK    3  A    between atoms: C_18  and  C_19
REMARK    4  A    between atoms: C_19  and  C_20
REMARK    5  A    between atoms: C_20  and  C_21
REMARK    6  A    between atoms: C_21  and  O_22
REMARK    7  A    between atoms: O_22  and  C_28
REMARK                            x       y       z     vdW  Elec       q    Type
REMARK                         _______ _______ _______ _____ _____    ______ ____
ROOT
ATOM      1  N   UNL     1      34.010 -16.176 -23.640  0.00  0.00    +0.389 N 
ATOM      2  N   UNL     1      33.917 -13.321 -23.649  0.00  0.00    -0.312 N 
ATOM      3  C   UNL     1      34.829 -15.404 -22.697  0.00  0.00    -0.055 C 
ATOM      4  C   UNL     1      33.877 -15.440 -24.904  0.00  0.00    -0.055 C 
ATOM      5  C   UNL     1      34.190 -14.045 -22.401  0.00  0.00    +0.068 C 
ATOM      6  C   UNL     1      33.207 -14.082 -24.681  0.00  0.00    +0.068 C 
ATOM      7  H   UNL     1      33.083 -16.311 -23.238  0.00  0.00    -0.080 HD
ENDROOT
BRANCH   2   8
ATOM      8  C   UNL     1      33.765 -11.931 -23.583  0.00  0.00    +0.048 C 
ATOM      9  C   UNL     1      32.914 -11.294 -22.637  0.00  0.00    +0.013 C 
ATOM     10  C   UNL     1      34.483 -11.121 -24.489  0.00  0.00    +0.015 C 
ATOM     11  C   UNL     1      32.797  -9.884 -22.614  0.00  0.00    +0.001 C 
ATOM     12  C   UNL     1      32.180 -12.059 -21.717  0.00  0.00    +0.001 C 
ATOM     13  C   UNL     1      34.368  -9.734 -24.466  0.00  0.00    +0.001 C 
ATOM     14  C   UNL     1      33.532  -9.119 -23.535  0.00  0.00    +0.000 C 
ATOM     15  C   UNL     1      31.950  -9.281 -21.671  0.00  0.00    +0.000 C 
ATOM     16  C   UNL     1      31.343 -11.443 -20.786  0.00  0.00    +0.000 C 
ATOM     17  C   UNL     1      31.228 -10.056 -20.763  0.00  0.00    +0.000 C 
ENDBRANCH   2   8
BRANCH   1  18
ATOM     18  C   UNL     1      34.602 -17.493 -23.874  0.00  0.00    -0.077 C 
BRANCH  18  19
ATOM     19  C   UNL     1      35.542 -17.863 -22.728  0.00  0.00    -0.019 C 
BRANCH  19  20
ATOM     20  C   UNL     1      35.350 -19.318 -22.304  0.00  0.00    +0.045 C 
BRANCH  20  21
ATOM     21  C   UNL     1      35.042 -19.435 -20.817  0.00  0.00    +0.208 C 
BRANCH  21  22
ATOM     22  O   UNL     1      33.948 -20.319 -20.619  0.00  0.00    -0.452 OA
BRANCH  22  28
ATOM     23  O   UNL     1      30.395 -23.623 -15.600  0.00  0.00    -0.275 OA
ATOM     24  N   UNL     1      31.603 -22.595 -17.261  0.00  0.00    -0.263 N 
ATOM     25  N   UNL     1      32.797 -21.449 -18.951  0.00  0.00    -0.357 NA
ATOM     26  C   UNL     1      34.016 -22.685 -17.269  0.00  0.00    +0.090 C 
ATOM     27  C   UNL     1      33.975 -23.634 -16.109  0.00  0.00    +0.022 C 
ATOM     28  C   UNL     1      33.985 -21.109 -19.500  0.00  0.00    +0.278 C 
ATOM     29  C   UNL     1      32.831 -22.222 -17.840  0.00  0.00    +0.170 C 
ATOM     30  C   UNL     1      32.753 -23.374 -15.243  0.00  0.00    +0.086 C 
ATOM     31  C   UNL     1      35.220 -22.323 -17.875  0.00  0.00    -0.012 C 
ATOM     32  C   UNL     1      35.211 -21.514 -19.004  0.00  0.00    +0.068 C 
ATOM     33  C   UNL     1      31.478 -23.248 -16.050  0.00  0.00    +0.228 C 
ATOM     34  H   UNL     1      30.778 -22.375 -17.751  0.00  0.00    +0.157 HD
ENDBRANCH  22  28
ENDBRANCH  21  22
ENDBRANCH  20  21
ENDBRANCH  19  20
ENDBRANCH  18  19
ENDBRANCH   1  18
TORSDOF 7
ENDMDL
MODEL 4
REMARK VINA RESULT:     -11.5      3.785     12.006
REMARK  Name = 11697676
REMARK  7 active torsions:
REMARK  status: ('A' for Active; 'I' for Inactive)
REMARK    1  A    between atoms: N_1  and  C_18
REMARK    2  A    between atoms: N_2  and  C_8
REMARK    3  A    between atoms: C_18  and  C_19
REMARK    4  A    between atoms: C_19  and  C_20
REMARK    5  A    between atoms: C_20  and  C_21
REMARK    6  A    between atoms: C_21  and  O_22
REMARK    7  A    between atoms: O_22  and  C_28
REMARK                            x       y       z     vdW  Elec       q    Type
REMARK                         _______ _______ _______ _____ _____    ______ ____
ROOT
ATOM      1  N   UNL     1      34.939 -16.743 -23.911  0.00  0.00    +0.389 N 
ATOM      2  N   UNL     1      35.355 -18.615 -21.794  0.00  0.00    -0.312 N 
ATOM      3  C   UNL     1      35.035 -16.282 -22.520  0.00  0.00    -0.055 C 
ATOM      4  C   UNL     1      34.308 -18.068 -23.955  0.00  0.00    -0.055 C 
ATOM      5  C   UNL     1      35.873 -17.246 -21.678  0.00  0.00    +0.068 C 
ATOM      6  C   UNL     1      35.123 -19.092 -23.160  0.00  0.00    +0.068 C 
ATOM      7  H   UNL     1      35.880 -16.812 -24.300  0.00  0.00    -0.080 HD
ENDROOT
BRANCH   2   8
ATOM      8  C   UNL     1      35.683 -19.529 -20.786  0.00  0.00    +0.048 C 
ATOM      9  C   UNL     1      34.711 -20.340 -20.136  0.00  0.00    +0.013 C 
ATOM     10  C   UNL     1      37.033 -19.658 -20.392  0.00  0.00    +0.015 C 
ATOM     11  C   UNL     1      35.097 -21.249 -19.122  0.00  0.00    +0.001 C 
ATOM     12  C   UNL     1      33.357 -20.246 -20.495  0.00  0.00    +0.001 C 
ATOM     13  C   UNL     1      37.412 -20.553 -19.395  0.00  0.00    +0.001 C 
ATOM     14  C   UNL     1      36.452 -21.343 -18.764  0.00  0.00    +0.000 C 
ATOM     15  C   UNL     1      34.117 -22.037 -18.497  0.00  0.00    +0.000 C 
ATOM     16  C   UNL     1      32.396 -21.037 -19.863  0.00  0.00    +0.000 C 
ATOM     17  C   UNL     1      32.776 -21.930 -18.866  0.00  0.00    +0.000 C 
ENDBRANCH   2   8
BRANCH   1  18
ATOM     18  C   UNL     1      34.182 -15.787 -24.717  0.00  0.00    -0.077 C 
BRANCH  18  19
ATOM     19  C   UNL     1      33.498 -14.758 -23.818  0.00  0.00    -0.019 C 
BRANCH  19  20
ATOM     20  C   UNL     1      33.507 -13.372 -24.458  0.00  0.00    +0.045 C 
BRANCH  20  21
ATOM     21  C   UNL     1      33.840 -12.286 -23.444  0.00  0.00    +0.208 C 
BRANCH  21  22
ATOM     22  O   UNL     1      32.806 -11.311 -23.424  0.00  0.00    -0.452 OA
BRANCH  22  28
ATOM     23  O   UNL     1      30.989  -4.579 -23.098  0.00  0.00    -0.275 OA
ATOM     24  N   UNL     1      31.644  -6.779 -23.166  0.00  0.00    -0.263 N 
ATOM     25  N   UNL     1      32.242  -9.064 -23.299  0.00  0.00    -0.357 NA
ATOM     26  C   UNL     1      33.916  -7.374 -23.730  0.00  0.00    +0.090 C 
ATOM     27  C   UNL     1      34.288  -5.922 -23.723  0.00  0.00    +0.022 C 
ATOM     28  C   UNL     1      33.190 -10.000 -23.530  0.00  0.00    +0.278 C 
ATOM     29  C   UNL     1      32.616  -7.768 -23.413  0.00  0.00    +0.170 C 
ATOM     30  C   UNL     1      33.102  -5.059 -24.124  0.00  0.00    +0.086 C 
ATOM     31  C   UNL     1      34.867  -8.371 -23.947  0.00  0.00    -0.012 C 
ATOM     32  C   UNL     1      34.502  -9.708 -23.856  0.00  0.00    +0.068 C 
ATOM     33  C   UNL     1      31.832  -5.429 -23.387  0.00  0.00    +0.228 C 
ATOM     34  H   UNL     1      30.773  -7.070 -22.811  0.00  0.00    +0.157 HD
ENDBRANCH  22  28
ENDBRANCH  21  22
ENDBRANCH  20  21
ENDBRANCH  19  20
ENDBRANCH  18  19
ENDBRANCH   1  18
TORSDOF 7
ENDMDL
MODEL 5
REMARK VINA RESULT:     -11.3      3.267      6.049
REMARK  Name = 11697676
REMARK  7 active torsions:
REMARK  status: ('A' for Active; 'I' for Inactive)
REMARK    1  A    between atoms: N_1  and  C_18
REMARK    2  A    between atoms: N_2  and  C_8
REMARK    3  A    between atoms: C_18  and  C_19
REMARK    4  A    between atoms: C_19  and  C_20
REMARK    5  A    between atoms: C_20  and  C_21
REMARK    6  A    between atoms: C_21  and  O_22
REMARK    7  A    between atoms: O_22  and  C_28
REMARK                            x       y       z     vdW  Elec       q    Type
REMARK                         _______ _______ _______ _____ _____    ______ ____
ROOT
ATOM      1  N   UNL     1      35.850 -20.968 -19.844  0.00  0.00    +0.389 N 
ATOM      2  N   UNL     1      35.282 -18.674 -21.448  0.00  0.00    -0.312 N 
ATOM      3  C   UNL     1      34.462 -20.553 -20.081  0.00  0.00    -0.055 C 
ATOM      4  C   UNL     1      36.721 -19.787 -19.789  0.00  0.00    -0.055 C 
ATOM      5  C   UNL     1      34.333 -19.793 -21.403  0.00  0.00    +0.068 C 
ATOM      6  C   UNL     1      36.667 -19.002 -21.101  0.00  0.00    +0.068 C 
ATOM      7  H   UNL     1      36.152 -21.564 -20.615  0.00  0.00    -0.080 HD
ENDROOT
BRANCH   2   8
ATOM      8  C   UNL     1      35.018 -17.624 -22.336  0.00  0.00    +0.048 C 
ATOM      9  C   UNL     1      34.763 -16.294 -21.901  0.00  0.00    +0.013 C 
ATOM     10  C   UNL     1      35.003 -17.889 -23.722  0.00  0.00    +0.015 C 
ATOM     11  C   UNL     1      34.502 -15.270 -22.842  0.00  0.00    +0.001 C 
ATOM     12  C   UNL     1      34.767 -15.984 -20.532  0.00  0.00    +0.001 C 
ATOM     13  C   UNL     1      34.747 -16.881 -24.648  0.00  0.00    +0.001 C 
ATOM     14  C   UNL     1      34.498 -15.580 -24.212  0.00  0.00    +0.000 C 
ATOM     15  C   UNL     1      34.253 -13.965 -22.386  0.00  0.00    +0.000 C 
ATOM     16  C   UNL     1      34.518 -14.682 -20.096  0.00  0.00    +0.000 C 
ATOM     17  C   UNL     1      34.261 -13.674 -21.021  0.00  0.00    +0.000 C 
ENDBRANCH   2   8
BRANCH   1  18
ATOM     18  C   UNL     1      35.951 -21.739 -18.606  0.00  0.00    -0.077 C 
BRANCH  18  19
ATOM     19  C   UNL     1      37.078 -21.193 -17.731  0.00  0.00    -0.019 C 
BRANCH  19  20
ATOM     20  C   UNL     1      37.442 -22.177 -16.621  0.00  0.00    +0.045 C 
BRANCH  20  21
ATOM     21  C   UNL     1      36.318 -22.317 -15.602  0.00  0.00    +0.208 C 
BRANCH  21  22
ATOM     22  O   UNL     1      35.677 -23.574 -15.763  0.00  0.00    -0.452 OA
BRANCH  22  28
ATOM     23  O   UNL     1      28.854 -22.517 -16.796  0.00  0.00    -0.275 OA
ATOM     24  N   UNL     1      31.084 -22.931 -16.433  0.00  0.00    -0.263 N 
ATOM     25  N   UNL     1      33.401 -23.260 -16.084  0.00  0.00    -0.357 NA
ATOM     26  C   UNL     1      31.839 -23.886 -14.348  0.00  0.00    +0.090 C 
ATOM     27  C   UNL     1      30.412 -24.073 -13.928  0.00  0.00    +0.022 C 
ATOM     28  C   UNL     1      34.399 -23.684 -15.277  0.00  0.00    +0.278 C 
ATOM     29  C   UNL     1      32.138 -23.358 -15.603  0.00  0.00    +0.170 C 
ATOM     30  C   UNL     1      29.523 -23.006 -14.546  0.00  0.00    +0.086 C 
ATOM     31  C   UNL     1      32.899 -24.325 -13.553  0.00  0.00    -0.012 C 
ATOM     32  C   UNL     1      34.203 -24.216 -14.016  0.00  0.00    +0.068 C 
ATOM     33  C   UNL     1      29.767 -22.828 -16.030  0.00  0.00    +0.228 C 
ATOM     34  H   UNL     1      31.300 -22.690 -17.363  0.00  0.00    +0.157 HD
ENDBRANCH  22  28
ENDBRANCH  21  22
ENDBRANCH  20  21
ENDBRANCH  19  20
ENDBRANCH  18  19
ENDBRANCH   1  18
TORSDOF 7
ENDMDL
MODEL 6
REMARK VINA RESULT:     -11.2      2.148      3.725
REMARK  Name = 11697676
REMARK  7 active torsions:
REMARK  status: ('A' for Active; 'I' for Inactive)
REMARK    1  A    between atoms: N_1  and  C_18
REMARK    2  A    between atoms: N_2  and  C_8
REMARK    3  A    between atoms: C_18  and  C_19
REMARK    4  A    between atoms: C_19  and  C_20
REMARK    5  A    between atoms: C_20  and  C_21
REMARK    6  A    between atoms: C_21  and  O_22
REMARK    7  A    between atoms: O_22  and  C_28
REMARK                            x       y       z     vdW  Elec       q    Type
REMARK                         _______ _______ _______ _____ _____    ______ ____
ROOT
ATOM      1  N   UNL     1      32.813 -12.731 -22.816  0.00  0.00    +0.389 N 
ATOM      2  N   UNL     1      32.363  -9.910 -22.806  0.00  0.00    -0.312 N 
ATOM      3  C   UNL     1      32.219 -12.078 -21.643  0.00  0.00    -0.055 C 
ATOM      4  C   UNL     1      33.770 -11.823 -23.461  0.00  0.00    -0.055 C 
ATOM      5  C   UNL     1      31.479 -10.799 -22.042  0.00  0.00    +0.068 C 
ATOM      6  C   UNL     1      33.082 -10.535 -23.920  0.00  0.00    +0.068 C 
ATOM      7  H   UNL     1      32.072 -12.954 -23.480  0.00  0.00    -0.080 HD
ENDROOT
BRANCH   2   8
ATOM      8  C   UNL     1      32.035  -8.551 -22.866  0.00  0.00    +0.048 C 
ATOM      9  C   UNL     1      32.152  -7.680 -21.746  0.00  0.00    +0.013 C 
ATOM     10  C   UNL     1      31.569  -8.013 -24.085  0.00  0.00    +0.015 C 
ATOM     11  C   UNL     1      31.806  -6.313 -21.862  0.00  0.00    +0.001 C 
ATOM     12  C   UNL     1      32.611  -8.171 -20.513  0.00  0.00    +0.001 C 
ATOM     13  C   UNL     1      31.230  -6.668 -24.199  0.00  0.00    +0.001 C 
ATOM     14  C   UNL     1      31.348  -5.823 -23.096  0.00  0.00    +0.000 C 
ATOM     15  C   UNL     1      31.931  -5.476 -20.741  0.00  0.00    +0.000 C 
ATOM     16  C   UNL     1      32.729  -7.325 -19.410  0.00  0.00    +0.000 C 
ATOM     17  C   UNL     1      32.388  -5.980 -19.523  0.00  0.00    +0.000 C 
ENDBRANCH   2   8
BRANCH   1  18
ATOM     18  C   UNL     1      33.471 -13.979 -22.431  0.00  0.00    -0.077 C 
BRANCH  18  19
ATOM     19  C   UNL     1      33.675 -14.871 -23.654  0.00  0.00    -0.019 C 
BRANCH  19  20
ATOM     20  C   UNL     1      35.003 -15.621 -23.575  0.00  0.00    +0.045 C 
BRANCH  20  21
ATOM     21  C   UNL     1      35.102 -16.458 -22.306  0.00  0.00    +0.208 C 
BRANCH  21  22
ATOM     22  O   UNL     1      34.972 -17.836 -22.626  0.00  0.00    -0.452 OA
BRANCH  22  28
ATOM     23  O   UNL     1      33.171 -23.024 -18.317  0.00  0.00    -0.275 OA
ATOM     24  N   UNL     1      33.821 -21.355 -19.754  0.00  0.00    -0.263 N 
ATOM     25  N   UNL     1      34.413 -19.578 -21.200  0.00  0.00    -0.357 NA
ATOM     26  C   UNL     1      36.094 -20.539 -19.752  0.00  0.00    +0.090 C 
ATOM     27  C   UNL     1      36.470 -21.617 -18.780  0.00  0.00    +0.022 C 
ATOM     28  C   UNL     1      35.360 -18.733 -21.665  0.00  0.00    +0.278 C 
ATOM     29  C   UNL     1      34.791 -20.460 -20.244  0.00  0.00    +0.170 C 
ATOM     30  C   UNL     1      35.289 -21.982 -17.895  0.00  0.00    +0.086 C 
ATOM     31  C   UNL     1      37.044 -19.658 -20.270  0.00  0.00    -0.012 C 
ATOM     32  C   UNL     1      36.675 -18.731 -21.236  0.00  0.00    +0.068 C 
ATOM     33  C   UNL     1      34.014 -22.203 -18.681  0.00  0.00    +0.228 C 
ATOM     34  H   UNL     1      32.947 -21.378 -20.207  0.00  0.00    +0.157 HD
ENDBRANCH  22  28
ENDBRANCH  21  22
ENDBRANCH  20  21
ENDBRANCH  19  20
ENDBRANCH  18  19
ENDBRANCH   1  18
TORSDOF 7
ENDMDL
MODEL 7
REMARK VINA RESULT:     -11.2      2.875     11.356
REMARK  Name = 11697676
REMARK  7 active torsions:
REMARK  status: ('A' for Active; 'I' for Inactive)
REMARK    1  A    between atoms: N_1  and  C_18
REMARK    2  A    between atoms: N_2  and  C_8
REMARK    3  A    between atoms: C_18  and  C_19
REMARK    4  A    between atoms: C_19  and  C_20
REMARK    5  A    between atoms: C_20  and  C_21
REMARK    6  A    between atoms: C_21  and  O_22
REMARK    7  A    between atoms: O_22  and  C_28
REMARK                            x       y       z     vdW  Elec       q    Type
REMARK                         _______ _______ _______ _____ _____    ______ ____
ROOT
ATOM      1  N   UNL     1      35.521 -19.823 -21.332  0.00  0.00    +0.389 N 
ATOM      2  N   UNL     1      34.874 -21.285 -18.965  0.00  0.00    -0.312 N 
ATOM      3  C   UNL     1      36.551 -20.089 -20.320  0.00  0.00    -0.055 C 
ATOM      4  C   UNL     1      34.216 -19.648 -20.683  0.00  0.00    -0.055 C 
ATOM      5  C   UNL     1      36.228 -21.360 -19.529  0.00  0.00    +0.068 C 
ATOM      6  C   UNL     1      33.816 -20.904 -19.904  0.00  0.00    +0.068 C 
ATOM      7  H   UNL     1      35.469 -20.620 -21.967  0.00  0.00    -0.080 HD
ENDROOT
BRANCH   2   8
ATOM      8  C   UNL     1      34.571 -22.108 -17.874  0.00  0.00    +0.048 C 
ATOM      9  C   UNL     1      35.523 -22.437 -16.870  0.00  0.00    +0.013 C 
ATOM     10  C   UNL     1      33.268 -22.638 -17.759  0.00  0.00    +0.015 C 
ATOM     11  C   UNL     1      35.164 -23.274 -15.787  0.00  0.00    +0.001 C 
ATOM     12  C   UNL     1      36.832 -21.933 -16.943  0.00  0.00    +0.001 C 
ATOM     13  C   UNL     1      32.914 -23.461 -16.694  0.00  0.00    +0.001 C 
ATOM     14  C   UNL     1      33.854 -23.777 -15.714  0.00  0.00    +0.000 C 
ATOM     15  C   UNL     1      36.123 -23.583 -14.809  0.00  0.00    +0.000 C 
ATOM     16  C   UNL     1      37.773 -22.250 -15.963  0.00  0.00    +0.000 C 
ATOM     17  C   UNL     1      37.419 -23.073 -14.898  0.00  0.00    +0.000 C 
ENDBRANCH   2   8
BRANCH   1  18
ATOM     18  C   UNL     1      35.867 -18.638 -22.117  0.00  0.00    -0.077 C 
BRANCH  18  19
ATOM     19  C   UNL     1      34.849 -18.426 -23.235  0.00  0.00    -0.019 C 
BRANCH  19  20
ATOM     20  C   UNL     1      34.840 -16.973 -23.707  0.00  0.00    +0.045 C 
BRANCH  20  21
ATOM     21  C   UNL     1      34.949 -16.002 -22.539  0.00  0.00    +0.208 C 
BRANCH  21  22
ATOM     22  O   UNL     1      34.950 -14.666 -23.021  0.00  0.00    -0.452 OA
BRANCH  22  28
ATOM     23  O   UNL     1      31.727  -8.479 -23.273  0.00  0.00    -0.275 OA
ATOM     24  N   UNL     1      32.725 -10.546 -23.177  0.00  0.00    -0.263 N 
ATOM     25  N   UNL     1      33.843 -12.628 -23.088  0.00  0.00    -0.357 NA
ATOM     26  C   UNL     1      32.273 -12.050 -21.343  0.00  0.00    +0.090 C 
ATOM     27  C   UNL     1      31.229 -11.102 -20.835  0.00  0.00    +0.022 C 
ATOM     28  C   UNL     1      34.054 -13.801 -22.449  0.00  0.00    +0.278 C 
ATOM     29  C   UNL     1      32.965 -11.768 -22.521  0.00  0.00    +0.170 C 
ATOM     30  C   UNL     1      31.580  -9.668 -21.196  0.00  0.00    +0.086 C 
ATOM     31  C   UNL     1      32.509 -13.278 -20.723  0.00  0.00    -0.012 C 
ATOM     32  C   UNL     1      33.421 -14.169 -21.275  0.00  0.00    +0.068 C 
ATOM     33  C   UNL     1      31.978  -9.510 -22.649  0.00  0.00    +0.228 C 
ATOM     34  H   UNL     1      33.115 -10.421 -24.072  0.00  0.00    +0.157 HD
ENDBRANCH  22  28
ENDBRANCH  21  22
ENDBRANCH  20  21
ENDBRANCH  19  20
ENDBRANCH  18  19
ENDBRANCH   1  18
TORSDOF 7
ENDMDL
MODEL 8
REMARK VINA RESULT:     -11.2      2.418      4.021
REMARK  Name = 11697676
REMARK  7 active torsions:
REMARK  status: ('A' for Active; 'I' for Inactive)
REMARK    1  A    between atoms: N_1  and  C_18
REMARK    2  A    between atoms: N_2  and  C_8
REMARK    3  A    between atoms: C_18  and  C_19
REMARK    4  A    between atoms: C_19  and  C_20
REMARK    5  A    between atoms: C_20  and  C_21
REMARK    6  A    between atoms: C_21  and  O_22
REMARK    7  A    between atoms: O_22  and  C_28
REMARK                            x       y       z     vdW  Elec       q    Type
REMARK                         _______ _______ _______ _____ _____    ______ ____
ROOT
ATOM      1  N   UNL     1      33.626 -11.790 -23.293  0.00  0.00    +0.389 N 
ATOM      2  N   UNL     1      32.788  -9.252 -22.288  0.00  0.00    -0.312 N 
ATOM      3  C   UNL     1      33.828 -10.573 -24.090  0.00  0.00    -0.055 C 
ATOM      4  C   UNL     1      32.392 -11.673 -22.506  0.00  0.00    -0.055 C 
ATOM      5  C   UNL     1      33.944  -9.341 -23.189  0.00  0.00    +0.068 C 
ATOM      6  C   UNL     1      32.460 -10.476 -21.553  0.00  0.00    +0.068 C 
ATOM      7  H   UNL     1      34.414 -11.902 -22.656  0.00  0.00    -0.080 HD
ENDROOT
BRANCH   2   8
ATOM      8  C   UNL     1      32.486  -8.005 -21.729  0.00  0.00    +0.048 C 
ATOM      9  C   UNL     1      32.073  -6.890 -22.510  0.00  0.00    +0.013 C 
ATOM     10  C   UNL     1      32.594  -7.838 -20.331  0.00  0.00    +0.015 C 
ATOM     11  C   UNL     1      31.780  -5.650 -21.894  0.00  0.00    +0.001 C 
ATOM     12  C   UNL     1      31.952  -7.009 -23.904  0.00  0.00    +0.001 C 
ATOM     13  C   UNL     1      32.305  -6.619 -19.724  0.00  0.00    +0.001 C 
ATOM     14  C   UNL     1      31.900  -5.532 -20.499  0.00  0.00    +0.000 C 
ATOM     15  C   UNL     1      31.374  -4.567 -22.689  0.00  0.00    +0.000 C 
ATOM     16  C   UNL     1      31.547  -5.921 -24.679  0.00  0.00    +0.000 C 
ATOM     17  C   UNL     1      31.259  -4.702 -24.072  0.00  0.00    +0.000 C 
ENDBRANCH   2   8
BRANCH   1  18
ATOM     18  C   UNL     1      33.571 -12.967 -24.160  0.00  0.00    -0.077 C 
BRANCH  18  19
ATOM     19  C   UNL     1      33.487 -14.241 -23.321  0.00  0.00    -0.019 C 
BRANCH  19  20
ATOM     20  C   UNL     1      34.596 -15.222 -23.695  0.00  0.00    +0.045 C 
BRANCH  20  21
ATOM     21  C   UNL     1      34.978 -16.114 -22.521  0.00  0.00    +0.208 C 
BRANCH  21  22
ATOM     22  O   UNL     1      35.207 -17.440 -22.977  0.00  0.00    -0.452 OA
BRANCH  22  28
ATOM     23  O   UNL     1      32.806 -22.539 -18.858  0.00  0.00    -0.275 OA
ATOM     24  N   UNL     1      33.651 -20.903 -20.231  0.00  0.00    -0.263 N 
ATOM     25  N   UNL     1      34.448 -19.156 -21.612  0.00  0.00    -0.357 NA
ATOM     26  C   UNL     1      35.981 -20.280 -20.120  0.00  0.00    +0.090 C 
ATOM     27  C   UNL     1      36.226 -21.403 -19.158  0.00  0.00    +0.022 C 
ATOM     28  C   UNL     1      35.480 -18.384 -22.021  0.00  0.00    +0.278 C 
ATOM     29  C   UNL     1      34.711 -20.083 -20.662  0.00  0.00    +0.170 C 
ATOM     30  C   UNL     1      34.983 -21.685 -18.329  0.00  0.00    +0.086 C 
ATOM     31  C   UNL     1      37.021 -19.472 -20.580  0.00  0.00    -0.012 C 
ATOM     32  C   UNL     1      36.771 -18.500 -21.539  0.00  0.00    +0.068 C 
ATOM     33  C   UNL     1      33.727 -21.784 -19.170  0.00  0.00    +0.228 C 
ATOM     34  H   UNL     1      32.798 -20.845 -20.719  0.00  0.00    +0.157 HD
ENDBRANCH  22  28
ENDBRANCH  21  22
ENDBRANCH  20  21
ENDBRANCH  19  20
ENDBRANCH  18  19
ENDBRANCH   1  18
TORSDOF 7
ENDMDL
MODEL 9
REMARK VINA RESULT:     -11.1      3.716      7.167
REMARK  Name = 11697676
REMARK  7 active torsions:
REMARK  status: ('A' for Active; 'I' for Inactive)
REMARK    1  A    between atoms: N_1  and  C_18
REMARK    2  A    between atoms: N_2  and  C_8
REMARK    3  A    between atoms: C_18  and  C_19
REMARK    4  A    between atoms: C_19  and  C_20
REMARK    5  A    between atoms: C_20  and  C_21
REMARK    6  A    between atoms: C_21  and  O_22
REMARK    7  A    between atoms: O_22  and  C_28
REMARK                            x       y       z     vdW  Elec       q    Type
REMARK                         _______ _______ _______ _____ _____    ______ ____
ROOT
ATOM      1  N   UNL     1      32.360  -9.264 -21.213  0.00  0.00    +0.389 N 
ATOM      2  N   UNL     1      33.011  -7.102 -22.962  0.00  0.00    -0.312 N 
ATOM      3  C   UNL     1      31.631  -9.085 -22.475  0.00  0.00    -0.055 C 
ATOM      4  C   UNL     1      32.742  -7.956 -20.667  0.00  0.00    -0.055 C 
ATOM      5  C   UNL     1      32.497  -8.362 -23.511  0.00  0.00    +0.068 C 
ATOM      6  C   UNL     1      33.644  -7.195 -21.643  0.00  0.00    +0.068 C 
ATOM      7  H   UNL     1      33.205  -9.806 -21.395  0.00  0.00    -0.080 HD
ENDROOT
BRANCH   2   8
ATOM      8  C   UNL     1      33.426  -6.114 -23.862  0.00  0.00    +0.048 C 
ATOM      9  C   UNL     1      32.829  -4.824 -23.919  0.00  0.00    +0.013 C 
ATOM     10  C   UNL     1      34.481  -6.402 -24.755  0.00  0.00    +0.015 C 
ATOM     11  C   UNL     1      33.287  -3.861 -24.850  0.00  0.00    +0.001 C 
ATOM     12  C   UNL     1      31.776  -4.492 -23.051  0.00  0.00    +0.001 C 
ATOM     13  C   UNL     1      34.933  -5.455 -25.670  0.00  0.00    +0.001 C 
ATOM     14  C   UNL     1      34.341  -4.193 -25.718  0.00  0.00    +0.000 C 
ATOM     15  C   UNL     1      32.680  -2.596 -24.885  0.00  0.00    +0.000 C 
ATOM     16  C   UNL     1      31.184  -3.230 -23.099  0.00  0.00    +0.000 C 
ATOM     17  C   UNL     1      31.635  -2.283 -24.015  0.00  0.00    +0.000 C 
ENDBRANCH   2   8
BRANCH   1  18
ATOM     18  C   UNL     1      31.543 -10.003 -20.250  0.00  0.00    -0.077 C 
BRANCH  18  19
ATOM     19  C   UNL     1      30.980 -11.269 -20.893  0.00  0.00    -0.019 C 
BRANCH  19  20
ATOM     20  C   UNL     1      32.000 -12.406 -20.861  0.00  0.00    +0.045 C 
BRANCH  20  21
ATOM     21  C   UNL     1      32.465 -12.784 -22.261  0.00  0.00    +0.208 C 
BRANCH  21  22
ATOM     22  O   UNL     1      33.849 -13.103 -22.239  0.00  0.00    -0.452 OA
BRANCH  22  28
ATOM     23  O   UNL     1      36.394 -19.195 -19.972  0.00  0.00    -0.275 OA
ATOM     24  N   UNL     1      35.504 -17.226 -20.751  0.00  0.00    -0.263 N 
ATOM     25  N   UNL     1      34.668 -15.149 -21.513  0.00  0.00    -0.357 NA
ATOM     26  C   UNL     1      34.881 -16.985 -23.071  0.00  0.00    +0.090 C 
ATOM     27  C   UNL     1      35.173 -18.439 -23.291  0.00  0.00    +0.022 C 
ATOM     28  C   UNL     1      34.191 -14.398 -22.531  0.00  0.00    +0.278 C 
ATOM     29  C   UNL     1      35.015 -16.426 -21.800  0.00  0.00    +0.170 C 
ATOM     30  C   UNL     1      36.268 -18.917 -22.350  0.00  0.00    +0.086 C 
ATOM     31  C   UNL     1      34.371 -16.180 -24.090  0.00  0.00    -0.012 C 
ATOM     32  C   UNL     1      34.027 -14.860 -23.824  0.00  0.00    +0.068 C 
ATOM     33  C   UNL     1      36.036 -18.490 -20.916  0.00  0.00    +0.228 C 
ATOM     34  H   UNL     1      35.464 -16.861 -19.837  0.00  0.00    +0.157 HD
ENDBRANCH  22  28
ENDBRANCH  21  22
ENDBRANCH  20  21
ENDBRANCH  19  20
ENDBRANCH  18  19
ENDBRANCH   1  18
TORSDOF 7
ENDMDL
