MODEL 1
REMARK VINA RESULT:     -12.0      0.000      0.000
REMARK  Name = 448408
REMARK  8 active torsions:
REMARK  status: ('A' for Active; 'I' for Inactive)
REMARK    1  A    between atoms: N_2  and  C_25
REMARK    2  A    between atoms: C_3  and  C_6
REMARK    3  A    between atoms: C_5  and  N_12
REMARK    4  A    between atoms: C_25  and  C_26
REMARK    5  A    between atoms: C_27  and  S_32
REMARK    6  A    between atoms: S_32  and  C_33
REMARK    7  A    between atoms: C_34  and  C_39
REMARK    8  A    between atoms: C_39  and  O_40
REMARK                            x       y       z     vdW  Elec       q    Type
REMARK                         _______ _______ _______ _____ _____    ______ ____
ROOT
ATOM      1  O   UNL     1      37.592 -19.292 -19.389  0.00  0.00    -0.270 OA
ATOM      2  N   UNL     1      35.955 -20.933 -19.339  0.00  0.00    -0.297 N 
ATOM      3  C   UNL     1      36.555 -19.784 -19.867  0.00  0.00    +0.246 C 
ATOM      4  H   UNL     1      35.134 -21.268 -19.767  0.00  0.00    +0.150 HD
ENDROOT
BRANCH   3   6
ATOM      5  C   UNL     1      35.105 -17.154 -22.134  0.00  0.00    +0.090 C 
ATOM      6  C   UNL     1      35.897 -19.158 -21.004  0.00  0.00    +0.055 C 
ATOM      7  C   UNL     1      35.739 -17.773 -21.043  0.00  0.00    +0.023 C 
ATOM      8  C   UNL     1      34.633 -17.960 -23.184  0.00  0.00    +0.018 C 
ATOM      9  C   UNL     1      35.423 -19.945 -22.055  0.00  0.00    +0.005 C 
ATOM     10  C   UNL     1      34.792 -19.346 -23.144  0.00  0.00    +0.002 C 
BRANCH   5  12
ATOM     11  O   UNL     1      32.422 -13.209 -20.077  0.00  0.00    -0.207 OA
ATOM     12  N   UNL     1      34.947 -15.773 -22.174  0.00  0.00    -0.137 N 
ATOM     13  N   UNL     1      35.031 -15.015 -23.299  0.00  0.00    -0.215 N 
ATOM     14  N   UNL     1      34.134 -15.172 -21.216  0.00  0.00    -0.143 NA
ATOM     15  N   UNL     1      33.976 -12.850 -23.790  0.00  0.00    -0.309 NA
ATOM     16  N   UNL     1      32.601 -11.955 -22.020  0.00  0.00    -0.251 NA
ATOM     17  N   UNL     1      32.851 -10.790 -24.002  0.00  0.00    -0.283 N 
ATOM     18  C   UNL     1      34.282 -13.899 -23.121  0.00  0.00    +0.243 C 
ATOM     19  C   UNL     1      33.737 -14.067 -21.765  0.00  0.00    +0.241 C 
ATOM     20  C   UNL     1      32.857 -13.034 -21.206  0.00  0.00    +0.239 C 
ATOM     21  C   UNL     1      33.134 -11.889 -23.224  0.00  0.00    +0.208 C 
ATOM     22  H   UNL     1      35.548 -15.239 -24.106  0.00  0.00    +0.175 HD
ATOM     23  H   UNL     1      33.236 -10.713 -24.905  0.00  0.00    +0.156 HD
ATOM     24  H   UNL     1      32.264 -10.080 -23.655  0.00  0.00    +0.156 HD
ENDBRANCH   5  12
ENDBRANCH   3   6
BRANCH   2  25
ATOM     25  C   UNL     1      36.474 -21.653 -18.198  0.00  0.00    +0.117 C 
BRANCH  25  26
ATOM     26  C   UNL     1      35.380 -22.288 -17.390  0.00  0.00    +0.003 C 
ATOM     27  C   UNL     1      35.597 -22.748 -16.095  0.00  0.00    +0.027 C 
ATOM     28  C   UNL     1      34.125 -22.408 -17.979  0.00  0.00    -0.002 C 
ATOM     29  C   UNL     1      34.551 -23.333 -15.383  0.00  0.00    +0.006 C 
ATOM     30  C   UNL     1      33.078 -22.993 -17.267  0.00  0.00    -0.000 C 
ATOM     31  C   UNL     1      33.291 -23.455 -15.969  0.00  0.00    +0.000 C 
BRANCH  27  32
ATOM     32  S   UNL     1      37.194 -22.614 -15.300  0.00  0.00    -0.087 S 
BRANCH  32  33
ATOM     33  C   UNL     1      37.204 -24.095 -14.300  0.00  0.00    +0.028 C 
ATOM     34  C   UNL     1      37.239 -24.039 -12.905  0.00  0.00    +0.013 C 
ATOM     35  C   UNL     1      37.176 -25.332 -14.946  0.00  0.00    +0.006 C 
ATOM     36  C   UNL     1      37.246 -25.217 -12.159  0.00  0.00    -0.001 C 
ATOM     37  C   UNL     1      37.183 -26.510 -14.199  0.00  0.00    +0.000 C 
ATOM     38  C   UNL     1      37.218 -26.453 -12.806  0.00  0.00    -0.000 C 
BRANCH  34  39
ATOM     39  C   UNL     1      37.270 -22.740 -12.166  0.00  0.00    +0.164 C 
BRANCH  39  40
ATOM     40  O   UNL     1      38.364 -22.743 -11.259  0.00  0.00    -0.377 OA
ATOM     41  H   UNL     1      39.027 -22.097 -11.549  0.00  0.00    +0.211 HD
ENDBRANCH  39  40
ENDBRANCH  34  39
ENDBRANCH  32  33
ENDBRANCH  27  32
ENDBRANCH  25  26
ENDBRANCH   2  25
TORSDOF 8
ENDMDL
MODEL 2
REMARK VINA RESULT:     -11.9      1.117      1.589
REMARK  Name = 448408
REMARK  8 active torsions:
REMARK  status: ('A' for Active; 'I' for Inactive)
REMARK    1  A    between atoms: N_2  and  C_25
REMARK    2  A    between atoms: C_3  and  C_6
REMARK    3  A    between atoms: C_5  and  N_12
REMARK    4  A    between atoms: C_25  and  C_26
REMARK    5  A    between atoms: C_27  and  S_32
REMARK    6  A    between atoms: S_32  and  C_33
REMARK    7  A    between atoms: C_34  and  C_39
REMARK    8  A    between atoms: C_39  and  O_40
REMARK                            x       y       z     vdW  Elec       q    Type
REMARK                         _______ _______ _______ _____ _____    ______ ____
ROOT
ATOM      1  O   UNL     1      37.575 -19.275 -19.396  0.00  0.00    -0.270 OA
ATOM      2  N   UNL     1      35.946 -20.925 -19.383  0.00  0.00    -0.297 N 
ATOM      3  C   UNL     1      36.544 -19.765 -19.890  0.00  0.00    +0.246 C 
ATOM      4  H   UNL     1      35.130 -21.258 -19.822  0.00  0.00    +0.150 HD
ENDROOT
BRANCH   3   6
ATOM      5  C   UNL     1      35.091 -17.108 -22.123  0.00  0.00    +0.090 C 
ATOM      6  C   UNL     1      35.890 -19.125 -21.020  0.00  0.00    +0.055 C 
ATOM      7  C   UNL     1      35.721 -17.741 -21.037  0.00  0.00    +0.023 C 
ATOM      8  C   UNL     1      34.634 -17.899 -23.189  0.00  0.00    +0.018 C 
ATOM      9  C   UNL     1      35.430 -19.897 -22.088  0.00  0.00    +0.005 C 
ATOM     10  C   UNL     1      34.803 -19.285 -23.172  0.00  0.00    +0.002 C 
BRANCH   5  12
ATOM     11  O   UNL     1      32.360 -13.218 -20.024  0.00  0.00    -0.207 OA
ATOM     12  N   UNL     1      34.924 -15.728 -22.140  0.00  0.00    -0.137 N 
ATOM     13  N   UNL     1      35.012 -14.950 -23.251  0.00  0.00    -0.215 N 
ATOM     14  N   UNL     1      34.097 -15.149 -21.180  0.00  0.00    -0.143 NA
ATOM     15  N   UNL     1      33.945 -12.784 -23.715  0.00  0.00    -0.309 NA
ATOM     16  N   UNL     1      32.547 -11.930 -21.942  0.00  0.00    -0.251 NA
ATOM     17  N   UNL     1      32.807 -10.729 -23.902  0.00  0.00    -0.283 N 
ATOM     18  C   UNL     1      34.253 -13.842 -23.061  0.00  0.00    +0.243 C 
ATOM     19  C   UNL     1      33.696 -14.037 -21.714  0.00  0.00    +0.241 C 
ATOM     20  C   UNL     1      32.803 -13.021 -21.146  0.00  0.00    +0.239 C 
ATOM     21  C   UNL     1      33.091 -11.839 -23.140  0.00  0.00    +0.208 C 
ATOM     22  H   UNL     1      35.538 -15.156 -24.058  0.00  0.00    +0.175 HD
ATOM     23  H   UNL     1      33.199 -10.634 -24.800  0.00  0.00    +0.156 HD
ATOM     24  H   UNL     1      32.211 -10.030 -23.549  0.00  0.00    +0.156 HD
ENDBRANCH   5  12
ENDBRANCH   3   6
BRANCH   2  25
ATOM     25  C   UNL     1      36.462 -21.660 -18.250  0.00  0.00    +0.117 C 
BRANCH  25  26
ATOM     26  C   UNL     1      35.364 -22.296 -17.447  0.00  0.00    +0.003 C 
ATOM     27  C   UNL     1      35.606 -22.881 -16.208  0.00  0.00    +0.027 C 
ATOM     28  C   UNL     1      34.079 -22.285 -17.982  0.00  0.00    -0.002 C 
ATOM     29  C   UNL     1      34.555 -23.461 -15.498  0.00  0.00    +0.006 C 
ATOM     30  C   UNL     1      33.028 -22.865 -17.272  0.00  0.00    -0.000 C 
ATOM     31  C   UNL     1      33.266 -23.452 -16.030  0.00  0.00    +0.000 C 
BRANCH  27  32
ATOM     32  S   UNL     1      37.241 -22.917 -15.484  0.00  0.00    -0.087 S 
BRANCH  32  33
ATOM     33  C   UNL     1      36.909 -23.737 -13.931  0.00  0.00    +0.028 C 
ATOM     34  C   UNL     1      36.983 -25.125 -13.803  0.00  0.00    +0.013 C 
ATOM     35  C   UNL     1      36.569 -22.954 -12.827  0.00  0.00    +0.006 C 
ATOM     36  C   UNL     1      36.717 -25.728 -12.574  0.00  0.00    -0.001 C 
ATOM     37  C   UNL     1      36.303 -23.557 -11.598  0.00  0.00    +0.000 C 
ATOM     38  C   UNL     1      36.377 -24.944 -11.471  0.00  0.00    -0.000 C 
BRANCH  34  39
ATOM     39  C   UNL     1      37.343 -26.008 -14.955  0.00  0.00    +0.164 C 
BRANCH  39  40
ATOM     40  O   UNL     1      36.209 -26.780 -15.325  0.00  0.00    -0.377 OA
ATOM     41  H   UNL     1      35.805 -26.399 -16.121  0.00  0.00    +0.211 HD
ENDBRANCH  39  40
ENDBRANCH  34  39
ENDBRANCH  32  33
ENDBRANCH  27  32
ENDBRANCH  25  26
ENDBRANCH   2  25
TORSDOF 8
ENDMDL
MODEL 3
REMARK VINA RESULT:     -11.9      3.951      7.410
REMARK  Name = 448408
REMARK  8 active torsions:
REMARK  status: ('A' for Active; 'I' for Inactive)
REMARK    1  A    between atoms: N_2  and  C_25
REMARK    2  A    between atoms: C_3  and  C_6
REMARK    3  A    between atoms: C_5  and  N_12
REMARK    4  A    between atoms: C_25  and  C_26
REMARK    5  A    between atoms: C_27  and  S_32
REMARK    6  A    between atoms: S_32  and  C_33
REMARK    7  A    between atoms: C_34  and  C_39
REMARK    8  A    between atoms: C_39  and  O_40
REMARK                            x       y       z     vdW  Elec       q    Type
REMARK                         _______ _______ _______ _____ _____    ______ ____
ROOT
ATOM      1  O   UNL     1      33.297 -14.063 -21.404  0.00  0.00    -0.270 OA
ATOM      2  N   UNL     1      34.844 -14.912 -22.908  0.00  0.00    -0.297 N 
ATOM      3  C   UNL     1      33.926 -13.950 -22.471  0.00  0.00    +0.246 C 
ATOM      4  H   UNL     1      35.306 -14.758 -23.764  0.00  0.00    +0.150 HD
ENDROOT
BRANCH   3   6
ATOM      5  C   UNL     1      33.400 -10.403 -23.612  0.00  0.00    +0.090 C 
ATOM      6  C   UNL     1      33.710 -12.801 -23.337  0.00  0.00    +0.055 C 
ATOM      7  C   UNL     1      33.609 -11.523 -22.788  0.00  0.00    +0.023 C 
ATOM      8  C   UNL     1      33.295 -10.599 -24.999  0.00  0.00    +0.018 C 
ATOM      9  C   UNL     1      33.604 -12.978 -24.717  0.00  0.00    +0.005 C 
ATOM     10  C   UNL     1      33.397 -11.878 -25.547  0.00  0.00    +0.002 C 
BRANCH   5  12
ATOM     11  O   UNL     1      32.340  -7.826 -19.227  0.00  0.00    -0.207 OA
ATOM     12  N   UNL     1      33.300  -9.128 -23.065  0.00  0.00    -0.137 N 
ATOM     13  N   UNL     1      32.815  -8.040 -23.719  0.00  0.00    -0.215 N 
ATOM     14  N   UNL     1      33.129  -9.011 -21.688  0.00  0.00    -0.143 NA
ATOM     15  N   UNL     1      31.745  -6.029 -22.796  0.00  0.00    -0.309 NA
ATOM     16  N   UNL     1      31.530  -5.993 -20.392  0.00  0.00    -0.251 NA
ATOM     17  N   UNL     1      30.756  -4.217 -21.657  0.00  0.00    -0.283 N 
ATOM     18  C   UNL     1      32.313  -7.176 -22.801  0.00  0.00    +0.243 C 
ATOM     19  C   UNL     1      32.548  -7.864 -21.522  0.00  0.00    +0.241 C 
ATOM     20  C   UNL     1      32.129  -7.224 -20.270  0.00  0.00    +0.239 C 
ATOM     21  C   UNL     1      31.359  -5.452 -21.583  0.00  0.00    +0.208 C 
ATOM     22  H   UNL     1      32.826  -7.902 -24.694  0.00  0.00    +0.175 HD
ATOM     23  H   UNL     1      30.616  -3.789 -22.533  0.00  0.00    +0.156 HD
ATOM     24  H   UNL     1      30.464  -3.762 -20.835  0.00  0.00    +0.156 HD
ENDBRANCH   5  12
ENDBRANCH   3   6
BRANCH   2  25
ATOM     25  C   UNL     1      35.148 -16.118 -22.173  0.00  0.00    +0.117 C 
BRANCH  25  26
ATOM     26  C   UNL     1      34.812 -17.353 -22.957  0.00  0.00    +0.003 C 
ATOM     27  C   UNL     1      35.150 -18.625 -22.503  0.00  0.00    +0.027 C 
ATOM     28  C   UNL     1      34.144 -17.192 -24.167  0.00  0.00    -0.002 C 
ATOM     29  C   UNL     1      34.818 -19.744 -23.266  0.00  0.00    +0.006 C 
ATOM     30  C   UNL     1      33.811 -18.311 -24.930  0.00  0.00    -0.000 C 
ATOM     31  C   UNL     1      34.148 -19.587 -24.480  0.00  0.00    +0.000 C 
BRANCH  27  32
ATOM     32  S   UNL     1      36.008 -18.879 -20.956  0.00  0.00    -0.087 S 
BRANCH  32  33
ATOM     33  C   UNL     1      34.957 -20.094 -20.176  0.00  0.00    +0.028 C 
ATOM     34  C   UNL     1      35.474 -21.081 -19.333  0.00  0.00    +0.013 C 
ATOM     35  C   UNL     1      33.585 -20.044 -20.427  0.00  0.00    +0.006 C 
ATOM     36  C   UNL     1      34.621 -22.012 -18.743  0.00  0.00    -0.001 C 
ATOM     37  C   UNL     1      32.732 -20.977 -19.837  0.00  0.00    +0.000 C 
ATOM     38  C   UNL     1      33.250 -21.961 -18.995  0.00  0.00    -0.000 C 
BRANCH  34  39
ATOM     39  C   UNL     1      36.936 -21.178 -19.032  0.00  0.00    +0.164 C 
BRANCH  39  40
ATOM     40  O   UNL     1      37.163 -20.783 -17.686  0.00  0.00    -0.377 OA
ATOM     41  H   UNL     1      36.617 -21.323 -17.094  0.00  0.00    +0.211 HD
ENDBRANCH  39  40
ENDBRANCH  34  39
ENDBRANCH  32  33
ENDBRANCH  27  32
ENDBRANCH  25  26
ENDBRANCH   2  25
TORSDOF 8
ENDMDL
MODEL 4
REMARK VINA RESULT:     -11.6      2.188      3.216
REMARK  Name = 448408
REMARK  8 active torsions:
REMARK  status: ('A' for Active; 'I' for Inactive)
REMARK    1  A    between atoms: N_2  and  C_25
REMARK    2  A    between atoms: C_3  and  C_6
REMARK    3  A    between atoms: C_5  and  N_12
REMARK    4  A    between atoms: C_25  and  C_26
REMARK    5  A    between atoms: C_27  and  S_32
REMARK    6  A    between atoms: S_32  and  C_33
REMARK    7  A    between atoms: C_34  and  C_39
REMARK    8  A    between atoms: C_39  and  O_40
REMARK                            x       y       z     vdW  Elec       q    Type
REMARK                         _______ _______ _______ _____ _____    ______ ____
ROOT
ATOM      1  O   UNL     1      32.596 -21.556 -19.825  0.00  0.00    -0.270 OA
ATOM      2  N   UNL     1      33.786 -22.567 -18.112  0.00  0.00    -0.297 N 
ATOM      3  C   UNL     1      33.657 -21.683 -19.190  0.00  0.00    +0.246 C 
ATOM      4  H   UNL     1      34.656 -22.617 -17.653  0.00  0.00    +0.150 HD
ENDROOT
BRANCH   3   6
ATOM      5  C   UNL     1      35.844 -19.046 -20.744  0.00  0.00    +0.090 C 
ATOM      6  C   UNL     1      34.838 -20.921 -19.564  0.00  0.00    +0.055 C 
ATOM      7  C   UNL     1      34.712 -19.792 -20.374  0.00  0.00    +0.023 C 
ATOM      8  C   UNL     1      37.104 -19.460 -20.282  0.00  0.00    +0.018 C 
ATOM      9  C   UNL     1      36.097 -21.320 -19.113  0.00  0.00    +0.005 C 
ATOM     10  C   UNL     1      37.229 -20.590 -19.472  0.00  0.00    +0.002 C 
BRANCH   5  12
ATOM     11  O   UNL     1      34.388 -14.058 -20.734  0.00  0.00    -0.207 OA
ATOM     12  N   UNL     1      35.719 -17.920 -21.550  0.00  0.00    -0.137 N 
ATOM     13  N   UNL     1      35.334 -17.939 -22.854  0.00  0.00    -0.215 N 
ATOM     14  N   UNL     1      35.404 -16.705 -20.946  0.00  0.00    -0.143 NA
ATOM     15  N   UNL     1      34.224 -16.183 -24.167  0.00  0.00    -0.309 NA
ATOM     16  N   UNL     1      33.754 -14.144 -22.963  0.00  0.00    -0.251 NA
ATOM     17  N   UNL     1      33.167 -14.342 -25.191  0.00  0.00    -0.283 N 
ATOM     18  C   UNL     1      34.760 -16.747 -23.150  0.00  0.00    +0.243 C 
ATOM     19  C   UNL     1      34.839 -16.006 -21.881  0.00  0.00    +0.241 C 
ATOM     20  C   UNL     1      34.305 -14.641 -21.805  0.00  0.00    +0.239 C 
ATOM     21  C   UNL     1      33.726 -14.881 -24.056  0.00  0.00    +0.208 C 
ATOM     22  H   UNL     1      35.454 -18.691 -23.478  0.00  0.00    +0.175 HD
ATOM     23  H   UNL     1      33.132 -14.868 -26.022  0.00  0.00    +0.156 HD
ATOM     24  H   UNL     1      32.800 -13.428 -25.172  0.00  0.00    +0.156 HD
ENDBRANCH   5  12
ENDBRANCH   3   6
BRANCH   2  25
ATOM     25  C   UNL     1      32.712 -23.410 -17.636  0.00  0.00    +0.117 C 
BRANCH  25  26
ATOM     26  C   UNL     1      32.520 -23.289 -16.152  0.00  0.00    +0.003 C 
ATOM     27  C   UNL     1      33.590 -23.365 -15.265  0.00  0.00    +0.027 C 
ATOM     28  C   UNL     1      31.225 -23.097 -15.679  0.00  0.00    -0.002 C 
ATOM     29  C   UNL     1      33.363 -23.249 -13.894  0.00  0.00    +0.006 C 
ATOM     30  C   UNL     1      30.999 -22.980 -14.308  0.00  0.00    -0.000 C 
ATOM     31  C   UNL     1      32.067 -23.056 -13.415  0.00  0.00    +0.000 C 
BRANCH  27  32
ATOM     32  S   UNL     1      35.269 -23.611 -15.829  0.00  0.00    -0.087 S 
BRANCH  32  33
ATOM     33  C   UNL     1      36.087 -24.029 -14.297  0.00  0.00    +0.028 C 
ATOM     34  C   UNL     1      36.398 -25.350 -13.967  0.00  0.00    +0.013 C 
ATOM     35  C   UNL     1      36.417 -22.997 -13.418  0.00  0.00    +0.006 C 
ATOM     36  C   UNL     1      37.038 -25.636 -12.761  0.00  0.00    -0.001 C 
ATOM     37  C   UNL     1      37.056 -23.283 -12.211  0.00  0.00    +0.000 C 
ATOM     38  C   UNL     1      37.367 -24.603 -11.883  0.00  0.00    -0.000 C 
BRANCH  34  39
ATOM     39  C   UNL     1      36.068 -26.491 -14.874  0.00  0.00    +0.164 C 
BRANCH  39  40
ATOM     40  O   UNL     1      37.239 -26.885 -15.577  0.00  0.00    -0.377 OA
ATOM     41  H   UNL     1      37.733 -26.096 -15.848  0.00  0.00    +0.211 HD
ENDBRANCH  39  40
ENDBRANCH  34  39
ENDBRANCH  32  33
ENDBRANCH  27  32
ENDBRANCH  25  26
ENDBRANCH   2  25
TORSDOF 8
ENDMDL
MODEL 5
REMARK VINA RESULT:     -11.4      3.665     11.551
REMARK  Name = 448408
REMARK  8 active torsions:
REMARK  status: ('A' for Active; 'I' for Inactive)
REMARK    1  A    between atoms: N_2  and  C_25
REMARK    2  A    between atoms: C_3  and  C_6
REMARK    3  A    between atoms: C_5  and  N_12
REMARK    4  A    between atoms: C_25  and  C_26
REMARK    5  A    between atoms: C_27  and  S_32
REMARK    6  A    between atoms: S_32  and  C_33
REMARK    7  A    between atoms: C_34  and  C_39
REMARK    8  A    between atoms: C_39  and  O_40
REMARK                            x       y       z     vdW  Elec       q    Type
REMARK                         _______ _______ _______ _____ _____    ______ ____
ROOT
ATOM      1  O   UNL     1      36.797 -20.871 -20.220  0.00  0.00    -0.270 OA
ATOM      2  N   UNL     1      35.073 -19.323 -20.309  0.00  0.00    -0.297 N 
ATOM      3  C   UNL     1      35.666 -20.507 -19.854  0.00  0.00    +0.246 C 
ATOM      4  H   UNL     1      34.174 -19.096 -19.978  0.00  0.00    +0.150 HD
ENDROOT
BRANCH   3   6
ATOM      5  C   UNL     1      34.770 -22.735 -16.957  0.00  0.00    +0.090 C 
ATOM      6  C   UNL     1      34.887 -21.326 -18.938  0.00  0.00    +0.055 C 
ATOM      7  C   UNL     1      35.509 -21.941 -17.851  0.00  0.00    +0.023 C 
ATOM      8  C   UNL     1      33.393 -22.897 -17.182  0.00  0.00    +0.018 C 
ATOM      9  C   UNL     1      33.518 -21.496 -19.147  0.00  0.00    +0.005 C 
ATOM     10  C   UNL     1      32.771 -22.281 -18.269  0.00  0.00    +0.002 C 
BRANCH   5  12
ATOM     11  O   UNL     1      33.952 -24.469 -12.128  0.00  0.00    -0.207 OA
ATOM     12  N   UNL     1      35.389 -23.348 -15.874  0.00  0.00    -0.137 N 
ATOM     13  N   UNL     1      36.670 -23.117 -15.480  0.00  0.00    -0.215 N 
ATOM     14  N   UNL     1      34.597 -23.761 -14.805  0.00  0.00    -0.143 NA
ATOM     15  N   UNL     1      37.667 -23.337 -13.244  0.00  0.00    -0.309 NA
ATOM     16  N   UNL     1      36.150 -24.063 -11.513  0.00  0.00    -0.251 NA
ATOM     17  N   UNL     1      38.366 -23.628 -11.013  0.00  0.00    -0.283 N 
ATOM     18  C   UNL     1      36.763 -23.369 -14.151  0.00  0.00    +0.243 C 
ATOM     19  C   UNL     1      35.397 -23.776 -13.785  0.00  0.00    +0.241 C 
ATOM     20  C   UNL     1      35.098 -24.137 -12.394  0.00  0.00    +0.239 C 
ATOM     21  C   UNL     1      37.343 -23.686 -11.930  0.00  0.00    +0.208 C 
ATOM     22  H   UNL     1      37.406 -22.818 -16.062  0.00  0.00    +0.175 HD
ATOM     23  H   UNL     1      39.267 -23.351 -11.296  0.00  0.00    +0.156 HD
ATOM     24  H   UNL     1      38.197 -23.863 -10.071  0.00  0.00    +0.156 HD
ENDBRANCH   5  12
ENDBRANCH   3   6
BRANCH   2  25
ATOM     25  C   UNL     1      35.709 -18.417 -21.239  0.00  0.00    +0.117 C 
BRANCH  25  26
ATOM     26  C   UNL     1      34.940 -18.300 -22.522  0.00  0.00    +0.003 C 
ATOM     27  C   UNL     1      34.871 -17.103 -23.229  0.00  0.00    +0.027 C 
ATOM     28  C   UNL     1      34.287 -19.435 -22.994  0.00  0.00    -0.002 C 
ATOM     29  C   UNL     1      34.143 -17.041 -24.417  0.00  0.00    +0.006 C 
ATOM     30  C   UNL     1      33.559 -19.373 -24.182  0.00  0.00    -0.000 C 
ATOM     31  C   UNL     1      33.487 -18.177 -24.894  0.00  0.00    +0.000 C 
BRANCH  27  32
ATOM     32  S   UNL     1      35.693 -15.621 -22.661  0.00  0.00    -0.087 S 
BRANCH  32  33
ATOM     33  C   UNL     1      34.325 -14.722 -21.946  0.00  0.00    +0.028 C 
ATOM     34  C   UNL     1      33.554 -13.836 -22.701  0.00  0.00    +0.013 C 
ATOM     35  C   UNL     1      34.033 -14.922 -20.596  0.00  0.00    +0.006 C 
ATOM     36  C   UNL     1      32.493 -13.153 -22.106  0.00  0.00    -0.001 C 
ATOM     37  C   UNL     1      32.972 -14.238 -20.001  0.00  0.00    +0.000 C 
ATOM     38  C   UNL     1      32.202 -13.354 -20.757  0.00  0.00    -0.000 C 
BRANCH  34  39
ATOM     39  C   UNL     1      33.825 -13.588 -24.150  0.00  0.00    +0.164 C 
BRANCH  39  40
ATOM     40  O   UNL     1      32.739 -14.084 -24.921  0.00  0.00    -0.377 OA
ATOM     41  H   UNL     1      32.657 -15.041 -24.784  0.00  0.00    +0.211 HD
ENDBRANCH  39  40
ENDBRANCH  34  39
ENDBRANCH  32  33
ENDBRANCH  27  32
ENDBRANCH  25  26
ENDBRANCH   2  25
TORSDOF 8
ENDMDL
MODEL 6
REMARK VINA RESULT:     -11.4      4.599     13.142
REMARK  Name = 448408
REMARK  8 active torsions:
REMARK  status: ('A' for Active; 'I' for Inactive)
REMARK    1  A    between atoms: N_2  and  C_25
REMARK    2  A    between atoms: C_3  and  C_6
REMARK    3  A    between atoms: C_5  and  N_12
REMARK    4  A    between atoms: C_25  and  C_26
REMARK    5  A    between atoms: C_27  and  S_32
REMARK    6  A    between atoms: S_32  and  C_33
REMARK    7  A    between atoms: C_34  and  C_39
REMARK    8  A    between atoms: C_39  and  O_40
REMARK                            x       y       z     vdW  Elec       q    Type
REMARK                         _______ _______ _______ _____ _____    ______ ____
ROOT
ATOM      1  O   UNL     1      34.508 -14.045 -21.122  0.00  0.00    -0.270 OA
ATOM      2  N   UNL     1      33.106 -13.529 -22.895  0.00  0.00    -0.297 N 
ATOM      3  C   UNL     1      33.996 -14.364 -22.210  0.00  0.00    +0.246 C 
ATOM      4  H   UNL     1      32.738 -13.845 -23.752  0.00  0.00    +0.150 HD
ENDROOT
BRANCH   3   6
ATOM      5  C   UNL     1      35.061 -17.946 -22.648  0.00  0.00    +0.090 C 
ATOM      6  C   UNL     1      34.327 -15.634 -22.838  0.00  0.00    +0.055 C 
ATOM      7  C   UNL     1      34.737 -16.713 -22.055  0.00  0.00    +0.023 C 
ATOM      8  C   UNL     1      34.964 -18.068 -24.044  0.00  0.00    +0.018 C 
ATOM      9  C   UNL     1      34.236 -15.771 -24.224  0.00  0.00    +0.005 C 
ATOM     10  C   UNL     1      34.554 -16.987 -24.826  0.00  0.00    +0.002 C 
BRANCH   5  12
ATOM     11  O   UNL     1      33.317 -21.782 -19.608  0.00  0.00    -0.207 OA
ATOM     12  N   UNL     1      35.469 -19.023 -21.868  0.00  0.00    -0.137 N 
ATOM     13  N   UNL     1      36.592 -19.045 -21.103  0.00  0.00    -0.215 N 
ATOM     14  N   UNL     1      34.495 -19.882 -21.365  0.00  0.00    -0.143 NA
ATOM     15  N   UNL     1      37.055 -20.346 -19.070  0.00  0.00    -0.309 NA
ATOM     16  N   UNL     1      35.258 -21.781 -18.339  0.00  0.00    -0.251 NA
ATOM     17  N   UNL     1      37.240 -21.700 -17.150  0.00  0.00    -0.283 N 
ATOM     18  C   UNL     1      36.397 -19.912 -20.079  0.00  0.00    +0.243 C 
ATOM     19  C   UNL     1      35.032 -20.410 -20.309  0.00  0.00    +0.241 C 
ATOM     20  C   UNL     1      34.454 -21.392 -19.384  0.00  0.00    +0.239 C 
ATOM     21  C   UNL     1      36.470 -21.280 -18.210  0.00  0.00    +0.208 C 
ATOM     22  H   UNL     1      37.409 -18.520 -21.265  0.00  0.00    +0.175 HD
ATOM     23  H   UNL     1      38.149 -21.344 -17.028  0.00  0.00    +0.156 HD
ATOM     24  H   UNL     1      36.880 -22.358 -16.511  0.00  0.00    +0.156 HD
ENDBRANCH   5  12
ENDBRANCH   3   6
BRANCH   2  25
ATOM     25  C   UNL     1      32.698 -12.229 -22.414  0.00  0.00    +0.117 C 
BRANCH  25  26
ATOM     26  C   UNL     1      33.359 -11.116 -23.174  0.00  0.00    +0.003 C 
ATOM     27  C   UNL     1      33.074  -9.779 -22.913  0.00  0.00    +0.027 C 
ATOM     28  C   UNL     1      34.277 -11.461 -24.162  0.00  0.00    -0.002 C 
ATOM     29  C   UNL     1      33.712  -8.779 -23.646  0.00  0.00    +0.006 C 
ATOM     30  C   UNL     1      34.916 -10.461 -24.894  0.00  0.00    -0.000 C 
ATOM     31  C   UNL     1      34.634  -9.120 -24.637  0.00  0.00    +0.000 C 
BRANCH  27  32
ATOM     32  S   UNL     1      31.902  -9.291 -21.655  0.00  0.00    -0.087 S 
BRANCH  32  33
ATOM     33  C   UNL     1      31.809  -7.530 -21.938  0.00  0.00    +0.028 C 
ATOM     34  C   UNL     1      32.351  -6.611 -21.037  0.00  0.00    +0.013 C 
ATOM     35  C   UNL     1      31.172  -7.076 -23.094  0.00  0.00    +0.006 C 
ATOM     36  C   UNL     1      32.259  -5.243 -21.294  0.00  0.00    -0.001 C 
ATOM     37  C   UNL     1      31.079  -5.708 -23.350  0.00  0.00    +0.000 C 
ATOM     38  C   UNL     1      31.622  -4.792 -22.450  0.00  0.00    -0.000 C 
BRANCH  34  39
ATOM     39  C   UNL     1      33.043  -7.045 -19.785  0.00  0.00    +0.164 C 
BRANCH  39  40
ATOM     40  O   UNL     1      32.070  -7.404 -18.813  0.00  0.00    -0.377 OA
ATOM     41  H   UNL     1      31.456  -8.050 -19.195  0.00  0.00    +0.211 HD
ENDBRANCH  39  40
ENDBRANCH  34  39
ENDBRANCH  32  33
ENDBRANCH  27  32
ENDBRANCH  25  26
ENDBRANCH   2  25
TORSDOF 8
ENDMDL
MODEL 7
REMARK VINA RESULT:     -10.8      1.834      2.352
REMARK  Name = 448408
REMARK  8 active torsions:
REMARK  status: ('A' for Active; 'I' for Inactive)
REMARK    1  A    between atoms: N_2  and  C_25
REMARK    2  A    between atoms: C_3  and  C_6
REMARK    3  A    between atoms: C_5  and  N_12
REMARK    4  A    between atoms: C_25  and  C_26
REMARK    5  A    between atoms: C_27  and  S_32
REMARK    6  A    between atoms: S_32  and  C_33
REMARK    7  A    between atoms: C_34  and  C_39
REMARK    8  A    between atoms: C_39  and  O_40
REMARK                            x       y       z     vdW  Elec       q    Type
REMARK                         _______ _______ _______ _____ _____    ______ ____
ROOT
ATOM      1  O   UNL     1      36.849 -18.285 -20.197  0.00  0.00    -0.270 OA
ATOM      2  N   UNL     1      35.833 -20.363 -20.362  0.00  0.00    -0.297 N 
ATOM      3  C   UNL     1      36.100 -19.064 -20.812  0.00  0.00    +0.246 C 
ATOM      4  H   UNL     1      35.229 -20.926 -20.898  0.00  0.00    +0.150 HD
ENDROOT
BRANCH   3   6
ATOM      5  C   UNL     1      34.311 -16.912 -23.327  0.00  0.00    +0.090 C 
ATOM      6  C   UNL     1      35.436 -18.640 -22.035  0.00  0.00    +0.055 C 
ATOM      7  C   UNL     1      34.955 -17.336 -22.151  0.00  0.00    +0.023 C 
ATOM      8  C   UNL     1      34.163 -17.828 -24.381  0.00  0.00    +0.018 C 
ATOM      9  C   UNL     1      35.281 -19.539 -23.091  0.00  0.00    +0.005 C 
ATOM     10  C   UNL     1      34.645 -19.133 -24.264  0.00  0.00    +0.002 C 
BRANCH   5  12
ATOM     11  O   UNL     1      33.126 -13.204 -26.768  0.00  0.00    -0.207 OA
ATOM     12  N   UNL     1      33.832 -15.612 -23.443  0.00  0.00    -0.137 N 
ATOM     13  N   UNL     1      34.119 -14.599 -22.583  0.00  0.00    -0.215 N 
ATOM     14  N   UNL     1      33.534 -15.128 -24.715  0.00  0.00    -0.143 NA
ATOM     15  N   UNL     1      34.165 -12.178 -23.001  0.00  0.00    -0.309 NA
ATOM     16  N   UNL     1      33.623 -11.517 -25.259  0.00  0.00    -0.251 NA
ATOM     17  N   UNL     1      34.136  -9.917 -23.668  0.00  0.00    -0.283 N 
ATOM     18  C   UNL     1      34.020 -13.425 -23.254  0.00  0.00    +0.243 C 
ATOM     19  C   UNL     1      33.642 -13.840 -24.614  0.00  0.00    +0.241 C 
ATOM     20  C   UNL     1      33.438 -12.821 -25.650  0.00  0.00    +0.239 C 
ATOM     21  C   UNL     1      33.963 -11.237 -24.016  0.00  0.00    +0.208 C 
ATOM     22  H   UNL     1      34.359 -14.702 -21.633  0.00  0.00    +0.175 HD
ATOM     23  H   UNL     1      34.388  -9.679 -22.747  0.00  0.00    +0.156 HD
ATOM     24  H   UNL     1      34.006  -9.210 -24.341  0.00  0.00    +0.156 HD
ENDBRANCH   5  12
ENDBRANCH   3   6
BRANCH   2  25
ATOM     25  C   UNL     1      36.396 -20.921 -19.153  0.00  0.00    +0.117 C 
BRANCH  25  26
ATOM     26  C   UNL     1      35.388 -21.726 -18.385  0.00  0.00    +0.003 C 
ATOM     27  C   UNL     1      35.692 -22.298 -17.153  0.00  0.00    +0.027 C 
ATOM     28  C   UNL     1      34.125 -21.890 -18.946  0.00  0.00    -0.002 C 
ATOM     29  C   UNL     1      34.724 -23.039 -16.476  0.00  0.00    +0.006 C 
ATOM     30  C   UNL     1      33.157 -22.631 -18.269  0.00  0.00    -0.000 C 
ATOM     31  C   UNL     1      33.456 -23.205 -17.034  0.00  0.00    +0.000 C 
BRANCH  27  32
ATOM     32  S   UNL     1      37.301 -22.113 -16.396  0.00  0.00    -0.087 S 
BRANCH  32  33
ATOM     33  C   UNL     1      37.097 -23.088 -14.913  0.00  0.00    +0.028 C 
ATOM     34  C   UNL     1      38.020 -24.069 -14.547  0.00  0.00    +0.013 C 
ATOM     35  C   UNL     1      35.979 -22.851 -14.112  0.00  0.00    +0.006 C 
ATOM     36  C   UNL     1      37.826 -24.810 -13.381  0.00  0.00    -0.001 C 
ATOM     37  C   UNL     1      35.785 -23.593 -12.947  0.00  0.00    +0.000 C 
ATOM     38  C   UNL     1      36.708 -24.572 -12.581  0.00  0.00    -0.000 C 
BRANCH  34  39
ATOM     39  C   UNL     1      39.234 -24.362 -15.370  0.00  0.00    +0.164 C 
BRANCH  39  40
ATOM     40  O   UNL     1      40.327 -24.647 -14.507  0.00  0.00    -0.377 OA
ATOM     41  H   UNL     1      40.793 -25.435 -14.827  0.00  0.00    +0.211 HD
ENDBRANCH  39  40
ENDBRANCH  34  39
ENDBRANCH  32  33
ENDBRANCH  27  32
ENDBRANCH  25  26
ENDBRANCH   2  25
TORSDOF 8
ENDMDL
MODEL 8
REMARK VINA RESULT:     -10.7      3.597     11.652
REMARK  Name = 448408
REMARK  8 active torsions:
REMARK  status: ('A' for Active; 'I' for Inactive)
REMARK    1  A    between atoms: N_2  and  C_25
REMARK    2  A    between atoms: C_3  and  C_6
REMARK    3  A    between atoms: C_5  and  N_12
REMARK    4  A    between atoms: C_25  and  C_26
REMARK    5  A    between atoms: C_27  and  S_32
REMARK    6  A    between atoms: S_32  and  C_33
REMARK    7  A    between atoms: C_34  and  C_39
REMARK    8  A    between atoms: C_39  and  O_40
REMARK                            x       y       z     vdW  Elec       q    Type
REMARK                         _______ _______ _______ _____ _____    ______ ____
ROOT
ATOM      1  O   UNL     1      37.046 -21.140 -19.989  0.00  0.00    -0.270 OA
ATOM      2  N   UNL     1      35.336 -19.611 -20.321  0.00  0.00    -0.297 N 
ATOM      3  C   UNL     1      35.890 -20.756 -19.738  0.00  0.00    +0.246 C 
ATOM      4  H   UNL     1      34.414 -19.364 -20.077  0.00  0.00    +0.150 HD
ENDROOT
BRANCH   3   6
ATOM      5  C   UNL     1      34.793 -22.873 -16.828  0.00  0.00    +0.090 C 
ATOM      6  C   UNL     1      35.042 -21.511 -18.829  0.00  0.00    +0.055 C 
ATOM      7  C   UNL     1      35.599 -22.140 -17.715  0.00  0.00    +0.023 C 
ATOM      8  C   UNL     1      33.415 -22.960 -17.087  0.00  0.00    +0.018 C 
ATOM      9  C   UNL     1      33.671 -21.607 -19.072  0.00  0.00    +0.005 C 
ATOM     10  C   UNL     1      32.858 -22.331 -18.202  0.00  0.00    +0.002 C 
BRANCH   5  12
ATOM     11  O   UNL     1      33.767 -24.418 -11.975  0.00  0.00    -0.207 OA
ATOM     12  N   UNL     1      35.347 -23.499 -15.717  0.00  0.00    -0.137 N 
ATOM     13  N   UNL     1      36.634 -23.348 -15.304  0.00  0.00    -0.215 N 
ATOM     14  N   UNL     1      34.509 -23.827 -14.655  0.00  0.00    -0.143 NA
ATOM     15  N   UNL     1      37.571 -23.579 -13.044  0.00  0.00    -0.309 NA
ATOM     16  N   UNL     1      35.976 -24.151 -11.325  0.00  0.00    -0.251 NA
ATOM     17  N   UNL     1      38.208 -23.860 -10.792  0.00  0.00    -0.283 N 
ATOM     18  C   UNL     1      36.684 -23.572 -13.967  0.00  0.00    +0.243 C 
ATOM     19  C   UNL     1      35.287 -23.873 -13.619  0.00  0.00    +0.241 C 
ATOM     20  C   UNL     1      34.938 -24.175 -12.226  0.00  0.00    +0.239 C 
ATOM     21  C   UNL     1      37.200 -23.870 -11.728  0.00  0.00    +0.208 C 
ATOM     22  H   UNL     1      37.399 -23.117 -15.879  0.00  0.00    +0.175 HD
ATOM     23  H   UNL     1      39.131 -23.654 -11.064  0.00  0.00    +0.156 HD
ATOM     24  H   UNL     1      38.005 -24.058  -9.849  0.00  0.00    +0.156 HD
ENDBRANCH   5  12
ENDBRANCH   3   6
BRANCH   2  25
ATOM     25  C   UNL     1      36.042 -18.770 -21.261  0.00  0.00    +0.117 C 
BRANCH  25  26
ATOM     26  C   UNL     1      35.214 -18.469 -22.477  0.00  0.00    +0.003 C 
ATOM     27  C   UNL     1      34.831 -17.171 -22.800  0.00  0.00    +0.027 C 
ATOM     28  C   UNL     1      34.834 -19.538 -23.283  0.00  0.00    -0.002 C 
ATOM     29  C   UNL     1      34.061 -16.939 -23.939  0.00  0.00    +0.006 C 
ATOM     30  C   UNL     1      34.063 -19.306 -24.422  0.00  0.00    -0.000 C 
ATOM     31  C   UNL     1      33.677 -18.007 -24.751  0.00  0.00    +0.000 C 
BRANCH  27  32
ATOM     32  S   UNL     1      35.297 -15.769 -21.793  0.00  0.00    -0.087 S 
BRANCH  32  33
ATOM     33  C   UNL     1      34.240 -14.497 -22.465  0.00  0.00    +0.028 C 
ATOM     34  C   UNL     1      33.407 -13.727 -21.650  0.00  0.00    +0.013 C 
ATOM     35  C   UNL     1      34.257 -14.279 -23.844  0.00  0.00    +0.006 C 
ATOM     36  C   UNL     1      32.595 -12.742 -22.213  0.00  0.00    -0.001 C 
ATOM     37  C   UNL     1      33.445 -13.294 -24.406  0.00  0.00    +0.000 C 
ATOM     38  C   UNL     1      32.614 -12.526 -23.591  0.00  0.00    -0.000 C 
BRANCH  34  39
ATOM     39  C   UNL     1      33.351 -13.920 -20.169  0.00  0.00    +0.164 C 
BRANCH  39  40
ATOM     40  O   UNL     1      32.025 -14.266 -19.791  0.00  0.00    -0.377 OA
ATOM     41  H   UNL     1      31.893 -14.062 -18.852  0.00  0.00    +0.211 HD
ENDBRANCH  39  40
ENDBRANCH  34  39
ENDBRANCH  32  33
ENDBRANCH  27  32
ENDBRANCH  25  26
ENDBRANCH   2  25
TORSDOF 8
ENDMDL
MODEL 9
REMARK VINA RESULT:     -10.7      5.134     11.723
REMARK  Name = 448408
REMARK  8 active torsions:
REMARK  status: ('A' for Active; 'I' for Inactive)
REMARK    1  A    between atoms: N_2  and  C_25
REMARK    2  A    between atoms: C_3  and  C_6
REMARK    3  A    between atoms: C_5  and  N_12
REMARK    4  A    between atoms: C_25  and  C_26
REMARK    5  A    between atoms: C_27  and  S_32
REMARK    6  A    between atoms: S_32  and  C_33
REMARK    7  A    between atoms: C_34  and  C_39
REMARK    8  A    between atoms: C_39  and  O_40
REMARK                            x       y       z     vdW  Elec       q    Type
REMARK                         _______ _______ _______ _____ _____    ______ ____
ROOT
ATOM      1  O   UNL     1      31.111 -22.050 -17.263  0.00  0.00    -0.270 OA
ATOM      2  N   UNL     1      33.308 -22.662 -17.682  0.00  0.00    -0.297 N 
ATOM      3  C   UNL     1      32.150 -22.628 -16.897  0.00  0.00    +0.246 C 
ATOM      4  H   UNL     1      34.095 -23.138 -17.331  0.00  0.00    +0.150 HD
ENDROOT
BRANCH   3   6
ATOM      5  C   UNL     1      33.511 -24.374 -13.854  0.00  0.00    +0.090 C 
ATOM      6  C   UNL     1      32.212 -23.286 -15.601  0.00  0.00    +0.055 C 
ATOM      7  C   UNL     1      33.435 -23.736 -15.105  0.00  0.00    +0.023 C 
ATOM      8  C   UNL     1      32.329 -24.549 -13.116  0.00  0.00    +0.018 C 
ATOM      9  C   UNL     1      31.046 -23.467 -14.855  0.00  0.00    +0.005 C 
ATOM     10  C   UNL     1      31.105 -24.098 -13.613  0.00  0.00    +0.002 C 
BRANCH   5  12
ATOM     11  O   UNL     1      37.874 -22.817 -11.502  0.00  0.00    -0.207 OA
ATOM     12  N   UNL     1      34.731 -24.822 -13.359  0.00  0.00    -0.137 N 
ATOM     13  N   UNL     1      35.489 -25.795 -13.930  0.00  0.00    -0.215 N 
ATOM     14  N   UNL     1      35.513 -23.934 -12.625  0.00  0.00    -0.143 NA
ATOM     15  N   UNL     1      37.921 -26.132 -13.812  0.00  0.00    -0.309 NA
ATOM     16  N   UNL     1      39.120 -24.500 -12.498  0.00  0.00    -0.251 NA
ATOM     17  N   UNL     1      40.260 -26.224 -13.537  0.00  0.00    -0.283 N 
ATOM     18  C   UNL     1      36.785 -25.582 -13.593  0.00  0.00    +0.243 C 
ATOM     19  C   UNL     1      36.726 -24.373 -12.756  0.00  0.00    +0.241 C 
ATOM     20  C   UNL     1      37.963 -23.823 -12.191  0.00  0.00    +0.239 C 
ATOM     21  C   UNL     1      39.078 -25.577 -13.257  0.00  0.00    +0.208 C 
ATOM     22  H   UNL     1      35.154 -26.530 -14.493  0.00  0.00    +0.175 HD
ATOM     23  H   UNL     1      40.259 -27.031 -14.100  0.00  0.00    +0.156 HD
ATOM     24  H   UNL     1      41.107 -25.879 -13.172  0.00  0.00    +0.156 HD
ENDBRANCH   5  12
ENDBRANCH   3   6
BRANCH   2  25
ATOM     25  C   UNL     1      33.411 -22.035 -18.981  0.00  0.00    +0.117 C 
BRANCH  25  26
ATOM     26  C   UNL     1      34.761 -21.415 -19.199  0.00  0.00    +0.003 C 
ATOM     27  C   UNL     1      35.011 -20.559 -20.268  0.00  0.00    +0.027 C 
ATOM     28  C   UNL     1      35.770 -21.721 -18.291  0.00  0.00    -0.002 C 
ATOM     29  C   UNL     1      36.281 -20.007 -20.431  0.00  0.00    +0.006 C 
ATOM     30  C   UNL     1      37.040 -21.169 -18.454  0.00  0.00    -0.000 C 
ATOM     31  C   UNL     1      37.296 -20.312 -19.523  0.00  0.00    +0.000 C 
BRANCH  27  32
ATOM     32  S   UNL     1      33.744 -20.138 -21.458  0.00  0.00    -0.087 S 
BRANCH  32  33
ATOM     33  C   UNL     1      34.388 -18.608 -22.117  0.00  0.00    +0.028 C 
ATOM     34  C   UNL     1      34.311 -18.304 -23.478  0.00  0.00    +0.013 C 
ATOM     35  C   UNL     1      34.982 -17.704 -21.235  0.00  0.00    +0.006 C 
ATOM     36  C   UNL     1      34.825 -17.098 -23.954  0.00  0.00    -0.001 C 
ATOM     37  C   UNL     1      35.497 -16.498 -21.712  0.00  0.00    +0.000 C 
ATOM     38  C   UNL     1      35.418 -16.196 -23.072  0.00  0.00    -0.000 C 
BRANCH  34  39
ATOM     39  C   UNL     1      33.684 -19.238 -24.463  0.00  0.00    +0.164 C 
BRANCH  39  40
ATOM     40  O   UNL     1      32.578 -18.594 -25.081  0.00  0.00    -0.377 OA
ATOM     41  H   UNL     1      32.318 -17.822 -24.554  0.00  0.00    +0.211 HD
ENDBRANCH  39  40
ENDBRANCH  34  39
ENDBRANCH  32  33
ENDBRANCH  27  32
ENDBRANCH  25  26
ENDBRANCH   2  25
TORSDOF 8
ENDMDL
