MODEL 1
REMARK VINA RESULT:     -12.2      0.000      0.000
REMARK  Name = 3478
REMARK  7 active torsions:
REMARK  status: ('A' for Active; 'I' for Inactive)
REMARK    1  A    between atoms: C_1  and  S_7
REMARK    2  A    between atoms: C_2  and  C_22
REMARK    3  A    between atoms: S_7  and  N_12
REMARK    4  A    between atoms: N_11  and  C_16
REMARK    5  A    between atoms: C_22  and  C_23
REMARK    6  A    between atoms: C_23  and  N_25
REMARK    7  A    between atoms: C_26  and  C_30
REMARK                            x       y       z     vdW  Elec       q    Type
REMARK                         _______ _______ _______ _____ _____    ______ ____
ROOT
ATOM      1  C   UNL     1      34.327 -21.886 -18.698  0.00  0.00    +0.125 C 
ATOM      2  C   UNL     1      35.592 -20.022 -20.343  0.00  0.00    -0.020 C 
ATOM      3  C   UNL     1      35.716 -21.763 -18.674  0.00  0.00    +0.020 C 
ATOM      4  C   UNL     1      33.570 -21.077 -19.545  0.00  0.00    +0.020 C 
ATOM      5  C   UNL     1      36.349 -20.832 -19.496  0.00  0.00    -0.003 C 
ATOM      6  C   UNL     1      34.203 -20.145 -20.368  0.00  0.00    -0.003 C 
ENDROOT
BRANCH   1   7
ATOM      7  S   UNL     1      33.525 -23.067 -17.655  0.00  0.00    +0.077 S 
ATOM      8  O   UNL     1      33.517 -24.344 -18.343  0.00  0.00    -0.150 OA
ATOM      9  O   UNL     1      32.283 -22.462 -17.214  0.00  0.00    -0.150 OA
BRANCH   7  12
ATOM     10  O   UNL     1      33.451 -24.627 -14.971  0.00  0.00    -0.251 OA
ATOM     11  N   UNL     1      35.480 -23.775 -14.263  0.00  0.00    -0.289 N 
ATOM     12  N   UNL     1      34.616 -23.137 -16.342  0.00  0.00    -0.169 N 
ATOM     13  C   UNL     1      34.435 -23.916 -15.154  0.00  0.00    +0.319 C 
ATOM     14  H   UNL     1      36.226 -23.178 -14.504  0.00  0.00    +0.151 HD
ATOM     15  H   UNL     1      35.437 -22.597 -16.407  0.00  0.00    +0.178 HD
BRANCH  11  16
ATOM     16  C   UNL     1      35.530 -24.465 -12.993  0.00  0.00    +0.073 C 
ATOM     17  C   UNL     1      35.881 -23.501 -11.855  0.00  0.00    +0.020 C 
ATOM     18  C   UNL     1      36.508 -25.643 -13.045  0.00  0.00    +0.020 C 
ATOM     19  C   UNL     1      37.341 -23.051 -11.899  0.00  0.00    +0.002 C 
ATOM     20  C   UNL     1      37.967 -25.191 -13.087  0.00  0.00    +0.002 C 
ATOM     21  C   UNL     1      38.296 -24.242 -11.938  0.00  0.00    +0.000 C 
ENDBRANCH  11  16
ENDBRANCH   7  12
ENDBRANCH   1   7
BRANCH   2  22
ATOM     22  C   UNL     1      36.268 -19.025 -21.223  0.00  0.00    +0.048 C 
BRANCH  22  23
ATOM     23  C   UNL     1      35.550 -18.802 -22.560  0.00  0.00    +0.094 C 
BRANCH  23  25
ATOM     24  O   UNL     1      34.106 -17.721 -24.794  0.00  0.00    -0.269 OA
ATOM     25  N   UNL     1      35.177 -17.427 -22.757  0.00  0.00    -0.300 N 
ATOM     26  C   UNL     1      34.475 -16.993 -23.876  0.00  0.00    +0.261 C 
ATOM     27  H   UNL     1      35.430 -16.766 -22.073  0.00  0.00    +0.150 HD
BRANCH  26  30
ATOM     28  N   UNL     1      33.662 -15.078 -25.096  0.00  0.00    -0.262 NA
ATOM     29  N   UNL     1      34.199 -13.381 -22.928  0.00  0.00    -0.270 NA
ATOM     30  C   UNL     1      34.190 -15.537 -23.944  0.00  0.00    +0.132 C 
ATOM     31  C   UNL     1      34.454 -14.704 -22.879  0.00  0.00    +0.174 C 
ATOM     32  C   UNL     1      33.672 -12.921 -24.080  0.00  0.00    +0.057 C 
ATOM     33  C   UNL     1      33.408 -13.756 -25.145  0.00  0.00    +0.166 C 
ATOM     34  C   UNL     1      33.376 -11.465 -24.170  0.00  0.00    +0.049 C 
ENDBRANCH  26  30
ENDBRANCH  23  25
ENDBRANCH  22  23
ENDBRANCH   2  22
TORSDOF 7
ENDMDL
MODEL 2
REMARK VINA RESULT:     -10.8      3.308      4.310
REMARK  Name = 3478
REMARK  7 active torsions:
REMARK  status: ('A' for Active; 'I' for Inactive)
REMARK    1  A    between atoms: C_1  and  S_7
REMARK    2  A    between atoms: C_2  and  C_22
REMARK    3  A    between atoms: S_7  and  N_12
REMARK    4  A    between atoms: N_11  and  C_16
REMARK    5  A    between atoms: C_22  and  C_23
REMARK    6  A    between atoms: C_23  and  N_25
REMARK    7  A    between atoms: C_26  and  C_30
REMARK                            x       y       z     vdW  Elec       q    Type
REMARK                         _______ _______ _______ _____ _____    ______ ____
ROOT
ATOM      1  C   UNL     1      34.703 -21.658 -19.272  0.00  0.00    +0.125 C 
ATOM      2  C   UNL     1      35.521 -19.434 -20.743  0.00  0.00    -0.020 C 
ATOM      3  C   UNL     1      36.055 -21.321 -19.334  0.00  0.00    +0.020 C 
ATOM      4  C   UNL     1      33.760 -20.884 -19.946  0.00  0.00    +0.020 C 
ATOM      5  C   UNL     1      36.464 -20.210 -20.070  0.00  0.00    -0.003 C 
ATOM      6  C   UNL     1      34.169 -19.771 -20.682  0.00  0.00    -0.003 C 
ENDROOT
BRANCH   1   7
ATOM      7  S   UNL     1      34.185 -23.068 -18.339  0.00  0.00    +0.077 S 
ATOM      8  O   UNL     1      35.021 -23.160 -17.158  0.00  0.00    -0.150 OA
ATOM      9  O   UNL     1      34.100 -24.178 -19.269  0.00  0.00    -0.150 OA
BRANCH   7  12
ATOM     10  O   UNL     1      32.550 -23.519 -15.737  0.00  0.00    -0.251 OA
ATOM     11  N   UNL     1      30.705 -22.379 -16.536  0.00  0.00    -0.289 N 
ATOM     12  N   UNL     1      32.608 -22.595 -17.882  0.00  0.00    -0.169 N 
ATOM     13  C   UNL     1      31.986 -22.887 -16.626  0.00  0.00    +0.319 C 
ATOM     14  H   UNL     1      30.341 -21.884 -17.307  0.00  0.00    +0.151 HD
ATOM     15  H   UNL     1      32.083 -22.080 -18.536  0.00  0.00    +0.178 HD
BRANCH  11  16
ATOM     16  C   UNL     1      29.876 -22.538 -15.364  0.00  0.00    +0.073 C 
ATOM     17  C   UNL     1      30.171 -23.865 -14.655  0.00  0.00    +0.020 C 
ATOM     18  C   UNL     1      28.390 -22.417 -15.720  0.00  0.00    +0.020 C 
ATOM     19  C   UNL     1      29.653 -25.072 -15.437  0.00  0.00    +0.002 C 
ATOM     20  C   UNL     1      27.874 -23.627 -16.499  0.00  0.00    +0.002 C 
ATOM     21  C   UNL     1      28.170 -24.934 -15.769  0.00  0.00    +0.000 C 
ENDBRANCH  11  16
ENDBRANCH   7  12
ENDBRANCH   1   7
BRANCH   2  22
ATOM     22  C   UNL     1      35.958 -18.245 -21.530  0.00  0.00    +0.048 C 
BRANCH  22  23
ATOM     23  C   UNL     1      35.108 -17.994 -22.782  0.00  0.00    +0.094 C 
BRANCH  23  25
ATOM     24  O   UNL     1      33.635 -16.832 -24.957  0.00  0.00    -0.269 OA
ATOM     25  N   UNL     1      34.818 -16.598 -22.975  0.00  0.00    -0.300 N 
ATOM     26  C   UNL     1      34.095 -16.125 -24.063  0.00  0.00    +0.261 C 
ATOM     27  H   UNL     1      35.146 -15.951 -22.308  0.00  0.00    +0.150 HD
BRANCH  26  30
ATOM     28  N   UNL     1      34.149 -13.960 -23.002  0.00  0.00    -0.262 NA
ATOM     29  N   UNL     1      33.321 -12.701 -25.368  0.00  0.00    -0.270 NA
ATOM     30  C   UNL     1      33.903 -14.653 -24.131  0.00  0.00    +0.132 C 
ATOM     31  C   UNL     1      33.498 -14.036 -25.294  0.00  0.00    +0.174 C 
ATOM     32  C   UNL     1      33.565 -12.007 -24.238  0.00  0.00    +0.057 C 
ATOM     33  C   UNL     1      33.972 -12.626 -23.076  0.00  0.00    +0.166 C 
ATOM     34  C   UNL     1      33.382 -10.531 -24.284  0.00  0.00    +0.049 C 
ENDBRANCH  26  30
ENDBRANCH  23  25
ENDBRANCH  22  23
ENDBRANCH   2  22
TORSDOF 7
ENDMDL
MODEL 3
REMARK VINA RESULT:     -10.7      2.880      4.566
REMARK  Name = 3478
REMARK  7 active torsions:
REMARK  status: ('A' for Active; 'I' for Inactive)
REMARK    1  A    between atoms: C_1  and  S_7
REMARK    2  A    between atoms: C_2  and  C_22
REMARK    3  A    between atoms: S_7  and  N_12
REMARK    4  A    between atoms: N_11  and  C_16
REMARK    5  A    between atoms: C_22  and  C_23
REMARK    6  A    between atoms: C_23  and  N_25
REMARK    7  A    between atoms: C_26  and  C_30
REMARK                            x       y       z     vdW  Elec       q    Type
REMARK                         _______ _______ _______ _____ _____    ______ ____
ROOT
ATOM      1  C   UNL     1      35.309 -22.749 -16.702  0.00  0.00    +0.125 C 
ATOM      2  C   UNL     1      35.231 -21.362 -19.121  0.00  0.00    -0.020 C 
ATOM      3  C   UNL     1      34.137 -22.729 -17.458  0.00  0.00    +0.020 C 
ATOM      4  C   UNL     1      36.442 -22.075 -17.155  0.00  0.00    +0.020 C 
ATOM      5  C   UNL     1      34.097 -22.035 -18.667  0.00  0.00    -0.003 C 
ATOM      6  C   UNL     1      36.403 -21.381 -18.365  0.00  0.00    -0.003 C 
ENDROOT
BRANCH   1   7
ATOM      7  S   UNL     1      35.358 -23.629 -15.170  0.00  0.00    +0.077 S 
ATOM      8  O   UNL     1      35.507 -22.662 -14.099  0.00  0.00    -0.150 OA
ATOM      9  O   UNL     1      36.321 -24.701 -15.333  0.00  0.00    -0.150 OA
BRANCH   7  12
ATOM     10  O   UNL     1      32.731 -22.649 -13.834  0.00  0.00    -0.251 OA
ATOM     11  N   UNL     1      31.513 -24.466 -14.580  0.00  0.00    -0.289 N 
ATOM     12  N   UNL     1      33.783 -24.290 -15.121  0.00  0.00    -0.169 N 
ATOM     13  C   UNL     1      32.661 -23.709 -14.449  0.00  0.00    +0.319 C 
ATOM     14  H   UNL     1      31.560 -25.304 -15.096  0.00  0.00    +0.151 HD
ATOM     15  H   UNL     1      33.635 -25.141 -15.594  0.00  0.00    +0.178 HD
BRANCH  11  16
ATOM     16  C   UNL     1      30.248 -24.085 -13.995  0.00  0.00    +0.073 C 
ATOM     17  C   UNL     1      29.173 -25.144 -14.264  0.00  0.00    +0.020 C 
ATOM     18  C   UNL     1      29.804 -22.705 -14.493  0.00  0.00    +0.020 C 
ATOM     19  C   UNL     1      28.724 -25.163 -15.725  0.00  0.00    +0.002 C 
ATOM     20  C   UNL     1      29.354 -22.727 -15.953  0.00  0.00    +0.002 C 
ATOM     21  C   UNL     1      28.277 -23.781 -16.194  0.00  0.00    +0.000 C 
ENDBRANCH  11  16
ENDBRANCH   7  12
ENDBRANCH   1   7
BRANCH   2  22
ATOM     22  C   UNL     1      35.190 -20.619 -20.414  0.00  0.00    +0.048 C 
BRANCH  22  23
ATOM     23  C   UNL     1      36.114 -19.396 -20.447  0.00  0.00    +0.094 C 
BRANCH  23  25
ATOM     24  O   UNL     1      36.028 -19.090 -23.300  0.00  0.00    -0.269 OA
ATOM     25  N   UNL     1      35.540 -18.297 -21.176  0.00  0.00    -0.300 N 
ATOM     26  C   UNL     1      35.545 -18.233 -22.564  0.00  0.00    +0.261 C 
ATOM     27  H   UNL     1      35.128 -17.559 -20.671  0.00  0.00    +0.150 HD
BRANCH  26  30
ATOM     28  N   UNL     1      34.890 -15.919 -22.388  0.00  0.00    -0.262 NA
ATOM     29  N   UNL     1      33.891 -15.929 -25.009  0.00  0.00    -0.270 NA
ATOM     30  C   UNL     1      34.936 -17.019 -23.165  0.00  0.00    +0.132 C 
ATOM     31  C   UNL     1      34.446 -17.024 -24.453  0.00  0.00    +0.174 C 
ATOM     32  C   UNL     1      33.844 -14.829 -24.232  0.00  0.00    +0.057 C 
ATOM     33  C   UNL     1      34.335 -14.824 -22.944  0.00  0.00    +0.166 C 
ATOM     34  C   UNL     1      33.239 -13.600 -24.815  0.00  0.00    +0.049 C 
ENDBRANCH  26  30
ENDBRANCH  23  25
ENDBRANCH  22  23
ENDBRANCH   2  22
TORSDOF 7
ENDMDL
MODEL 4
REMARK VINA RESULT:     -10.3      2.801      4.296
REMARK  Name = 3478
REMARK  7 active torsions:
REMARK  status: ('A' for Active; 'I' for Inactive)
REMARK    1  A    between atoms: C_1  and  S_7
REMARK    2  A    between atoms: C_2  and  C_22
REMARK    3  A    between atoms: S_7  and  N_12
REMARK    4  A    between atoms: N_11  and  C_16
REMARK    5  A    between atoms: C_22  and  C_23
REMARK    6  A    between atoms: C_23  and  N_25
REMARK    7  A    between atoms: C_26  and  C_30
REMARK                            x       y       z     vdW  Elec       q    Type
REMARK                         _______ _______ _______ _____ _____    ______ ____
ROOT
ATOM      1  C   UNL     1      32.353 -23.688 -14.771  0.00  0.00    +0.125 C 
ATOM      2  C   UNL     1      32.737 -22.719 -17.358  0.00  0.00    -0.020 C 
ATOM      3  C   UNL     1      31.272 -23.190 -15.498  0.00  0.00    +0.020 C 
ATOM      4  C   UNL     1      33.627 -23.701 -15.337  0.00  0.00    +0.020 C 
ATOM      5  C   UNL     1      31.463 -22.705 -16.791  0.00  0.00    -0.003 C 
ATOM      6  C   UNL     1      33.819 -23.216 -16.632  0.00  0.00    -0.003 C 
ENDROOT
BRANCH   1   7
ATOM      7  S   UNL     1      32.109 -24.302 -13.132  0.00  0.00    +0.077 S 
ATOM      8  O   UNL     1      31.027 -25.267 -13.168  0.00  0.00    -0.150 OA
ATOM      9  O   UNL     1      32.036 -23.147 -12.258  0.00  0.00    -0.150 OA
BRANCH   7  12
ATOM     10  O   UNL     1      34.891 -23.307 -12.173  0.00  0.00    -0.251 OA
ATOM     11  N   UNL     1      35.836 -25.414 -12.291  0.00  0.00    -0.289 N 
ATOM     12  N   UNL     1      33.587 -25.118 -12.865  0.00  0.00    -0.169 N 
ATOM     13  C   UNL     1      34.802 -24.507 -12.417  0.00  0.00    +0.319 C 
ATOM     14  H   UNL     1      35.663 -26.358 -12.512  0.00  0.00    +0.151 HD
ATOM     15  H   UNL     1      33.605 -26.088 -13.034  0.00  0.00    +0.178 HD
BRANCH  11  16
ATOM     16  C   UNL     1      37.161 -25.039 -11.850  0.00  0.00    +0.073 C 
ATOM     17  C   UNL     1      37.649 -23.780 -12.574  0.00  0.00    +0.020 C 
ATOM     18  C   UNL     1      38.148 -26.198 -12.025  0.00  0.00    +0.020 C 
ATOM     19  C   UNL     1      37.990 -24.044 -14.040  0.00  0.00    +0.002 C 
ATOM     20  C   UNL     1      38.489 -26.459 -13.492  0.00  0.00    +0.002 C 
ATOM     21  C   UNL     1      38.982 -25.194 -14.189  0.00  0.00    +0.000 C 
ENDBRANCH  11  16
ENDBRANCH   7  12
ENDBRANCH   1   7
BRANCH   2  22
ATOM     22  C   UNL     1      32.944 -22.200 -18.742  0.00  0.00    +0.048 C 
BRANCH  22  23
ATOM     23  C   UNL     1      34.291 -21.493 -18.936  0.00  0.00    +0.094 C 
BRANCH  23  25
ATOM     24  O   UNL     1      36.512 -19.997 -19.972  0.00  0.00    -0.269 OA
ATOM     25  N   UNL     1      34.256 -20.536 -20.009  0.00  0.00    -0.300 N 
ATOM     26  C   UNL     1      35.387 -19.856 -20.445  0.00  0.00    +0.261 C 
ATOM     27  H   UNL     1      33.395 -20.354 -20.452  0.00  0.00    +0.150 HD
BRANCH  26  30
ATOM     28  N   UNL     1      34.660 -19.365 -22.691  0.00  0.00    -0.262 NA
ATOM     29  N   UNL     1      35.316 -16.654 -22.386  0.00  0.00    -0.270 NA
ATOM     30  C   UNL     1      35.179 -18.880 -21.546  0.00  0.00    +0.132 C 
ATOM     31  C   UNL     1      35.501 -17.549 -21.395  0.00  0.00    +0.174 C 
ATOM     32  C   UNL     1      34.798 -17.138 -23.533  0.00  0.00    +0.057 C 
ATOM     33  C   UNL     1      34.475 -18.470 -23.682  0.00  0.00    +0.166 C 
ATOM     34  C   UNL     1      34.580 -16.177 -24.649  0.00  0.00    +0.049 C 
ENDBRANCH  26  30
ENDBRANCH  23  25
ENDBRANCH  22  23
ENDBRANCH   2  22
TORSDOF 7
ENDMDL
MODEL 5
REMARK VINA RESULT:     -10.2      6.433     10.521
REMARK  Name = 3478
REMARK  7 active torsions:
REMARK  status: ('A' for Active; 'I' for Inactive)
REMARK    1  A    between atoms: C_1  and  S_7
REMARK    2  A    between atoms: C_2  and  C_22
REMARK    3  A    between atoms: S_7  and  N_12
REMARK    4  A    between atoms: N_11  and  C_16
REMARK    5  A    between atoms: C_22  and  C_23
REMARK    6  A    between atoms: C_23  and  N_25
REMARK    7  A    between atoms: C_26  and  C_30
REMARK                            x       y       z     vdW  Elec       q    Type
REMARK                         _______ _______ _______ _____ _____    ______ ____
ROOT
ATOM      1  C   UNL     1      32.912 -12.784 -22.572  0.00  0.00    +0.125 C 
ATOM      2  C   UNL     1      31.820 -11.248 -20.516  0.00  0.00    -0.020 C 
ATOM      3  C   UNL     1      32.743 -13.336 -21.303  0.00  0.00    +0.020 C 
ATOM      4  C   UNL     1      32.535 -11.463 -22.814  0.00  0.00    +0.020 C 
ATOM      5  C   UNL     1      32.197 -12.569 -20.275  0.00  0.00    -0.003 C 
ATOM      6  C   UNL     1      31.989 -10.695 -21.785  0.00  0.00    -0.003 C 
ENDROOT
BRANCH   1   7
ATOM      7  S   UNL     1      33.604 -13.757 -23.876  0.00  0.00    +0.077 S 
ATOM      8  O   UNL     1      34.601 -12.955 -24.557  0.00  0.00    -0.150 OA
ATOM      9  O   UNL     1      32.490 -14.326 -24.610  0.00  0.00    -0.150 OA
BRANCH   7  12
ATOM     10  O   UNL     1      34.682 -16.552 -24.697  0.00  0.00    -0.251 OA
ATOM     11  N   UNL     1      35.418 -17.046 -22.563  0.00  0.00    -0.289 N 
ATOM     12  N   UNL     1      34.381 -14.991 -22.986  0.00  0.00    -0.169 N 
ATOM     13  C   UNL     1      34.823 -16.244 -23.517  0.00  0.00    +0.319 C 
ATOM     14  H   UNL     1      35.483 -16.707 -21.640  0.00  0.00    +0.151 HD
ATOM     15  H   UNL     1      34.538 -14.827 -22.027  0.00  0.00    +0.178 HD
BRANCH  11  16
ATOM     16  C   UNL     1      35.949 -18.358 -22.857  0.00  0.00    +0.073 C 
ATOM     17  C   UNL     1      34.885 -19.442 -22.657  0.00  0.00    +0.020 C 
ATOM     18  C   UNL     1      37.200 -18.646 -22.019  0.00  0.00    +0.020 C 
ATOM     19  C   UNL     1      34.563 -19.679 -21.181  0.00  0.00    +0.002 C 
ATOM     20  C   UNL     1      36.874 -18.884 -20.545  0.00  0.00    +0.002 C 
ATOM     21  C   UNL     1      35.821 -19.975 -20.371  0.00  0.00    +0.000 C 
ENDBRANCH  11  16
ENDBRANCH   7  12
ENDBRANCH   1   7
BRANCH   2  22
ATOM     22  C   UNL     1      31.236 -10.427 -19.417  0.00  0.00    +0.048 C 
BRANCH  22  23
ATOM     23  C   UNL     1      32.041  -9.158 -19.106  0.00  0.00    +0.094 C 
BRANCH  23  25
ATOM     24  O   UNL     1      33.075  -6.481 -19.032  0.00  0.00    -0.269 OA
ATOM     25  N   UNL     1      31.867  -8.142 -20.109  0.00  0.00    -0.300 N 
ATOM     26  C   UNL     1      32.407  -6.867 -19.987  0.00  0.00    +0.261 C 
ATOM     27  H   UNL     1      31.343  -8.358 -20.915  0.00  0.00    +0.150 HD
BRANCH  26  30
ATOM     28  N   UNL     1      32.990  -5.907 -22.121  0.00  0.00    -0.262 NA
ATOM     29  N   UNL     1      30.724  -4.254 -22.076  0.00  0.00    -0.270 NA
ATOM     30  C   UNL     1      32.114  -5.924 -21.097  0.00  0.00    +0.132 C 
ATOM     31  C   UNL     1      31.001  -5.113 -21.074  0.00  0.00    +0.174 C 
ATOM     32  C   UNL     1      31.600  -4.235 -23.100  0.00  0.00    +0.057 C 
ATOM     33  C   UNL     1      32.713  -5.048 -23.122  0.00  0.00    +0.166 C 
ATOM     34  C   UNL     1      31.325  -3.299 -24.224  0.00  0.00    +0.049 C 
ENDBRANCH  26  30
ENDBRANCH  23  25
ENDBRANCH  22  23
ENDBRANCH   2  22
TORSDOF 7
ENDMDL
MODEL 6
REMARK VINA RESULT:     -10.2      1.802      2.421
REMARK  Name = 3478
REMARK  7 active torsions:
REMARK  status: ('A' for Active; 'I' for Inactive)
REMARK    1  A    between atoms: C_1  and  S_7
REMARK    2  A    between atoms: C_2  and  C_22
REMARK    3  A    between atoms: S_7  and  N_12
REMARK    4  A    between atoms: N_11  and  C_16
REMARK    5  A    between atoms: C_22  and  C_23
REMARK    6  A    between atoms: C_23  and  N_25
REMARK    7  A    between atoms: C_26  and  C_30
REMARK                            x       y       z     vdW  Elec       q    Type
REMARK                         _______ _______ _______ _____ _____    ______ ____
ROOT
ATOM      1  C   UNL     1      33.990 -21.594 -19.228  0.00  0.00    +0.125 C 
ATOM      2  C   UNL     1      34.871 -19.762 -21.137  0.00  0.00    -0.020 C 
ATOM      3  C   UNL     1      33.065 -20.902 -20.010  0.00  0.00    +0.020 C 
ATOM      4  C   UNL     1      35.355 -21.370 -19.400  0.00  0.00    +0.020 C 
ATOM      5  C   UNL     1      33.505 -19.986 -20.964  0.00  0.00    -0.003 C 
ATOM      6  C   UNL     1      35.796 -20.453 -20.355  0.00  0.00    -0.003 C 
ENDROOT
BRANCH   1   7
ATOM      7  S   UNL     1      33.432 -22.756 -18.018  0.00  0.00    +0.077 S 
ATOM      8  O   UNL     1      33.438 -24.074 -18.622  0.00  0.00    -0.150 OA
ATOM      9  O   UNL     1      32.214 -22.214 -17.447  0.00  0.00    -0.150 OA
BRANCH   7  12
ATOM     10  O   UNL     1      33.703 -23.878 -15.135  0.00  0.00    -0.251 OA
ATOM     11  N   UNL     1      35.817 -22.991 -14.842  0.00  0.00    -0.289 N 
ATOM     12  N   UNL     1      34.688 -22.656 -16.864  0.00  0.00    -0.169 N 
ATOM     13  C   UNL     1      34.660 -23.235 -15.555  0.00  0.00    +0.319 C 
ATOM     14  H   UNL     1      36.530 -22.461 -15.269  0.00  0.00    +0.151 HD
ATOM     15  H   UNL     1      35.498 -22.158 -17.120  0.00  0.00    +0.178 HD
BRANCH  11  16
ATOM     16  C   UNL     1      36.030 -23.476 -13.497  0.00  0.00    +0.073 C 
ATOM     17  C   UNL     1      37.499 -23.334 -13.084  0.00  0.00    +0.020 C 
ATOM     18  C   UNL     1      35.550 -24.925 -13.353  0.00  0.00    +0.020 C 
ATOM     19  C   UNL     1      38.407 -24.329 -13.806  0.00  0.00    +0.002 C 
ATOM     20  C   UNL     1      36.462 -25.918 -14.074  0.00  0.00    +0.002 C 
ATOM     21  C   UNL     1      37.916 -25.764 -13.638  0.00  0.00    +0.000 C 
ENDBRANCH  11  16
ENDBRANCH   7  12
ENDBRANCH   1   7
BRANCH   2  22
ATOM     22  C   UNL     1      35.343 -18.782 -22.158  0.00  0.00    +0.048 C 
BRANCH  22  23
ATOM     23  C   UNL     1      35.980 -17.525 -21.551  0.00  0.00    +0.094 C 
BRANCH  23  25
ATOM     24  O   UNL     1      34.818 -15.854 -19.527  0.00  0.00    -0.269 OA
ATOM     25  N   UNL     1      35.180 -16.349 -21.764  0.00  0.00    -0.300 N 
ATOM     26  C   UNL     1      34.656 -15.599 -20.717  0.00  0.00    +0.261 C 
ATOM     27  H   UNL     1      34.995 -16.065 -22.689  0.00  0.00    +0.150 HD
BRANCH  26  30
ATOM     28  N   UNL     1      33.018 -13.922 -20.153  0.00  0.00    -0.262 NA
ATOM     29  N   UNL     1      33.144 -12.830 -22.734  0.00  0.00    -0.270 NA
ATOM     30  C   UNL     1      33.828 -14.428 -21.104  0.00  0.00    +0.132 C 
ATOM     31  C   UNL     1      33.890 -13.892 -22.371  0.00  0.00    +0.174 C 
ATOM     32  C   UNL     1      32.334 -12.323 -21.784  0.00  0.00    +0.057 C 
ATOM     33  C   UNL     1      32.272 -12.859 -20.515  0.00  0.00    +0.166 C 
ATOM     34  C   UNL     1      31.496 -11.147 -22.149  0.00  0.00    +0.049 C 
ENDBRANCH  26  30
ENDBRANCH  23  25
ENDBRANCH  22  23
ENDBRANCH   2  22
TORSDOF 7
ENDMDL
MODEL 7
REMARK VINA RESULT:     -10.0      4.888     13.273
REMARK  Name = 3478
REMARK  7 active torsions:
REMARK  status: ('A' for Active; 'I' for Inactive)
REMARK    1  A    between atoms: C_1  and  S_7
REMARK    2  A    between atoms: C_2  and  C_22
REMARK    3  A    between atoms: S_7  and  N_12
REMARK    4  A    between atoms: N_11  and  C_16
REMARK    5  A    between atoms: C_22  and  C_23
REMARK    6  A    between atoms: C_23  and  N_25
REMARK    7  A    between atoms: C_26  and  C_30
REMARK                            x       y       z     vdW  Elec       q    Type
REMARK                         _______ _______ _______ _____ _____    ______ ____
ROOT
ATOM      1  C   UNL     1      32.822 -12.878 -21.812  0.00  0.00    +0.125 C 
ATOM      2  C   UNL     1      34.486 -14.957 -22.642  0.00  0.00    -0.020 C 
ATOM      3  C   UNL     1      33.062 -13.079 -23.171  0.00  0.00    +0.020 C 
ATOM      4  C   UNL     1      33.414 -13.716 -20.867  0.00  0.00    +0.020 C 
ATOM      5  C   UNL     1      33.895 -14.118 -23.586  0.00  0.00    -0.003 C 
ATOM      6  C   UNL     1      34.247 -14.755 -21.283  0.00  0.00    -0.003 C 
ENDROOT
BRANCH   1   7
ATOM      7  S   UNL     1      31.767 -11.561 -21.286  0.00  0.00    +0.077 S 
ATOM      8  O   UNL     1      32.013 -11.321 -19.877  0.00  0.00    -0.150 OA
ATOM      9  O   UNL     1      30.432 -11.880 -21.755  0.00  0.00    -0.150 OA
BRANCH   7  12
ATOM     10  O   UNL     1      32.010  -8.524 -20.681  0.00  0.00    -0.251 OA
ATOM     11  N   UNL     1      32.987  -8.057 -22.724  0.00  0.00    -0.289 N 
ATOM     12  N   UNL     1      32.389 -10.258 -22.200  0.00  0.00    -0.169 N 
ATOM     13  C   UNL     1      32.428  -8.892 -21.775  0.00  0.00    +0.319 C 
ATOM     14  H   UNL     1      33.294  -8.451 -23.573  0.00  0.00    +0.151 HD
ATOM     15  H   UNL     1      32.750 -10.464 -23.093  0.00  0.00    +0.178 HD
BRANCH  11  16
ATOM     16  C   UNL     1      33.142  -6.634 -22.526  0.00  0.00    +0.073 C 
ATOM     17  C   UNL     1      31.877  -5.877 -22.946  0.00  0.00    +0.020 C 
ATOM     18  C   UNL     1      34.376  -6.106 -23.265  0.00  0.00    +0.020 C 
ATOM     19  C   UNL     1      31.688  -5.852 -24.462  0.00  0.00    +0.002 C 
ATOM     20  C   UNL     1      34.183  -6.080 -24.781  0.00  0.00    +0.002 C 
ATOM     21  C   UNL     1      32.925  -5.313 -25.175  0.00  0.00    +0.000 C 
ENDBRANCH  11  16
ENDBRANCH   7  12
ENDBRANCH   1   7
BRANCH   2  22
ATOM     22  C   UNL     1      35.377 -16.068 -23.085  0.00  0.00    +0.048 C 
BRANCH  22  23
ATOM     23  C   UNL     1      34.614 -17.309 -23.568  0.00  0.00    +0.094 C 
BRANCH  23  25
ATOM     24  O   UNL     1      36.645 -18.683 -22.074  0.00  0.00    -0.269 OA
ATOM     25  N   UNL     1      34.406 -18.266 -22.514  0.00  0.00    -0.300 N 
ATOM     26  C   UNL     1      35.455 -18.884 -21.844  0.00  0.00    +0.261 C 
ATOM     27  H   UNL     1      33.482 -18.493 -22.258  0.00  0.00    +0.150 HD
BRANCH  26  30
ATOM     28  N   UNL     1      36.079 -20.417 -20.091  0.00  0.00    -0.262 NA
ATOM     29  N   UNL     1      33.395 -21.088 -19.626  0.00  0.00    -0.270 NA
ATOM     30  C   UNL     1      35.073 -19.868 -20.799  0.00  0.00    +0.132 C 
ATOM     31  C   UNL     1      33.755 -20.197 -20.571  0.00  0.00    +0.174 C 
ATOM     32  C   UNL     1      34.401 -21.639 -18.917  0.00  0.00    +0.057 C 
ATOM     33  C   UNL     1      35.720 -21.309 -19.146  0.00  0.00    +0.166 C 
ATOM     34  C   UNL     1      34.041 -22.627 -17.864  0.00  0.00    +0.049 C 
ENDBRANCH  26  30
ENDBRANCH  23  25
ENDBRANCH  22  23
ENDBRANCH   2  22
TORSDOF 7
ENDMDL
MODEL 8
REMARK VINA RESULT:      -9.9      3.148      5.138
REMARK  Name = 3478
REMARK  7 active torsions:
REMARK  status: ('A' for Active; 'I' for Inactive)
REMARK    1  A    between atoms: C_1  and  S_7
REMARK    2  A    between atoms: C_2  and  C_22
REMARK    3  A    between atoms: S_7  and  N_12
REMARK    4  A    between atoms: N_11  and  C_16
REMARK    5  A    between atoms: C_22  and  C_23
REMARK    6  A    between atoms: C_23  and  N_25
REMARK    7  A    between atoms: C_26  and  C_30
REMARK                            x       y       z     vdW  Elec       q    Type
REMARK                         _______ _______ _______ _____ _____    ______ ____
ROOT
ATOM      1  C   UNL     1      36.255 -23.509 -14.892  0.00  0.00    +0.125 C 
ATOM      2  C   UNL     1      36.544 -21.881 -17.138  0.00  0.00    -0.020 C 
ATOM      3  C   UNL     1      35.169 -23.289 -15.739  0.00  0.00    +0.020 C 
ATOM      4  C   UNL     1      37.486 -22.915 -15.167  0.00  0.00    +0.020 C 
ATOM      5  C   UNL     1      35.313 -22.475 -16.861  0.00  0.00    -0.003 C 
ATOM      6  C   UNL     1      37.630 -22.100 -16.290  0.00  0.00    -0.003 C 
ENDROOT
BRANCH   1   7
ATOM      7  S   UNL     1      36.071 -24.542 -13.468  0.00  0.00    +0.077 S 
ATOM      8  O   UNL     1      36.080 -23.694 -12.292  0.00  0.00    -0.150 OA
ATOM      9  O   UNL     1      37.032 -25.619 -13.605  0.00  0.00    -0.150 OA
BRANCH   7  12
ATOM     10  O   UNL     1      33.293 -23.618 -12.431  0.00  0.00    -0.251 OA
ATOM     11  N   UNL     1      32.169 -25.318 -13.522  0.00  0.00    -0.289 N 
ATOM     12  N   UNL     1      34.496 -25.157 -13.711  0.00  0.00    -0.169 N 
ATOM     13  C   UNL     1      33.297 -24.611 -13.153  0.00  0.00    +0.319 C 
ATOM     14  H   UNL     1      32.278 -26.104 -14.106  0.00  0.00    +0.151 HD
ATOM     15  H   UNL     1      34.406 -25.955 -14.283  0.00  0.00    +0.178 HD
BRANCH  11  16
ATOM     16  C   UNL     1      30.838 -24.958 -13.089  0.00  0.00    +0.073 C 
ATOM     17  C   UNL     1      29.773 -25.686 -13.915  0.00  0.00    +0.020 C 
ATOM     18  C   UNL     1      30.636 -23.440 -13.135  0.00  0.00    +0.020 C 
ATOM     19  C   UNL     1      29.674 -25.150 -15.344  0.00  0.00    +0.002 C 
ATOM     20  C   UNL     1      30.536 -22.906 -14.564  0.00  0.00    +0.002 C 
ATOM     21  C   UNL     1      29.462 -23.638 -15.364  0.00  0.00    +0.000 C 
ENDBRANCH  11  16
ENDBRANCH   7  12
ENDBRANCH   1   7
BRANCH   2  22
ATOM     22  C   UNL     1      36.699 -21.010 -18.338  0.00  0.00    +0.048 C 
BRANCH  22  23
ATOM     23  C   UNL     1      35.932 -21.517 -19.566  0.00  0.00    +0.094 C 
BRANCH  23  25
ATOM     24  O   UNL     1      37.519 -19.305 -20.479  0.00  0.00    -0.269 OA
ATOM     25  N   UNL     1      35.499 -20.444 -20.421  0.00  0.00    -0.300 N 
ATOM     26  C   UNL     1      36.341 -19.410 -20.812  0.00  0.00    +0.261 C 
ATOM     27  H   UNL     1      34.567 -20.441 -20.740  0.00  0.00    +0.150 HD
BRANCH  26  30
ATOM     28  N   UNL     1      35.335 -18.751 -22.902  0.00  0.00    -0.262 NA
ATOM     29  N   UNL     1      35.039 -16.108 -22.008  0.00  0.00    -0.270 NA
ATOM     30  C   UNL     1      35.734 -18.364 -21.675  0.00  0.00    +0.132 C 
ATOM     31  C   UNL     1      35.589 -17.066 -21.235  0.00  0.00    +0.174 C 
ATOM     32  C   UNL     1      34.640 -16.494 -23.236  0.00  0.00    +0.057 C 
ATOM     33  C   UNL     1      34.785 -17.793 -23.675  0.00  0.00    +0.166 C 
ATOM     34  C   UNL     1      34.027 -15.462 -24.117  0.00  0.00    +0.049 C 
ENDBRANCH  26  30
ENDBRANCH  23  25
ENDBRANCH  22  23
ENDBRANCH   2  22
TORSDOF 7
ENDMDL
MODEL 9
REMARK VINA RESULT:      -9.9      3.319     12.010
REMARK  Name = 3478
REMARK  7 active torsions:
REMARK  status: ('A' for Active; 'I' for Inactive)
REMARK    1  A    between atoms: C_1  and  S_7
REMARK    2  A    between atoms: C_2  and  C_22
REMARK    3  A    between atoms: S_7  and  N_12
REMARK    4  A    between atoms: N_11  and  C_16
REMARK    5  A    between atoms: C_22  and  C_23
REMARK    6  A    between atoms: C_23  and  N_25
REMARK    7  A    between atoms: C_26  and  C_30
REMARK                            x       y       z     vdW  Elec       q    Type
REMARK                         _______ _______ _______ _____ _____    ______ ____
ROOT
ATOM      1  C   UNL     1      34.750 -17.701 -23.053  0.00  0.00    +0.125 C 
ATOM      2  C   UNL     1      35.573 -19.154 -20.819  0.00  0.00    -0.020 C 
ATOM      3  C   UNL     1      35.364 -17.049 -21.984  0.00  0.00    +0.020 C 
ATOM      4  C   UNL     1      34.547 -19.079 -23.006  0.00  0.00    +0.020 C 
ATOM      5  C   UNL     1      35.775 -17.775 -20.867  0.00  0.00    -0.003 C 
ATOM      6  C   UNL     1      34.958 -19.807 -21.888  0.00  0.00    -0.003 C 
ENDROOT
BRANCH   1   7
ATOM      7  S   UNL     1      34.229 -16.779 -24.469  0.00  0.00    +0.077 S 
ATOM      8  O   UNL     1      32.905 -17.239 -24.844  0.00  0.00    -0.150 OA
ATOM      9  O   UNL     1      35.320 -16.823 -25.422  0.00  0.00    -0.150 OA
BRANCH   7  12
ATOM     10  O   UNL     1      32.943 -14.164 -25.541  0.00  0.00    -0.251 OA
ATOM     11  N   UNL     1      33.548 -12.940 -23.676  0.00  0.00    -0.289 N 
ATOM     12  N   UNL     1      34.117 -15.206 -23.812  0.00  0.00    -0.169 N 
ATOM     13  C   UNL     1      33.483 -14.088 -24.442  0.00  0.00    +0.319 C 
ATOM     14  H   UNL     1      34.005 -12.982 -22.804  0.00  0.00    +0.151 HD
ATOM     15  H   UNL     1      34.523 -15.055 -22.927  0.00  0.00    +0.178 HD
BRANCH  11  16
ATOM     16  C   UNL     1      32.975 -11.681 -24.095  0.00  0.00    +0.073 C 
ATOM     17  C   UNL     1      33.245 -11.419 -25.581  0.00  0.00    +0.020 C 
ATOM     18  C   UNL     1      33.485 -10.527 -23.226  0.00  0.00    +0.020 C 
ATOM     19  C   UNL     1      34.709 -11.078 -25.857  0.00  0.00    +0.002 C 
ATOM     20  C   UNL     1      34.949 -10.187 -23.505  0.00  0.00    +0.002 C 
ATOM     21  C   UNL     1      35.191  -9.919 -24.988  0.00  0.00    +0.000 C 
ENDBRANCH  11  16
ENDBRANCH   7  12
ENDBRANCH   1   7
BRANCH   2  22
ATOM     22  C   UNL     1      36.013 -19.933 -19.625  0.00  0.00    +0.048 C 
BRANCH  22  23
ATOM     23  C   UNL     1      35.721 -21.435 -19.732  0.00  0.00    +0.094 C 
BRANCH  23  25
ATOM     24  O   UNL     1      32.924 -22.072 -19.616  0.00  0.00    -0.269 OA
ATOM     25  N   UNL     1      35.000 -21.934 -18.591  0.00  0.00    -0.300 N 
ATOM     26  C   UNL     1      33.640 -22.215 -18.628  0.00  0.00    +0.261 C 
ATOM     27  H   UNL     1      35.491 -22.081 -17.750  0.00  0.00    +0.150 HD
BRANCH  26  30
ATOM     28  N   UNL     1      31.701 -22.578 -17.241  0.00  0.00    -0.262 NA
ATOM     29  N   UNL     1      33.279 -23.684 -15.203  0.00  0.00    -0.270 NA
ATOM     30  C   UNL     1      33.038 -22.698 -17.359  0.00  0.00    +0.132 C 
ATOM     31  C   UNL     1      33.813 -23.242 -16.359  0.00  0.00    +0.174 C 
ATOM     32  C   UNL     1      31.942 -23.564 -15.084  0.00  0.00    +0.057 C 
ATOM     33  C   UNL     1      31.167 -23.021 -16.085  0.00  0.00    +0.166 C 
ATOM     34  C   UNL     1      31.317 -24.043 -13.820  0.00  0.00    +0.049 C 
ENDBRANCH  26  30
ENDBRANCH  23  25
ENDBRANCH  22  23
ENDBRANCH   2  22
TORSDOF 7
ENDMDL
