MODEL 1
REMARK VINA RESULT:     -12.1      0.000      0.000
REMARK  Name = 25151352
REMARK  5 active torsions:
REMARK  status: ('A' for Active; 'I' for Inactive)
REMARK    1  A    between atoms: N_1  and  C_21
REMARK    2  A    between atoms: C_3  and  C_9
REMARK    3  A    between atoms: C_9  and  C_13
REMARK    4  A    between atoms: C_21  and  C_23
REMARK    5  A    between atoms: C_27  and  C_31
REMARK                            x       y       z     vdW  Elec       q    Type
REMARK                         _______ _______ _______ _____ _____    ______ ____
ROOT
ATOM      1  N   UNL     1      34.067 -12.782 -23.090  0.00  0.00    -0.314 N 
ATOM      2  N   UNL     1      34.766 -14.772 -21.979  0.00  0.00    -0.230 NA
ATOM      3  C   UNL     1      34.722 -16.875 -23.169  0.00  0.00    +0.002 C 
ATOM      4  C   UNL     1      34.240 -16.232 -24.304  0.00  0.00    +0.000 C 
ATOM      5  C   UNL     1      34.968 -16.107 -22.043  0.00  0.00    +0.096 C 
ATOM      6  C   UNL     1      34.296 -14.181 -23.101  0.00  0.00    +0.129 C 
ATOM      7  C   UNL     1      34.019 -14.860 -24.277  0.00  0.00    +0.034 C 
ATOM      8  H   UNL     1      34.256 -12.280 -22.266  0.00  0.00    +0.149 HD
ENDROOT
BRANCH   3   9
ATOM      9  C   UNL     1      34.975 -18.376 -23.167  0.00  0.00    +0.056 C 
BRANCH   9  13
ATOM     10 CL   UNL     1      32.957 -21.983 -18.902  0.00  0.00    -0.081 Cl
ATOM     11  N   UNL     1      37.627 -19.158 -20.774  0.00  0.00    -0.297 N 
ATOM     12  N   UNL     1      36.710 -20.620 -19.093  0.00  0.00    -0.228 NA
ATOM     13  C   UNL     1      35.847 -18.847 -22.072  0.00  0.00    -0.000 C 
ATOM     14  C   UNL     1      35.475 -19.706 -21.004  0.00  0.00    +0.030 C 
ATOM     15  C   UNL     1      36.607 -19.880 -20.214  0.00  0.00    +0.132 C 
ATOM     16  C   UNL     1      37.177 -18.526 -21.904  0.00  0.00    +0.059 C 
ATOM     17  C   UNL     1      34.300 -20.365 -20.606  0.00  0.00    +0.015 C 
ATOM     18  C   UNL     1      34.352 -21.146 -19.452  0.00  0.00    +0.077 C 
ATOM     19  C   UNL     1      35.551 -21.231 -18.757  0.00  0.00    +0.112 C 
ATOM     20  H   UNL     1      38.543 -19.102 -20.420  0.00  0.00    +0.154 HD
ENDBRANCH   9  13
ENDBRANCH   3   9
BRANCH   1  21
ATOM     21  C   UNL     1      33.573 -12.075 -24.226  0.00  0.00    +0.117 C 
BRANCH  21  23
ATOM     22  N   UNL     1      32.683  -8.542 -23.205  0.00  0.00    -0.240 NA
ATOM     23  C   UNL     1      33.682 -10.591 -24.010  0.00  0.00    +0.017 C 
ATOM     24  C   UNL     1      34.824  -9.893 -24.391  0.00  0.00    +0.000 C 
ATOM     25  C   UNL     1      32.650  -9.875 -23.427  0.00  0.00    +0.096 C 
ATOM     26  C   UNL     1      34.895  -8.521 -24.179  0.00  0.00    +0.023 C 
ATOM     27  C   UNL     1      33.808  -7.898 -23.588  0.00  0.00    +0.153 C 
BRANCH  27  31
ATOM     28  F   UNL     1      33.555  -6.075 -22.060  0.00  0.00    -0.164 F 
ATOM     29  F   UNL     1      35.071  -5.866 -23.596  0.00  0.00    -0.164 F 
ATOM     30  F   UNL     1      32.966  -5.740 -24.126  0.00  0.00    -0.164 F 
ATOM     31  C   UNL     1      33.851  -6.426 -23.345  0.00  0.00    +0.435 C 
ENDBRANCH  27  31
ENDBRANCH  21  23
ENDBRANCH   1  21
TORSDOF 5
ENDMDL
MODEL 2
REMARK VINA RESULT:     -11.9      7.881     12.597
REMARK  Name = 25151352
REMARK  5 active torsions:
REMARK  status: ('A' for Active; 'I' for Inactive)
REMARK    1  A    between atoms: N_1  and  C_21
REMARK    2  A    between atoms: C_3  and  C_9
REMARK    3  A    between atoms: C_9  and  C_13
REMARK    4  A    between atoms: C_21  and  C_23
REMARK    5  A    between atoms: C_27  and  C_31
REMARK                            x       y       z     vdW  Elec       q    Type
REMARK                         _______ _______ _______ _____ _____    ______ ____
ROOT
ATOM      1  N   UNL     1      33.583 -22.291 -18.193  0.00  0.00    -0.314 N 
ATOM      2  N   UNL     1      33.493 -20.657 -19.926  0.00  0.00    -0.230 NA
ATOM      3  C   UNL     1      35.545 -19.667 -20.733  0.00  0.00    +0.002 C 
ATOM      4  C   UNL     1      36.278 -20.438 -19.837  0.00  0.00    +0.000 C 
ATOM      5  C   UNL     1      34.168 -19.813 -20.738  0.00  0.00    +0.096 C 
ATOM      6  C   UNL     1      34.239 -21.389 -19.068  0.00  0.00    +0.129 C 
ATOM      7  C   UNL     1      35.620 -21.317 -18.985  0.00  0.00    +0.034 C 
ATOM      8  H   UNL     1      32.602 -22.359 -18.234  0.00  0.00    +0.149 HD
ENDROOT
BRANCH   3   9
ATOM      9  C   UNL     1      36.237 -18.697 -21.679  0.00  0.00    +0.056 C 
BRANCH   9  13
ATOM     10 CL   UNL     1      34.305 -13.132 -22.441  0.00  0.00    -0.081 Cl
ATOM     11  N   UNL     1      34.303 -18.412 -24.770  0.00  0.00    -0.297 N 
ATOM     12  N   UNL     1      33.569 -16.128 -24.985  0.00  0.00    -0.228 NA
ATOM     13  C   UNL     1      35.429 -18.309 -22.854  0.00  0.00    -0.000 C 
ATOM     14  C   UNL     1      34.915 -17.017 -23.138  0.00  0.00    +0.030 C 
ATOM     15  C   UNL     1      34.219 -17.114 -24.339  0.00  0.00    +0.132 C 
ATOM     16  C   UNL     1      35.036 -19.147 -23.875  0.00  0.00    +0.059 C 
ATOM     17  C   UNL     1      34.956 -15.759 -22.515  0.00  0.00    +0.015 C 
ATOM     18  C   UNL     1      34.299 -14.701 -23.142  0.00  0.00    +0.077 C 
ATOM     19  C   UNL     1      33.641 -14.940 -24.340  0.00  0.00    +0.112 C 
ATOM     20  H   UNL     1      33.899 -18.763 -25.596  0.00  0.00    +0.154 HD
ENDBRANCH   9  13
ENDBRANCH   3   9
BRANCH   1  21
ATOM     21  C   UNL     1      34.287 -23.103 -17.256  0.00  0.00    +0.117 C 
BRANCH  21  23
ATOM     22  N   UNL     1      31.142 -23.830 -15.281  0.00  0.00    -0.240 NA
ATOM     23  C   UNL     1      33.386 -23.498 -16.119  0.00  0.00    +0.017 C 
ATOM     24  C   UNL     1      33.910 -23.886 -14.890  0.00  0.00    +0.000 C 
ATOM     25  C   UNL     1      32.008 -23.488 -16.262  0.00  0.00    +0.096 C 
ATOM     26  C   UNL     1      33.051 -24.245 -13.857  0.00  0.00    +0.023 C 
ATOM     27  C   UNL     1      31.688 -24.201 -14.101  0.00  0.00    +0.153 C 
BRANCH  27  31
ATOM     28  F   UNL     1      30.538 -23.593 -12.094  0.00  0.00    -0.164 F 
ATOM     29  F   UNL     1      29.491 -24.904 -13.468  0.00  0.00    -0.164 F 
ATOM     30  F   UNL     1      31.162 -25.665 -12.303  0.00  0.00    -0.164 F 
ATOM     31  C   UNL     1      30.738 -24.581 -13.015  0.00  0.00    +0.435 C 
ENDBRANCH  27  31
ENDBRANCH  21  23
ENDBRANCH   1  21
TORSDOF 5
ENDMDL
MODEL 3
REMARK VINA RESULT:     -11.8      3.079      5.278
REMARK  Name = 25151352
REMARK  5 active torsions:
REMARK  status: ('A' for Active; 'I' for Inactive)
REMARK    1  A    between atoms: N_1  and  C_21
REMARK    2  A    between atoms: C_3  and  C_9
REMARK    3  A    between atoms: C_9  and  C_13
REMARK    4  A    between atoms: C_21  and  C_23
REMARK    5  A    between atoms: C_27  and  C_31
REMARK                            x       y       z     vdW  Elec       q    Type
REMARK                         _______ _______ _______ _____ _____    ______ ____
ROOT
ATOM      1  N   UNL     1      35.788 -17.398 -22.804  0.00  0.00    -0.314 N 
ATOM      2  N   UNL     1      36.962 -18.638 -21.142  0.00  0.00    -0.230 NA
ATOM      3  C   UNL     1      35.863 -20.489 -20.043  0.00  0.00    +0.002 C 
ATOM      4  C   UNL     1      34.716 -20.265 -20.797  0.00  0.00    +0.000 C 
ATOM      5  C   UNL     1      36.950 -19.655 -20.251  0.00  0.00    +0.096 C 
ATOM      6  C   UNL     1      35.830 -18.450 -21.855  0.00  0.00    +0.129 C 
ATOM      7  C   UNL     1      34.691 -19.228 -21.722  0.00  0.00    +0.034 C 
ATOM      8  H   UNL     1      36.585 -16.832 -22.916  0.00  0.00    +0.149 HD
ENDROOT
BRANCH   3   9
ATOM      9  C   UNL     1      35.922 -21.617 -19.023  0.00  0.00    +0.056 C 
BRANCH   9  13
ATOM     10 CL   UNL     1      35.383 -24.009 -13.614  0.00  0.00    -0.081 Cl
ATOM     11  N   UNL     1      32.421 -22.378 -18.289  0.00  0.00    -0.297 N 
ATOM     12  N   UNL     1      32.311 -23.340 -16.083  0.00  0.00    -0.228 NA
ATOM     13  C   UNL     1      34.609 -22.018 -18.478  0.00  0.00    -0.000 C 
ATOM     14  C   UNL     1      34.361 -22.597 -17.206  0.00  0.00    +0.030 C 
ATOM     15  C   UNL     1      32.989 -22.808 -17.119  0.00  0.00    +0.132 C 
ATOM     16  C   UNL     1      33.396 -21.895 -19.123  0.00  0.00    +0.059 C 
ATOM     17  C   UNL     1      35.145 -22.971 -16.102  0.00  0.00    +0.015 C 
ATOM     18  C   UNL     1      34.494 -23.526 -15.002  0.00  0.00    +0.077 C 
ATOM     19  C   UNL     1      33.115 -23.682 -15.050  0.00  0.00    +0.112 C 
ATOM     20  H   UNL     1      31.461 -22.410 -18.499  0.00  0.00    +0.154 HD
ENDBRANCH   9  13
ENDBRANCH   3   9
BRANCH   1  21
ATOM     21  C   UNL     1      34.638 -17.126 -23.602  0.00  0.00    +0.117 C 
BRANCH  21  23
ATOM     22  N   UNL     1      33.463 -13.715 -24.743  0.00  0.00    -0.240 NA
ATOM     23  C   UNL     1      34.321 -15.656 -23.585  0.00  0.00    +0.017 C 
ATOM     24  C   UNL     1      34.570 -14.882 -22.456  0.00  0.00    +0.000 C 
ATOM     25  C   UNL     1      33.771 -15.030 -24.691  0.00  0.00    +0.096 C 
ATOM     26  C   UNL     1      34.266 -13.525 -22.471  0.00  0.00    +0.023 C 
ATOM     27  C   UNL     1      33.719 -12.995 -23.627  0.00  0.00    +0.153 C 
BRANCH  27  31
ATOM     28  F   UNL     1      32.381 -11.184 -22.818  0.00  0.00    -0.164 F 
ATOM     29  F   UNL     1      34.429 -10.725 -23.365  0.00  0.00    -0.164 F 
ATOM     30  F   UNL     1      32.961 -11.144 -24.914  0.00  0.00    -0.164 F 
ATOM     31  C   UNL     1      33.380 -11.542 -23.677  0.00  0.00    +0.435 C 
ENDBRANCH  27  31
ENDBRANCH  21  23
ENDBRANCH   1  21
TORSDOF 5
ENDMDL
MODEL 4
REMARK VINA RESULT:     -11.7      6.530     11.148
REMARK  Name = 25151352
REMARK  5 active torsions:
REMARK  status: ('A' for Active; 'I' for Inactive)
REMARK    1  A    between atoms: N_1  and  C_21
REMARK    2  A    between atoms: C_3  and  C_9
REMARK    3  A    between atoms: C_9  and  C_13
REMARK    4  A    between atoms: C_21  and  C_23
REMARK    5  A    between atoms: C_27  and  C_31
REMARK                            x       y       z     vdW  Elec       q    Type
REMARK                         _______ _______ _______ _____ _____    ______ ____
ROOT
ATOM      1  N   UNL     1      35.343 -18.884 -22.544  0.00  0.00    -0.314 N 
ATOM      2  N   UNL     1      34.210 -17.501 -24.120  0.00  0.00    -0.230 NA
ATOM      3  C   UNL     1      34.144 -15.110 -23.772  0.00  0.00    +0.002 C 
ATOM      4  C   UNL     1      34.883 -15.253 -22.603  0.00  0.00    +0.000 C 
ATOM      5  C   UNL     1      33.837 -16.255 -24.489  0.00  0.00    +0.096 C 
ATOM      6  C   UNL     1      34.925 -17.600 -22.977  0.00  0.00    +0.129 C 
ATOM      7  C   UNL     1      35.284 -16.518 -22.190  0.00  0.00    +0.034 C 
ATOM      8  H   UNL     1      35.099 -19.668 -23.087  0.00  0.00    +0.149 HD
ENDROOT
BRANCH   3   9
ATOM      9  C   UNL     1      33.692 -13.738 -24.251  0.00  0.00    +0.056 C 
BRANCH   9  13
ATOM     10 CL   UNL     1      34.291  -7.836 -23.976  0.00  0.00    -0.081 Cl
ATOM     11  N   UNL     1      31.713 -12.365 -21.499  0.00  0.00    -0.297 N 
ATOM     12  N   UNL     1      32.023  -9.976 -21.474  0.00  0.00    -0.228 NA
ATOM     13  C   UNL     1      32.995 -12.933 -23.226  0.00  0.00    -0.000 C 
ATOM     14  C   UNL     1      33.064 -11.525 -23.066  0.00  0.00    +0.030 C 
ATOM     15  C   UNL     1      32.253 -11.202 -21.982  0.00  0.00    +0.132 C 
ATOM     16  C   UNL     1      32.156 -13.424 -22.248  0.00  0.00    +0.059 C 
ATOM     17  C   UNL     1      33.723 -10.469 -23.717  0.00  0.00    +0.015 C 
ATOM     18  C   UNL     1      33.519  -9.178 -23.233  0.00  0.00    +0.077 C 
ATOM     19  C   UNL     1      32.683  -8.999 -22.139  0.00  0.00    +0.112 C 
ATOM     20  H   UNL     1      31.099 -12.430 -20.733  0.00  0.00    +0.154 HD
ENDBRANCH   9  13
ENDBRANCH   3   9
BRANCH   1  21
ATOM     21  C   UNL     1      36.100 -19.085 -21.353  0.00  0.00    +0.117 C 
BRANCH  21  23
ATOM     22  N   UNL     1      35.527 -21.721 -18.700  0.00  0.00    -0.240 NA
ATOM     23  C   UNL     1      35.393 -20.041 -20.433  0.00  0.00    +0.017 C 
ATOM     24  C   UNL     1      34.006 -20.149 -20.441  0.00  0.00    +0.000 C 
ATOM     25  C   UNL     1      36.100 -20.841 -19.552  0.00  0.00    +0.096 C 
ATOM     26  C   UNL     1      33.380 -21.043 -19.579  0.00  0.00    +0.023 C 
ATOM     27  C   UNL     1      34.178 -21.798 -18.736  0.00  0.00    +0.153 C 
BRANCH  27  31
ATOM     28  F   UNL     1      34.202 -22.898 -16.611  0.00  0.00    -0.164 F 
ATOM     29  F   UNL     1      32.259 -22.434 -17.456  0.00  0.00    -0.164 F 
ATOM     30  F   UNL     1      33.463 -24.028 -18.316  0.00  0.00    -0.164 F 
ATOM     31  C   UNL     1      33.538 -22.767 -17.797  0.00  0.00    +0.435 C 
ENDBRANCH  27  31
ENDBRANCH  21  23
ENDBRANCH   1  21
TORSDOF 5
ENDMDL
MODEL 5
REMARK VINA RESULT:     -11.4      1.982      2.730
REMARK  Name = 25151352
REMARK  5 active torsions:
REMARK  status: ('A' for Active; 'I' for Inactive)
REMARK    1  A    between atoms: N_1  and  C_21
REMARK    2  A    between atoms: C_3  and  C_9
REMARK    3  A    between atoms: C_9  and  C_13
REMARK    4  A    between atoms: C_21  and  C_23
REMARK    5  A    between atoms: C_27  and  C_31
REMARK                            x       y       z     vdW  Elec       q    Type
REMARK                         _______ _______ _______ _____ _____    ______ ____
ROOT
ATOM      1  N   UNL     1      34.307 -13.933 -22.150  0.00  0.00    -0.314 N 
ATOM      2  N   UNL     1      34.924 -15.734 -20.716  0.00  0.00    -0.230 NA
ATOM      3  C   UNL     1      35.355 -17.915 -21.666  0.00  0.00    +0.002 C 
ATOM      4  C   UNL     1      35.084 -17.423 -22.938  0.00  0.00    +0.000 C 
ATOM      5  C   UNL     1      35.263 -17.038 -20.598  0.00  0.00    +0.096 C 
ATOM      6  C   UNL     1      34.666 -15.293 -21.968  0.00  0.00    +0.129 C 
ATOM      7  C   UNL     1      34.731 -16.088 -23.100  0.00  0.00    +0.034 C 
ATOM      8  H   UNL     1      34.254 -13.349 -21.360  0.00  0.00    +0.149 HD
ENDROOT
BRANCH   3   9
ATOM      9  C   UNL     1      35.745 -19.371 -21.456  0.00  0.00    +0.056 C 
BRANCH   9  13
ATOM     10 CL   UNL     1      37.442 -22.446 -16.667  0.00  0.00    -0.081 Cl
ATOM     11  N   UNL     1      32.888 -21.072 -19.933  0.00  0.00    -0.297 N 
ATOM     12  N   UNL     1      33.679 -22.285 -18.008  0.00  0.00    -0.228 NA
ATOM     13  C   UNL     1      34.782 -20.151 -20.653  0.00  0.00    -0.000 C 
ATOM     14  C   UNL     1      35.073 -20.921 -19.496  0.00  0.00    +0.030 C 
ATOM     15  C   UNL     1      33.871 -21.481 -19.071  0.00  0.00    +0.132 C 
ATOM     16  C   UNL     1      33.430 -20.263 -20.899  0.00  0.00    +0.059 C 
ATOM     17  C   UNL     1      36.224 -21.214 -18.746  0.00  0.00    +0.015 C 
ATOM     18  C   UNL     1      36.081 -22.042 -17.634  0.00  0.00    +0.077 C 
ATOM     19  C   UNL     1      34.820 -22.534 -17.324  0.00  0.00    +0.112 C 
ATOM     20  H   UNL     1      31.938 -21.320 -19.869  0.00  0.00    +0.154 HD
ENDBRANCH   9  13
ENDBRANCH   3   9
BRANCH   1  21
ATOM     21  C   UNL     1      34.018 -13.380 -23.432  0.00  0.00    +0.117 C 
BRANCH  21  23
ATOM     22  N   UNL     1      31.923 -10.472 -22.217  0.00  0.00    -0.240 NA
ATOM     23  C   UNL     1      33.472 -11.986 -23.292  0.00  0.00    +0.017 C 
ATOM     24  C   UNL     1      33.968 -10.940 -24.065  0.00  0.00    +0.000 C 
ATOM     25  C   UNL     1      32.459 -11.701 -22.391  0.00  0.00    +0.096 C 
ATOM     26  C   UNL     1      33.443  -9.662 -23.914  0.00  0.00    +0.023 C 
ATOM     27  C   UNL     1      32.431  -9.482 -22.985  0.00  0.00    +0.153 C 
BRANCH  27  31
ATOM     28  F   UNL     1      30.550  -8.022 -23.218  0.00  0.00    -0.164 F 
ATOM     29  F   UNL     1      31.829  -7.709 -21.495  0.00  0.00    -0.164 F 
ATOM     30  F   UNL     1      32.528  -7.157 -23.479  0.00  0.00    -0.164 F 
ATOM     31  C   UNL     1      31.845  -8.122 -22.796  0.00  0.00    +0.435 C 
ENDBRANCH  27  31
ENDBRANCH  21  23
ENDBRANCH   1  21
TORSDOF 5
ENDMDL
MODEL 6
REMARK VINA RESULT:     -11.3      6.225     10.935
REMARK  Name = 25151352
REMARK  5 active torsions:
REMARK  status: ('A' for Active; 'I' for Inactive)
REMARK    1  A    between atoms: N_1  and  C_21
REMARK    2  A    between atoms: C_3  and  C_9
REMARK    3  A    between atoms: C_9  and  C_13
REMARK    4  A    between atoms: C_21  and  C_23
REMARK    5  A    between atoms: C_27  and  C_31
REMARK                            x       y       z     vdW  Elec       q    Type
REMARK                         _______ _______ _______ _____ _____    ______ ____
ROOT
ATOM      1  N   UNL     1      35.686 -17.668 -22.991  0.00  0.00    -0.314 N 
ATOM      2  N   UNL     1      34.200 -16.313 -24.270  0.00  0.00    -0.230 NA
ATOM      3  C   UNL     1      33.492 -14.174 -23.395  0.00  0.00    +0.002 C 
ATOM      4  C   UNL     1      34.257 -14.380 -22.252  0.00  0.00    +0.000 C 
ATOM      5  C   UNL     1      33.497 -15.162 -24.366  0.00  0.00    +0.096 C 
ATOM      6  C   UNL     1      34.930 -16.479 -23.144  0.00  0.00    +0.129 C 
ATOM      7  C   UNL     1      34.991 -15.552 -22.116  0.00  0.00    +0.034 C 
ATOM      8  H   UNL     1      35.657 -18.341 -23.708  0.00  0.00    +0.149 HD
ENDROOT
BRANCH   3   9
ATOM      9  C   UNL     1      32.678 -12.900 -23.574  0.00  0.00    +0.056 C 
BRANCH   9  13
ATOM     10 CL   UNL     1      31.943  -7.691 -20.819  0.00  0.00    -0.081 Cl
ATOM     11  N   UNL     1      34.951 -10.383 -24.942  0.00  0.00    -0.297 N 
ATOM     12  N   UNL     1      34.575  -8.316 -23.763  0.00  0.00    -0.228 NA
ATOM     13  C   UNL     1      33.476 -11.711 -23.936  0.00  0.00    -0.000 C 
ATOM     14  C   UNL     1      33.386 -10.421 -23.350  0.00  0.00    +0.030 C 
ATOM     15  C   UNL     1      34.319  -9.617 -23.999  0.00  0.00    +0.132 C 
ATOM     16  C   UNL     1      34.447 -11.657 -24.914  0.00  0.00    +0.059 C 
ATOM     17  C   UNL     1      32.618  -9.830 -22.334  0.00  0.00    +0.015 C 
ATOM     18  C   UNL     1      32.843  -8.484 -22.048  0.00  0.00    +0.077 C 
ATOM     19  C   UNL     1      33.807  -7.799 -22.776  0.00  0.00    +0.112 C 
ATOM     20  H   UNL     1      35.659 -10.067 -25.548  0.00  0.00    +0.154 HD
ENDBRANCH   9  13
ENDBRANCH   3   9
BRANCH   1  21
ATOM     21  C   UNL     1      36.485 -17.928 -21.839  0.00  0.00    +0.117 C 
BRANCH  21  23
ATOM     22  N   UNL     1      33.931 -20.292 -20.353  0.00  0.00    -0.240 NA
ATOM     23  C   UNL     1      35.889 -19.044 -21.026  0.00  0.00    +0.017 C 
ATOM     24  C   UNL     1      36.687 -19.847 -20.217  0.00  0.00    +0.000 C 
ATOM     25  C   UNL     1      34.529 -19.306 -21.059  0.00  0.00    +0.096 C 
ATOM     26  C   UNL     1      36.108 -20.871 -19.476  0.00  0.00    +0.023 C 
ATOM     27  C   UNL     1      34.738 -21.051 -19.579  0.00  0.00    +0.153 C 
BRANCH  27  31
ATOM     28  F   UNL     1      32.829 -21.823 -18.361  0.00  0.00    -0.164 F 
ATOM     29  F   UNL     1      33.932 -23.303 -19.501  0.00  0.00    -0.164 F 
ATOM     30  F   UNL     1      34.787 -22.480 -17.678  0.00  0.00    -0.164 F 
ATOM     31  C   UNL     1      34.083 -22.141 -18.798  0.00  0.00    +0.435 C 
ENDBRANCH  27  31
ENDBRANCH  21  23
ENDBRANCH   1  21
TORSDOF 5
ENDMDL
MODEL 7
REMARK VINA RESULT:     -11.1      5.872     11.804
REMARK  Name = 25151352
REMARK  5 active torsions:
REMARK  status: ('A' for Active; 'I' for Inactive)
REMARK    1  A    between atoms: N_1  and  C_21
REMARK    2  A    between atoms: C_3  and  C_9
REMARK    3  A    between atoms: C_9  and  C_13
REMARK    4  A    between atoms: C_21  and  C_23
REMARK    5  A    between atoms: C_27  and  C_31
REMARK                            x       y       z     vdW  Elec       q    Type
REMARK                         _______ _______ _______ _____ _____    ______ ____
ROOT
ATOM      1  N   UNL     1      32.703 -12.582 -23.171  0.00  0.00    -0.314 N 
ATOM      2  N   UNL     1      32.065 -10.687 -21.875  0.00  0.00    -0.230 NA
ATOM      3  C   UNL     1      33.118  -8.552 -22.294  0.00  0.00    +0.002 C 
ATOM      4  C   UNL     1      33.890  -9.122 -23.301  0.00  0.00    +0.000 C 
ATOM      5  C   UNL     1      32.227  -9.369 -21.618  0.00  0.00    +0.096 C 
ATOM      6  C   UNL     1      32.833 -11.206 -22.859  0.00  0.00    +0.129 C 
ATOM      7  C   UNL     1      33.752 -10.473 -23.594  0.00  0.00    +0.034 C 
ATOM      8  H   UNL     1      32.058 -13.122 -22.662  0.00  0.00    +0.149 HD
ENDROOT
BRANCH   3   9
ATOM      9  C   UNL     1      33.245  -7.075 -21.951  0.00  0.00    +0.056 C 
BRANCH   9  13
ATOM     10 CL   UNL     1      36.161  -4.551 -26.467  0.00  0.00    -0.081 Cl
ATOM     11  N   UNL     1      31.004  -4.949 -23.909  0.00  0.00    -0.297 N 
ATOM     12  N   UNL     1      32.278  -3.977 -25.708  0.00  0.00    -0.228 NA
ATOM     13  C   UNL     1      32.570  -6.166 -22.900  0.00  0.00    -0.000 C 
ATOM     14  C   UNL     1      33.163  -5.509 -24.010  0.00  0.00    +0.030 C 
ATOM     15  C   UNL     1      32.161  -4.759 -24.618  0.00  0.00    +0.132 C 
ATOM     16  C   UNL     1      31.241  -5.802 -22.863  0.00  0.00    +0.059 C 
ATOM     17  C   UNL     1      34.445  -5.458 -24.581  0.00  0.00    +0.015 C 
ATOM     18  C   UNL     1      34.622  -4.663 -25.712  0.00  0.00    +0.077 C 
ATOM     19  C   UNL     1      33.533  -3.965 -26.215  0.00  0.00    +0.112 C 
ATOM     20  H   UNL     1      30.136  -4.537 -24.119  0.00  0.00    +0.154 HD
ENDBRANCH   9  13
ENDBRANCH   3   9
BRANCH   1  21
ATOM     21  C   UNL     1      33.471 -13.215 -24.193  0.00  0.00    +0.117 C 
BRANCH  21  23
ATOM     22  N   UNL     1      34.920 -15.866 -21.915  0.00  0.00    -0.240 NA
ATOM     23  C   UNL     1      33.996 -14.540 -23.713  0.00  0.00    +0.017 C 
ATOM     24  C   UNL     1      34.054 -15.639 -24.563  0.00  0.00    +0.000 C 
ATOM     25  C   UNL     1      34.437 -14.705 -22.410  0.00  0.00    +0.096 C 
ATOM     26  C   UNL     1      34.545 -16.851 -24.090  0.00  0.00    +0.023 C 
ATOM     27  C   UNL     1      34.961 -16.912 -22.771  0.00  0.00    +0.153 C 
BRANCH  27  31
ATOM     28  F   UNL     1      34.802 -19.297 -22.655  0.00  0.00    -0.164 F 
ATOM     29  F   UNL     1      36.793 -18.439 -22.573  0.00  0.00    -0.164 F 
ATOM     30  F   UNL     1      35.458 -18.248 -20.867  0.00  0.00    -0.164 F 
ATOM     31  C   UNL     1      35.493 -18.198 -22.230  0.00  0.00    +0.435 C 
ENDBRANCH  27  31
ENDBRANCH  21  23
ENDBRANCH   1  21
TORSDOF 5
ENDMDL
MODEL 8
REMARK VINA RESULT:     -11.1      5.590     11.517
REMARK  Name = 25151352
REMARK  5 active torsions:
REMARK  status: ('A' for Active; 'I' for Inactive)
REMARK    1  A    between atoms: N_1  and  C_21
REMARK    2  A    between atoms: C_3  and  C_9
REMARK    3  A    between atoms: C_9  and  C_13
REMARK    4  A    between atoms: C_21  and  C_23
REMARK    5  A    between atoms: C_27  and  C_31
REMARK                            x       y       z     vdW  Elec       q    Type
REMARK                         _______ _______ _______ _____ _____    ______ ____
ROOT
ATOM      1  N   UNL     1      32.870 -12.408 -23.893  0.00  0.00    -0.314 N 
ATOM      2  N   UNL     1      32.880 -10.272 -22.835  0.00  0.00    -0.230 NA
ATOM      3  C   UNL     1      34.557  -8.646 -23.457  0.00  0.00    +0.002 C 
ATOM      4  C   UNL     1      35.099  -9.544 -24.370  0.00  0.00    +0.000 C 
ATOM      5  C   UNL     1      33.457  -9.054 -22.721  0.00  0.00    +0.096 C 
ATOM      6  C   UNL     1      33.435 -11.118 -23.731  0.00  0.00    +0.129 C 
ATOM      7  C   UNL     1      34.534 -10.805 -24.515  0.00  0.00    +0.034 C 
ATOM      8  H   UNL     1      32.089 -12.652 -23.346  0.00  0.00    +0.149 HD
ENDROOT
BRANCH   3   9
ATOM      9  C   UNL     1      35.152  -7.257 -23.276  0.00  0.00    +0.056 C 
BRANCH   9  13
ATOM     10 CL   UNL     1      30.422  -4.441 -21.046  0.00  0.00    -0.081 Cl
ATOM     11  N   UNL     1      33.913  -4.749 -25.631  0.00  0.00    -0.297 N 
ATOM     12  N   UNL     1      32.003  -3.668 -24.636  0.00  0.00    -0.228 NA
ATOM     13  C   UNL     1      34.457  -6.192 -24.027  0.00  0.00    -0.000 C 
ATOM     14  C   UNL     1      33.322  -5.455 -23.596  0.00  0.00    +0.030 C 
ATOM     15  C   UNL     1      33.009  -4.563 -24.618  0.00  0.00    +0.132 C 
ATOM     16  C   UNL     1      34.798  -5.736 -25.283  0.00  0.00    +0.059 C 
ATOM     17  C   UNL     1      32.513  -5.435 -22.449  0.00  0.00    +0.015 C 
ATOM     18  C   UNL     1      31.456  -4.526 -22.415  0.00  0.00    +0.077 C 
ATOM     19  C   UNL     1      31.256  -3.693 -23.508  0.00  0.00    +0.112 C 
ATOM     20  H   UNL     1      33.926  -4.249 -26.478  0.00  0.00    +0.154 HD
ENDBRANCH   9  13
ENDBRANCH   3   9
BRANCH   1  21
ATOM     21  C   UNL     1      33.388 -13.365 -24.814  0.00  0.00    +0.117 C 
BRANCH  21  23
ATOM     22  N   UNL     1      34.833 -15.490 -22.037  0.00  0.00    -0.240 NA
ATOM     23  C   UNL     1      33.942 -14.555 -24.080  0.00  0.00    +0.017 C 
ATOM     24  C   UNL     1      34.083 -15.786 -24.714  0.00  0.00    +0.000 C 
ATOM     25  C   UNL     1      34.328 -14.461 -22.753  0.00  0.00    +0.096 C 
ATOM     26  C   UNL     1      34.599 -16.868 -24.009  0.00  0.00    +0.023 C 
ATOM     27  C   UNL     1      34.955 -16.670 -22.685  0.00  0.00    +0.153 C 
BRANCH  27  31
ATOM     28  F   UNL     1      35.654 -17.540 -20.569  0.00  0.00    -0.164 F 
ATOM     29  F   UNL     1      34.744 -18.939 -21.954  0.00  0.00    -0.164 F 
ATOM     30  F   UNL     1      36.750 -18.190 -22.331  0.00  0.00    -0.164 F 
ATOM     31  C   UNL     1      35.512 -17.811 -21.900  0.00  0.00    +0.435 C 
ENDBRANCH  27  31
ENDBRANCH  21  23
ENDBRANCH   1  21
TORSDOF 5
ENDMDL
MODEL 9
REMARK VINA RESULT:     -11.1      6.035     11.774
REMARK  Name = 25151352
REMARK  5 active torsions:
REMARK  status: ('A' for Active; 'I' for Inactive)
REMARK    1  A    between atoms: N_1  and  C_21
REMARK    2  A    between atoms: C_3  and  C_9
REMARK    3  A    between atoms: C_9  and  C_13
REMARK    4  A    between atoms: C_21  and  C_23
REMARK    5  A    between atoms: C_27  and  C_31
REMARK                            x       y       z     vdW  Elec       q    Type
REMARK                         _______ _______ _______ _____ _____    ______ ____
ROOT
ATOM      1  N   UNL     1      32.889 -12.786 -23.810  0.00  0.00    -0.314 N 
ATOM      2  N   UNL     1      32.754 -10.645 -22.770  0.00  0.00    -0.230 NA
ATOM      3  C   UNL     1      34.231  -8.876 -23.495  0.00  0.00    +0.002 C 
ATOM      4  C   UNL     1      34.806  -9.729 -24.431  0.00  0.00    +0.000 C 
ATOM      5  C   UNL     1      33.217  -9.377 -22.696  0.00  0.00    +0.096 C 
ATOM      6  C   UNL     1      33.337 -11.446 -23.690  0.00  0.00    +0.129 C 
ATOM      7  C   UNL     1      34.357 -11.040 -24.536  0.00  0.00    +0.034 C 
ATOM      8  H   UNL     1      32.167 -13.096 -23.219  0.00  0.00    +0.149 HD
ENDROOT
BRANCH   3   9
ATOM      9  C   UNL     1      34.701  -7.435 -23.358  0.00  0.00    +0.056 C 
BRANCH   9  13
ATOM     10 CL   UNL     1      32.395  -3.459 -27.119  0.00  0.00    -0.081 Cl
ATOM     11  N   UNL     1      32.156  -5.404 -21.692  0.00  0.00    -0.297 N 
ATOM     12  N   UNL     1      31.287  -3.830 -23.296  0.00  0.00    -0.228 NA
ATOM     13  C   UNL     1      33.648  -6.487 -22.937  0.00  0.00    -0.000 C 
ATOM     14  C   UNL     1      33.027  -5.499 -23.745  0.00  0.00    +0.030 C 
ATOM     15  C   UNL     1      32.102  -4.842 -22.940  0.00  0.00    +0.132 C 
ATOM     16  C   UNL     1      33.092  -6.405 -21.678  0.00  0.00    +0.059 C 
ATOM     17  C   UNL     1      33.139  -5.076 -25.080  0.00  0.00    +0.015 C 
ATOM     18  C   UNL     1      32.317  -4.031 -25.502  0.00  0.00    +0.077 C 
ATOM     19  C   UNL     1      31.437  -3.464 -24.590  0.00  0.00    +0.112 C 
ATOM     20  H   UNL     1      31.605  -5.132 -20.923  0.00  0.00    +0.154 HD
ENDBRANCH   9  13
ENDBRANCH   3   9
BRANCH   1  21
ATOM     21  C   UNL     1      33.445 -13.701 -24.752  0.00  0.00    +0.117 C 
BRANCH  21  23
ATOM     22  N   UNL     1      34.563 -17.256 -24.097  0.00  0.00    -0.240 NA
ATOM     23  C   UNL     1      34.012 -14.902 -24.047  0.00  0.00    +0.017 C 
ATOM     24  C   UNL     1      34.496 -14.809 -22.746  0.00  0.00    +0.000 C 
ATOM     25  C   UNL     1      34.068 -16.137 -24.672  0.00  0.00    +0.096 C 
ATOM     26  C   UNL     1      35.013 -15.938 -22.121  0.00  0.00    +0.023 C 
ATOM     27  C   UNL     1      35.025 -17.126 -22.832  0.00  0.00    +0.153 C 
BRANCH  27  31
ATOM     28  F   UNL     1      36.907 -18.544 -22.419  0.00  0.00    -0.164 F 
ATOM     29  F   UNL     1      35.438 -18.373 -20.832  0.00  0.00    -0.164 F 
ATOM     30  F   UNL     1      34.963 -19.495 -22.633  0.00  0.00    -0.164 F 
ATOM     31  C   UNL     1      35.574 -18.357 -22.191  0.00  0.00    +0.435 C 
ENDBRANCH  27  31
ENDBRANCH  21  23
ENDBRANCH   1  21
TORSDOF 5
ENDMDL
