MODEL 1
REMARK VINA RESULT:     -13.0      0.000      0.000
REMARK  Name = 5287728
REMARK  9 active torsions:
REMARK  status: ('A' for Active; 'I' for Inactive)
REMARK    1  A    between atoms: S_1  and  N_4
REMARK    2  A    between atoms: S_1  and  N_22
REMARK    3  A    between atoms: C_5  and  N_10
REMARK    4  A    between atoms: N_10  and  C_13
REMARK    5  A    between atoms: C_13  and  C_14
REMARK    6  A    between atoms: C_15  and  O_20
REMARK    7  A    between atoms: N_22  and  C_24
REMARK    8  A    between atoms: C_27  and  O_30
REMARK    9  A    between atoms: O_30  and  C_32
REMARK                            x       y       z     vdW  Elec       q    Type
REMARK                         _______ _______ _______ _____ _____    ______ ____
ROOT
ATOM      1  S   UNL     1      36.227 -18.852 -20.668  0.00  0.00    +0.113 S 
ATOM      2  O   UNL     1      35.708 -17.560 -20.256  0.00  0.00    -0.138 OA
ATOM      3  O   UNL     1      37.656 -19.104 -20.642  0.00  0.00    -0.138 OA
ENDROOT
BRANCH   1   4
ATOM      4  N   UNL     1      35.443 -20.061 -19.738  0.00  0.00    -0.143 NA
ATOM      5  C   UNL     1      34.212 -22.490 -18.717  0.00  0.00    -0.059 C 
ATOM      6  C   UNL     1      33.379 -21.283 -19.163  0.00  0.00    -0.002 C 
ATOM      7  C   UNL     1      35.605 -22.035 -18.266  0.00  0.00    -0.002 C 
ATOM      8  C   UNL     1      34.105 -20.485 -20.244  0.00  0.00    +0.095 C 
ATOM      9  C   UNL     1      36.297 -21.225 -19.359  0.00  0.00    +0.095 C 
BRANCH   5  10
ATOM     10  N   UNL     1      33.537 -23.190 -17.628  0.00  0.00    +0.388 N 
ATOM     11  H   UNL     1      34.135 -23.181 -16.802  0.00  0.00    -0.084 HD
ATOM     12  H   UNL     1      33.350 -24.149 -17.921  0.00  0.00    -0.084 HD
BRANCH  10  13
ATOM     13  C   UNL     1      32.271 -22.546 -17.307  0.00  0.00    -0.051 C 
BRANCH  13  14
ATOM     14  C   UNL     1      31.710 -23.034 -15.999  0.00  0.00    -0.010 C 
ATOM     15  C   UNL     1      30.339 -23.034 -15.780  0.00  0.00    +0.128 C 
ATOM     16  C   UNL     1      32.588 -23.483 -15.019  0.00  0.00    -0.003 C 
ATOM     17  C   UNL     1      29.835 -23.490 -14.562  0.00  0.00    +0.036 C 
ATOM     18  C   UNL     1      32.084 -23.938 -13.800  0.00  0.00    -0.000 C 
ATOM     19  C   UNL     1      30.709 -23.941 -13.572  0.00  0.00    +0.003 C 
BRANCH  15  20
ATOM     20  O   UNL     1      29.472 -22.596 -16.736  0.00  0.00    -0.506 OA
ATOM     21  H   UNL     1      29.003 -23.214 -17.262  0.00  0.00    +0.292 HD
ENDBRANCH  15  20
ENDBRANCH  13  14
ENDBRANCH  10  13
ENDBRANCH   5  10
ENDBRANCH   1   4
BRANCH   1  22
ATOM     22  N   UNL     1      35.593 -19.194 -22.236  0.00  0.00    -0.205 N 
ATOM     23  H   UNL     1      35.615 -20.102 -22.615  0.00  0.00    +0.175 HD
BRANCH  22  24
ATOM     24  C   UNL     1      35.031 -18.086 -22.965  0.00  0.00    +0.069 C 
ATOM     25  C   UNL     1      35.312 -16.786 -22.562  0.00  0.00    +0.053 C 
ATOM     26  C   UNL     1      34.214 -18.331 -24.062  0.00  0.00    +0.016 C 
ATOM     27  C   UNL     1      34.766 -15.714 -23.269  0.00  0.00    +0.147 C 
ATOM     28  C   UNL     1      33.669 -17.258 -24.767  0.00  0.00    +0.004 C 
ATOM     29  C   UNL     1      33.945 -15.950 -24.371  0.00  0.00    +0.038 C 
BRANCH  27  30
ATOM     30  O   UNL     1      35.035 -14.437 -22.880  0.00  0.00    -0.453 OA
BRANCH  30  32
ATOM     31  F   UNL     1      30.960 -11.551 -20.598  0.00  0.00    -0.204 F 
ATOM     32  C   UNL     1      34.007 -13.709 -22.305  0.00  0.00    +0.145 C 
ATOM     33  C   UNL     1      33.511 -12.602 -22.970  0.00  0.00    +0.040 C 
ATOM     34  C   UNL     1      33.503 -14.108 -21.080  0.00  0.00    +0.040 C 
ATOM     35  C   UNL     1      32.475 -11.870 -22.390  0.00  0.00    +0.033 C 
ATOM     36  C   UNL     1      32.468 -13.375 -20.500  0.00  0.00    +0.033 C 
ATOM     37  C   UNL     1      31.955 -12.256 -21.155  0.00  0.00    +0.140 C 
ENDBRANCH  30  32
ENDBRANCH  27  30
ENDBRANCH  22  24
ENDBRANCH   1  22
TORSDOF 9
ENDMDL
MODEL 2
REMARK VINA RESULT:     -12.0      3.626      6.772
REMARK  Name = 5287728
REMARK  9 active torsions:
REMARK  status: ('A' for Active; 'I' for Inactive)
REMARK    1  A    between atoms: S_1  and  N_4
REMARK    2  A    between atoms: S_1  and  N_22
REMARK    3  A    between atoms: C_5  and  N_10
REMARK    4  A    between atoms: N_10  and  C_13
REMARK    5  A    between atoms: C_13  and  C_14
REMARK    6  A    between atoms: C_15  and  O_20
REMARK    7  A    between atoms: N_22  and  C_24
REMARK    8  A    between atoms: C_27  and  O_30
REMARK    9  A    between atoms: O_30  and  C_32
REMARK                            x       y       z     vdW  Elec       q    Type
REMARK                         _______ _______ _______ _____ _____    ______ ____
ROOT
ATOM      1  S   UNL     1      33.431 -13.561 -23.530  0.00  0.00    +0.113 S 
ATOM      2  O   UNL     1      34.452 -12.683 -22.989  0.00  0.00    -0.138 OA
ATOM      3  O   UNL     1      33.035 -13.446 -24.922  0.00  0.00    -0.138 OA
ENDROOT
BRANCH   1   4
ATOM      4  N   UNL     1      33.909 -15.180 -23.230  0.00  0.00    -0.143 NA
ATOM      5  C   UNL     1      35.321 -17.708 -22.958  0.00  0.00    -0.059 C 
ATOM      6  C   UNL     1      34.308 -17.461 -24.081  0.00  0.00    -0.002 C 
ATOM      7  C   UNL     1      34.996 -16.826 -21.748  0.00  0.00    -0.002 C 
ATOM      8  C   UNL     1      34.243 -15.980 -24.445  0.00  0.00    +0.095 C 
ATOM      9  C   UNL     1      34.920 -15.355 -22.146  0.00  0.00    +0.095 C 
BRANCH   5  10
ATOM     10  N   UNL     1      35.307 -19.116 -22.571  0.00  0.00    +0.388 N 
ATOM     11  H   UNL     1      35.890 -19.647 -23.218  0.00  0.00    -0.084 HD
ATOM     12  H   UNL     1      34.345 -19.454 -22.600  0.00  0.00    -0.084 HD
BRANCH  10  13
ATOM     13  C   UNL     1      35.820 -19.284 -21.219  0.00  0.00    -0.051 C 
BRANCH  13  14
ATOM     14  C   UNL     1      34.944 -20.190 -20.396  0.00  0.00    -0.010 C 
ATOM     15  C   UNL     1      35.511 -21.120 -19.534  0.00  0.00    +0.128 C 
ATOM     16  C   UNL     1      33.564 -20.077 -20.516  0.00  0.00    -0.003 C 
ATOM     17  C   UNL     1      34.684 -21.952 -18.779  0.00  0.00    +0.036 C 
ATOM     18  C   UNL     1      32.738 -20.910 -19.761  0.00  0.00    -0.000 C 
ATOM     19  C   UNL     1      33.298 -21.846 -18.893  0.00  0.00    +0.003 C 
BRANCH  15  20
ATOM     20  O   UNL     1      36.863 -21.236 -19.412  0.00  0.00    -0.506 OA
ATOM     21  H   UNL     1      37.298 -22.006 -19.722  0.00  0.00    +0.292 HD
ENDBRANCH  15  20
ENDBRANCH  13  14
ENDBRANCH  10  13
ENDBRANCH   5  10
ENDBRANCH   1   4
BRANCH   1  22
ATOM     22  N   UNL     1      32.045 -13.442 -22.508  0.00  0.00    -0.205 N 
ATOM     23  H   UNL     1      31.362 -14.151 -22.479  0.00  0.00    +0.175 HD
BRANCH  22  24
ATOM     24  C   UNL     1      31.934 -12.256 -21.699  0.00  0.00    +0.069 C 
ATOM     25  C   UNL     1      31.652 -11.037 -22.304  0.00  0.00    +0.053 C 
ATOM     26  C   UNL     1      32.111 -12.344 -20.324  0.00  0.00    +0.016 C 
ATOM     27  C   UNL     1      31.546  -9.888 -21.520  0.00  0.00    +0.147 C 
ATOM     28  C   UNL     1      32.004 -11.195 -19.541  0.00  0.00    +0.004 C 
ATOM     29  C   UNL     1      31.721  -9.968 -20.139  0.00  0.00    +0.038 C 
BRANCH  27  30
ATOM     30  O   UNL     1      31.272  -8.689 -22.104  0.00  0.00    -0.453 OA
BRANCH  30  32
ATOM     31  F   UNL     1      35.496  -5.775 -24.055  0.00  0.00    -0.204 F 
ATOM     32  C   UNL     1      32.337  -7.954 -22.596  0.00  0.00    +0.145 C 
ATOM     33  C   UNL     1      33.526  -8.600 -22.883  0.00  0.00    +0.040 C 
ATOM     34  C   UNL     1      32.185  -6.593 -22.789  0.00  0.00    +0.040 C 
ATOM     35  C   UNL     1      34.599  -7.860 -23.379  0.00  0.00    +0.033 C 
ATOM     36  C   UNL     1      33.258  -5.852 -23.284  0.00  0.00    +0.033 C 
ATOM     37  C   UNL     1      34.465  -6.486 -23.579  0.00  0.00    +0.140 C 
ENDBRANCH  30  32
ENDBRANCH  27  30
ENDBRANCH  22  24
ENDBRANCH   1  22
TORSDOF 9
ENDMDL
MODEL 3
REMARK VINA RESULT:     -11.9      3.358     10.551
REMARK  Name = 5287728
REMARK  9 active torsions:
REMARK  status: ('A' for Active; 'I' for Inactive)
REMARK    1  A    between atoms: S_1  and  N_4
REMARK    2  A    between atoms: S_1  and  N_22
REMARK    3  A    between atoms: C_5  and  N_10
REMARK    4  A    between atoms: N_10  and  C_13
REMARK    5  A    between atoms: C_13  and  C_14
REMARK    6  A    between atoms: C_15  and  O_20
REMARK    7  A    between atoms: N_22  and  C_24
REMARK    8  A    between atoms: C_27  and  O_30
REMARK    9  A    between atoms: O_30  and  C_32
REMARK                            x       y       z     vdW  Elec       q    Type
REMARK                         _______ _______ _______ _____ _____    ______ ____
ROOT
ATOM      1  S   UNL     1      33.546 -22.926 -17.883  0.00  0.00    +0.113 S 
ATOM      2  O   UNL     1      32.312 -22.454 -17.282  0.00  0.00    -0.138 OA
ATOM      3  O   UNL     1      33.650 -24.296 -18.353  0.00  0.00    -0.138 OA
ENDROOT
BRANCH   1   4
ATOM      4  N   UNL     1      33.943 -21.874 -19.178  0.00  0.00    -0.143 NA
ATOM      5  C   UNL     1      34.630 -19.620 -20.882  0.00  0.00    -0.059 C 
ATOM      6  C   UNL     1      33.221 -20.220 -20.860  0.00  0.00    -0.002 C 
ATOM      7  C   UNL     1      35.664 -20.679 -20.482  0.00  0.00    -0.002 C 
ATOM      8  C   UNL     1      32.912 -20.845 -19.501  0.00  0.00    +0.095 C 
ATOM      9  C   UNL     1      35.319 -21.297 -19.130  0.00  0.00    +0.095 C 
BRANCH   5  10
ATOM     10  N   UNL     1      34.933 -19.102 -22.214  0.00  0.00    +0.388 N 
ATOM     11  H   UNL     1      34.060 -18.878 -22.692  0.00  0.00    -0.084 HD
ATOM     12  H   UNL     1      35.451 -19.812 -22.732  0.00  0.00    -0.084 HD
BRANCH  10  13
ATOM     13  C   UNL     1      35.750 -17.900 -22.126  0.00  0.00    -0.051 C 
BRANCH  13  14
ATOM     14  C   UNL     1      35.032 -16.695 -22.671  0.00  0.00    -0.010 C 
ATOM     15  C   UNL     1      34.518 -16.709 -23.962  0.00  0.00    +0.128 C 
ATOM     16  C   UNL     1      34.896 -15.573 -21.862  0.00  0.00    -0.003 C 
ATOM     17  C   UNL     1      33.856 -15.583 -24.451  0.00  0.00    +0.036 C 
ATOM     18  C   UNL     1      34.235 -14.447 -22.353  0.00  0.00    -0.000 C 
ATOM     19  C   UNL     1      33.715 -14.452 -23.646  0.00  0.00    +0.003 C 
BRANCH  15  20
ATOM     20  O   UNL     1      34.647 -17.805 -24.760  0.00  0.00    -0.506 OA
ATOM     21  H   UNL     1      34.704 -18.659 -24.378  0.00  0.00    +0.292 HD
ENDBRANCH  15  20
ENDBRANCH  13  14
ENDBRANCH  10  13
ENDBRANCH   5  10
ENDBRANCH   1   4
BRANCH   1  22
ATOM     22  N   UNL     1      34.829 -22.578 -16.783  0.00  0.00    -0.205 N 
ATOM     23  H   UNL     1      35.554 -21.954 -17.016  0.00  0.00    +0.175 HD
BRANCH  22  24
ATOM     24  C   UNL     1      34.789 -23.244 -15.507  0.00  0.00    +0.069 C 
ATOM     25  C   UNL     1      33.586 -23.334 -14.817  0.00  0.00    +0.053 C 
ATOM     26  C   UNL     1      35.954 -23.788 -14.980  0.00  0.00    +0.016 C 
ATOM     27  C   UNL     1      33.549 -23.979 -13.581  0.00  0.00    +0.147 C 
ATOM     28  C   UNL     1      35.916 -24.433 -13.744  0.00  0.00    +0.004 C 
ATOM     29  C   UNL     1      34.713 -24.529 -13.045  0.00  0.00    +0.038 C 
BRANCH  27  30
ATOM     30  O   UNL     1      32.375 -24.071 -12.898  0.00  0.00    -0.453 OA
BRANCH  30  32
ATOM     31  F   UNL     1      27.723 -24.131 -15.813  0.00  0.00    -0.204 F 
ATOM     32  C   UNL     1      31.201 -24.086 -13.633  0.00  0.00    +0.145 C 
ATOM     33  C   UNL     1      30.594 -25.299 -13.908  0.00  0.00    +0.040 C 
ATOM     34  C   UNL     1      30.667 -22.889 -14.072  0.00  0.00    +0.040 C 
ATOM     35  C   UNL     1      29.413 -25.313 -14.649  0.00  0.00    +0.033 C 
ATOM     36  C   UNL     1      29.486 -22.904 -14.814  0.00  0.00    +0.033 C 
ATOM     37  C   UNL     1      28.859 -24.116 -15.102  0.00  0.00    +0.140 C 
ENDBRANCH  30  32
ENDBRANCH  27  30
ENDBRANCH  22  24
ENDBRANCH   1  22
TORSDOF 9
ENDMDL
MODEL 4
REMARK VINA RESULT:     -11.6      3.393     10.975
REMARK  Name = 5287728
REMARK  9 active torsions:
REMARK  status: ('A' for Active; 'I' for Inactive)
REMARK    1  A    between atoms: S_1  and  N_4
REMARK    2  A    between atoms: S_1  and  N_22
REMARK    3  A    between atoms: C_5  and  N_10
REMARK    4  A    between atoms: N_10  and  C_13
REMARK    5  A    between atoms: C_13  and  C_14
REMARK    6  A    between atoms: C_15  and  O_20
REMARK    7  A    between atoms: N_22  and  C_24
REMARK    8  A    between atoms: C_27  and  O_30
REMARK    9  A    between atoms: O_30  and  C_32
REMARK                            x       y       z     vdW  Elec       q    Type
REMARK                         _______ _______ _______ _____ _____    ______ ____
ROOT
ATOM      1  S   UNL     1      35.682 -18.112 -21.401  0.00  0.00    +0.113 S 
ATOM      2  O   UNL     1      36.495 -18.595 -22.503  0.00  0.00    -0.138 OA
ATOM      3  O   UNL     1      36.287 -17.864 -20.105  0.00  0.00    -0.138 OA
ENDROOT
BRANCH   1   4
ATOM      4  N   UNL     1      34.888 -16.681 -21.914  0.00  0.00    -0.143 NA
ATOM      5  C   UNL     1      34.173 -14.003 -22.791  0.00  0.00    -0.059 C 
ATOM      6  C   UNL     1      33.920 -14.481 -21.358  0.00  0.00    -0.002 C 
ATOM      7  C   UNL     1      34.185 -15.195 -23.754  0.00  0.00    -0.002 C 
ATOM      8  C   UNL     1      34.937 -15.545 -20.948  0.00  0.00    +0.095 C 
ATOM      9  C   UNL     1      35.196 -16.248 -23.309  0.00  0.00    +0.095 C 
BRANCH   5  10
ATOM     10  N   UNL     1      33.142 -13.047 -23.189  0.00  0.00    +0.388 N 
ATOM     11  H   UNL     1      32.837 -12.523 -22.369  0.00  0.00    -0.084 HD
ATOM     12  H   UNL     1      32.358 -13.560 -23.594  0.00  0.00    -0.084 HD
BRANCH  10  13
ATOM     13  C   UNL     1      33.656 -12.119 -24.185  0.00  0.00    -0.051 C 
BRANCH  13  14
ATOM     14  C   UNL     1      33.626 -10.696 -23.693  0.00  0.00    -0.010 C 
ATOM     15  C   UNL     1      34.599  -9.793 -24.099  0.00  0.00    +0.128 C 
ATOM     16  C   UNL     1      32.609 -10.308 -22.829  0.00  0.00    -0.003 C 
ATOM     17  C   UNL     1      34.556  -8.479 -23.633  0.00  0.00    +0.036 C 
ATOM     18  C   UNL     1      32.567  -8.994 -22.362  0.00  0.00    -0.000 C 
ATOM     19  C   UNL     1      33.540  -8.080 -22.765  0.00  0.00    +0.003 C 
BRANCH  15  20
ATOM     20  O   UNL     1      35.599 -10.166 -24.947  0.00  0.00    -0.506 OA
ATOM     21  H   UNL     1      36.451  -9.785 -24.863  0.00  0.00    +0.292 HD
ENDBRANCH  15  20
ENDBRANCH  13  14
ENDBRANCH  10  13
ENDBRANCH   5  10
ENDBRANCH   1   4
BRANCH   1  22
ATOM     22  N   UNL     1      34.339 -19.182 -21.234  0.00  0.00    -0.205 N 
ATOM     23  H   UNL     1      33.514 -19.062 -21.758  0.00  0.00    +0.175 HD
BRANCH  22  24
ATOM     24  C   UNL     1      34.482 -20.262 -20.291  0.00  0.00    +0.069 C 
ATOM     25  C   UNL     1      33.347 -20.871 -19.769  0.00  0.00    +0.053 C 
ATOM     26  C   UNL     1      35.752 -20.680 -19.915  0.00  0.00    +0.016 C 
ATOM     27  C   UNL     1      33.487 -21.915 -18.856  0.00  0.00    +0.147 C 
ATOM     28  C   UNL     1      35.890 -21.725 -19.002  0.00  0.00    +0.004 C 
ATOM     29  C   UNL     1      34.758 -22.342 -18.472  0.00  0.00    +0.038 C 
BRANCH  27  30
ATOM     30  O   UNL     1      32.381 -22.517 -18.338  0.00  0.00    -0.453 OA
BRANCH  30  32
ATOM     31  F   UNL     1      32.417 -23.752 -12.988  0.00  0.00    -0.204 F 
ATOM     32  C   UNL     1      32.390 -22.829 -16.988  0.00  0.00    +0.145 C 
ATOM     33  C   UNL     1      31.203 -22.790 -16.280  0.00  0.00    +0.040 C 
ATOM     34  C   UNL     1      33.586 -23.171 -16.384  0.00  0.00    +0.040 C 
ATOM     35  C   UNL     1      31.212 -23.104 -14.921  0.00  0.00    +0.033 C 
ATOM     36  C   UNL     1      33.596 -23.484 -15.025  0.00  0.00    +0.033 C 
ATOM     37  C   UNL     1      32.408 -23.451 -14.293  0.00  0.00    +0.140 C 
ENDBRANCH  30  32
ENDBRANCH  27  30
ENDBRANCH  22  24
ENDBRANCH   1  22
TORSDOF 9
ENDMDL
MODEL 5
REMARK VINA RESULT:     -11.6      3.911     10.670
REMARK  Name = 5287728
REMARK  9 active torsions:
REMARK  status: ('A' for Active; 'I' for Inactive)
REMARK    1  A    between atoms: S_1  and  N_4
REMARK    2  A    between atoms: S_1  and  N_22
REMARK    3  A    between atoms: C_5  and  N_10
REMARK    4  A    between atoms: N_10  and  C_13
REMARK    5  A    between atoms: C_13  and  C_14
REMARK    6  A    between atoms: C_15  and  O_20
REMARK    7  A    between atoms: N_22  and  C_24
REMARK    8  A    between atoms: C_27  and  O_30
REMARK    9  A    between atoms: O_30  and  C_32
REMARK                            x       y       z     vdW  Elec       q    Type
REMARK                         _______ _______ _______ _____ _____    ______ ____
ROOT
ATOM      1  S   UNL     1      34.040 -22.898 -18.222  0.00  0.00    +0.113 S 
ATOM      2  O   UNL     1      33.827 -23.963 -19.185  0.00  0.00    -0.138 OA
ATOM      3  O   UNL     1      34.956 -23.093 -17.112  0.00  0.00    -0.138 OA
ENDROOT
BRANCH   1   4
ATOM      4  N   UNL     1      34.516 -21.492 -19.080  0.00  0.00    -0.143 NA
ATOM      5  C   UNL     1      35.375 -19.541 -21.058  0.00  0.00    -0.059 C 
ATOM      6  C   UNL     1      36.320 -20.064 -19.971  0.00  0.00    -0.002 C 
ATOM      7  C   UNL     1      33.920 -19.628 -20.583  0.00  0.00    -0.002 C 
ATOM      8  C   UNL     1      35.934 -21.479 -19.544  0.00  0.00    +0.095 C 
ATOM      9  C   UNL     1      33.570 -21.048 -20.147  0.00  0.00    +0.095 C 
BRANCH   5  10
ATOM     10  N   UNL     1      35.712 -18.160 -21.392  0.00  0.00    +0.388 N 
ATOM     11  H   UNL     1      36.721 -18.031 -21.307  0.00  0.00    -0.084 HD
ATOM     12  H   UNL     1      35.219 -17.538 -20.751  0.00  0.00    -0.084 HD
BRANCH  10  13
ATOM     13  C   UNL     1      35.305 -17.844 -22.753  0.00  0.00    -0.051 C 
BRANCH  13  14
ATOM     14  C   UNL     1      34.763 -16.444 -22.866  0.00  0.00    -0.010 C 
ATOM     15  C   UNL     1      34.232 -15.992 -24.067  0.00  0.00    +0.128 C 
ATOM     16  C   UNL     1      34.804 -15.619 -21.749  0.00  0.00    -0.003 C 
ATOM     17  C   UNL     1      33.735 -14.692 -24.154  0.00  0.00    +0.036 C 
ATOM     18  C   UNL     1      34.306 -14.318 -21.836  0.00  0.00    -0.000 C 
ATOM     19  C   UNL     1      33.772 -13.855 -23.038  0.00  0.00    +0.003 C 
BRANCH  15  20
ATOM     20  O   UNL     1      34.189 -16.796 -25.166  0.00  0.00    -0.506 OA
ATOM     21  H   UNL     1      34.178 -16.418 -26.024  0.00  0.00    +0.292 HD
ENDBRANCH  15  20
ENDBRANCH  13  14
ENDBRANCH  10  13
ENDBRANCH   5  10
ENDBRANCH   1   4
BRANCH   1  22
ATOM     22  N   UNL     1      32.494 -22.407 -17.634  0.00  0.00    -0.205 N 
ATOM     23  H   UNL     1      31.924 -21.783 -18.139  0.00  0.00    +0.175 HD
BRANCH  22  24
ATOM     24  C   UNL     1      32.076 -22.955 -16.369  0.00  0.00    +0.069 C 
ATOM     25  C   UNL     1      33.033 -23.358 -15.446  0.00  0.00    +0.053 C 
ATOM     26  C   UNL     1      30.721 -23.073 -16.087  0.00  0.00    +0.016 C 
ATOM     27  C   UNL     1      32.627 -23.889 -14.222  0.00  0.00    +0.147 C 
ATOM     28  C   UNL     1      30.316 -23.604 -14.863  0.00  0.00    +0.004 C 
ATOM     29  C   UNL     1      31.269 -24.011 -13.930  0.00  0.00    +0.038 C 
BRANCH  27  30
ATOM     30  O   UNL     1      33.558 -24.288 -13.312  0.00  0.00    -0.453 OA
BRANCH  30  32
ATOM     31  F   UNL     1      38.810 -24.390 -14.908  0.00  0.00    -0.204 F 
ATOM     32  C   UNL     1      34.883 -24.313 -13.715  0.00  0.00    +0.145 C 
ATOM     33  C   UNL     1      35.366 -25.431 -14.372  0.00  0.00    +0.040 C 
ATOM     34  C   UNL     1      35.688 -23.221 -13.450  0.00  0.00    +0.040 C 
ATOM     35  C   UNL     1      36.699 -25.456 -14.777  0.00  0.00    +0.033 C 
ATOM     36  C   UNL     1      37.023 -23.247 -13.854  0.00  0.00    +0.033 C 
ATOM     37  C   UNL     1      37.528 -24.365 -14.518  0.00  0.00    +0.140 C 
ENDBRANCH  30  32
ENDBRANCH  27  30
ENDBRANCH  22  24
ENDBRANCH   1  22
TORSDOF 9
ENDMDL
MODEL 6
REMARK VINA RESULT:     -11.5      3.478     10.858
REMARK  Name = 5287728
REMARK  9 active torsions:
REMARK  status: ('A' for Active; 'I' for Inactive)
REMARK    1  A    between atoms: S_1  and  N_4
REMARK    2  A    between atoms: S_1  and  N_22
REMARK    3  A    between atoms: C_5  and  N_10
REMARK    4  A    between atoms: N_10  and  C_13
REMARK    5  A    between atoms: C_13  and  C_14
REMARK    6  A    between atoms: C_15  and  O_20
REMARK    7  A    between atoms: N_22  and  C_24
REMARK    8  A    between atoms: C_27  and  O_30
REMARK    9  A    between atoms: O_30  and  C_32
REMARK                            x       y       z     vdW  Elec       q    Type
REMARK                         _______ _______ _______ _____ _____    ______ ____
ROOT
ATOM      1  S   UNL     1      35.599 -18.600 -22.480  0.00  0.00    +0.113 S 
ATOM      2  O   UNL     1      35.045 -19.587 -23.388  0.00  0.00    -0.138 OA
ATOM      3  O   UNL     1      37.028 -18.564 -22.227  0.00  0.00    -0.138 OA
ENDROOT
BRANCH   1   4
ATOM      4  N   UNL     1      35.101 -17.048 -23.014  0.00  0.00    -0.143 NA
ATOM      5  C   UNL     1      33.656 -14.610 -23.665  0.00  0.00    -0.059 C 
ATOM      6  C   UNL     1      34.018 -15.647 -24.732  0.00  0.00    -0.002 C 
ATOM      7  C   UNL     1      34.651 -14.677 -22.501  0.00  0.00    -0.002 C 
ATOM      8  C   UNL     1      34.108 -17.047 -24.128  0.00  0.00    +0.095 C 
ATOM      9  C   UNL     1      34.732 -16.090 -21.930  0.00  0.00    +0.095 C 
BRANCH   5  10
ATOM     10  N   UNL     1      33.656 -13.270 -24.247  0.00  0.00    +0.388 N 
ATOM     11  H   UNL     1      33.089 -13.275 -25.096  0.00  0.00    -0.084 HD
ATOM     12  H   UNL     1      34.617 -13.007 -24.464  0.00  0.00    -0.084 HD
BRANCH  10  13
ATOM     13  C   UNL     1      33.105 -12.301 -23.311  0.00  0.00    -0.051 C 
BRANCH  13  14
ATOM     14  C   UNL     1      33.623 -10.912 -23.574  0.00  0.00    -0.010 C 
ATOM     15  C   UNL     1      33.057  -9.819 -22.930  0.00  0.00    +0.128 C 
ATOM     16  C   UNL     1      34.672 -10.747 -24.470  0.00  0.00    -0.003 C 
ATOM     17  C   UNL     1      33.549  -8.540 -23.186  0.00  0.00    +0.036 C 
ATOM     18  C   UNL     1      35.163  -9.466 -24.726  0.00  0.00    -0.000 C 
ATOM     19  C   UNL     1      34.602  -8.364 -24.084  0.00  0.00    +0.003 C 
BRANCH  15  20
ATOM     20  O   UNL     1      32.028  -9.974 -22.051  0.00  0.00    -0.506 OA
ATOM     21  H   UNL     1      32.021 -10.703 -21.462  0.00  0.00    +0.292 HD
ENDBRANCH  15  20
ENDBRANCH  13  14
ENDBRANCH  10  13
ENDBRANCH   5  10
ENDBRANCH   1   4
BRANCH   1  22
ATOM     22  N   UNL     1      34.737 -18.717 -20.990  0.00  0.00    -0.205 N 
ATOM     23  H   UNL     1      34.161 -17.986 -20.667  0.00  0.00    +0.175 HD
BRANCH  22  24
ATOM     24  C   UNL     1      34.898 -19.937 -20.241  0.00  0.00    +0.069 C 
ATOM     25  C   UNL     1      33.774 -20.626 -19.803  0.00  0.00    +0.053 C 
ATOM     26  C   UNL     1      36.175 -20.408 -19.964  0.00  0.00    +0.016 C 
ATOM     27  C   UNL     1      33.931 -21.807 -19.076  0.00  0.00    +0.147 C 
ATOM     28  C   UNL     1      36.331 -21.588 -19.238  0.00  0.00    +0.004 C 
ATOM     29  C   UNL     1      35.210 -22.287 -18.794  0.00  0.00    +0.038 C 
BRANCH  27  30
ATOM     30  O   UNL     1      32.836 -22.489 -18.642  0.00  0.00    -0.453 OA
BRANCH  30  32
ATOM     31  F   UNL     1      32.515 -23.664 -13.289  0.00  0.00    -0.204 F 
ATOM     32  C   UNL     1      32.755 -22.785 -17.292  0.00  0.00    +0.145 C 
ATOM     33  C   UNL     1      33.916 -23.058 -16.591  0.00  0.00    +0.040 C 
ATOM     34  C   UNL     1      31.516 -22.799 -16.678  0.00  0.00    +0.040 C 
ATOM     35  C   UNL     1      33.835 -23.356 -15.231  0.00  0.00    +0.033 C 
ATOM     36  C   UNL     1      31.434 -23.099 -15.319  0.00  0.00    +0.033 C 
ATOM     37  C   UNL     1      32.593 -23.377 -14.595  0.00  0.00    +0.140 C 
ENDBRANCH  30  32
ENDBRANCH  27  30
ENDBRANCH  22  24
ENDBRANCH   1  22
TORSDOF 9
ENDMDL
MODEL 7
REMARK VINA RESULT:     -11.5      2.797      4.400
REMARK  Name = 5287728
REMARK  9 active torsions:
REMARK  status: ('A' for Active; 'I' for Inactive)
REMARK    1  A    between atoms: S_1  and  N_4
REMARK    2  A    between atoms: S_1  and  N_22
REMARK    3  A    between atoms: C_5  and  N_10
REMARK    4  A    between atoms: N_10  and  C_13
REMARK    5  A    between atoms: C_13  and  C_14
REMARK    6  A    between atoms: C_15  and  O_20
REMARK    7  A    between atoms: N_22  and  C_24
REMARK    8  A    between atoms: C_27  and  O_30
REMARK    9  A    between atoms: O_30  and  C_32
REMARK                            x       y       z     vdW  Elec       q    Type
REMARK                         _______ _______ _______ _____ _____    ______ ____
ROOT
ATOM      1  S   UNL     1      34.481 -16.916 -24.122  0.00  0.00    +0.113 S 
ATOM      2  O   UNL     1      35.247 -17.452 -25.232  0.00  0.00    -0.138 OA
ATOM      3  O   UNL     1      33.044 -16.750 -24.242  0.00  0.00    -0.138 OA
ENDROOT
BRANCH   1   4
ATOM      4  N   UNL     1      34.806 -17.877 -22.739  0.00  0.00    -0.143 NA
ATOM      5  C   UNL     1      35.751 -19.854 -20.828  0.00  0.00    -0.059 C 
ATOM      6  C   UNL     1      34.335 -19.902 -21.411  0.00  0.00    -0.002 C 
ATOM      7  C   UNL     1      36.279 -18.415 -20.834  0.00  0.00    -0.002 C 
ATOM      8  C   UNL     1      34.295 -19.278 -22.804  0.00  0.00    +0.095 C 
ATOM      9  C   UNL     1      36.209 -17.813 -22.235  0.00  0.00    +0.095 C 
BRANCH   5  10
ATOM     10  N   UNL     1      35.750 -20.381 -19.465  0.00  0.00    +0.388 N 
ATOM     11  H   UNL     1      35.003 -19.933 -18.934  0.00  0.00    -0.084 HD
ATOM     12  H   UNL     1      36.655 -20.188 -19.038  0.00  0.00    -0.084 HD
BRANCH  10  13
ATOM     13  C   UNL     1      35.534 -21.821 -19.470  0.00  0.00    -0.051 C 
BRANCH  13  14
ATOM     14  C   UNL     1      35.024 -22.315 -18.142  0.00  0.00    -0.010 C 
ATOM     15  C   UNL     1      33.701 -22.715 -18.004  0.00  0.00    +0.128 C 
ATOM     16  C   UNL     1      35.899 -22.362 -17.064  0.00  0.00    -0.003 C 
ATOM     17  C   UNL     1      33.245 -23.170 -16.768  0.00  0.00    +0.036 C 
ATOM     18  C   UNL     1      35.442 -22.816 -15.827  0.00  0.00    -0.000 C 
ATOM     19  C   UNL     1      34.116 -23.220 -15.679  0.00  0.00    +0.003 C 
BRANCH  15  20
ATOM     20  O   UNL     1      32.838 -22.672 -19.058  0.00  0.00    -0.506 OA
ATOM     21  H   UNL     1      31.917 -22.581 -18.906  0.00  0.00    +0.292 HD
ENDBRANCH  15  20
ENDBRANCH  13  14
ENDBRANCH  10  13
ENDBRANCH   5  10
ENDBRANCH   1   4
BRANCH   1  22
ATOM     22  N   UNL     1      35.213 -15.425 -23.654  0.00  0.00    -0.205 N 
ATOM     23  H   UNL     1      36.142 -15.207 -23.896  0.00  0.00    +0.175 HD
BRANCH  22  24
ATOM     24  C   UNL     1      34.399 -14.513 -22.893  0.00  0.00    +0.069 C 
ATOM     25  C   UNL     1      33.837 -13.408 -23.520  0.00  0.00    +0.053 C 
ATOM     26  C   UNL     1      34.187 -14.748 -21.541  0.00  0.00    +0.016 C 
ATOM     27  C   UNL     1      33.050 -12.524 -22.781  0.00  0.00    +0.147 C 
ATOM     28  C   UNL     1      33.400 -13.865 -20.803  0.00  0.00    +0.004 C 
ATOM     29  C   UNL     1      32.831 -12.753 -21.423  0.00  0.00    +0.038 C 
BRANCH  27  30
ATOM     30  O   UNL     1      32.496 -11.438 -23.387  0.00  0.00    -0.453 OA
BRANCH  30  32
ATOM     31  F   UNL     1      35.203  -6.673 -23.057  0.00  0.00    -0.204 F 
ATOM     32  C   UNL     1      33.179 -10.236 -23.304  0.00  0.00    +0.145 C 
ATOM     33  C   UNL     1      32.687  -9.237 -22.482  0.00  0.00    +0.040 C 
ATOM     34  C   UNL     1      34.335 -10.066 -24.044  0.00  0.00    +0.040 C 
ATOM     35  C   UNL     1      33.375  -8.028 -22.399  0.00  0.00    +0.033 C 
ATOM     36  C   UNL     1      35.022  -8.855 -23.961  0.00  0.00    +0.033 C 
ATOM     37  C   UNL     1      34.542  -7.836 -23.138  0.00  0.00    +0.140 C 
ENDBRANCH  30  32
ENDBRANCH  27  30
ENDBRANCH  22  24
ENDBRANCH   1  22
TORSDOF 9
ENDMDL
MODEL 8
REMARK VINA RESULT:     -11.4      3.470     10.166
REMARK  Name = 5287728
REMARK  9 active torsions:
REMARK  status: ('A' for Active; 'I' for Inactive)
REMARK    1  A    between atoms: S_1  and  N_4
REMARK    2  A    between atoms: S_1  and  N_22
REMARK    3  A    between atoms: C_5  and  N_10
REMARK    4  A    between atoms: N_10  and  C_13
REMARK    5  A    between atoms: C_13  and  C_14
REMARK    6  A    between atoms: C_15  and  O_20
REMARK    7  A    between atoms: N_22  and  C_24
REMARK    8  A    between atoms: C_27  and  O_30
REMARK    9  A    between atoms: O_30  and  C_32
REMARK                            x       y       z     vdW  Elec       q    Type
REMARK                         _______ _______ _______ _____ _____    ______ ____
ROOT
ATOM      1  S   UNL     1      35.274 -23.379 -15.109  0.00  0.00    +0.113 S 
ATOM      2  O   UNL     1      34.970 -24.737 -15.524  0.00  0.00    -0.138 OA
ATOM      3  O   UNL     1      36.381 -23.125 -14.206  0.00  0.00    -0.138 OA
ENDROOT
BRANCH   1   4
ATOM      4  N   UNL     1      35.491 -22.429 -16.520  0.00  0.00    -0.143 NA
ATOM      5  C   UNL     1      36.090 -21.402 -19.174  0.00  0.00    -0.059 C 
ATOM      6  C   UNL     1      36.981 -21.095 -17.965  0.00  0.00    -0.002 C 
ATOM      7  C   UNL     1      34.654 -21.680 -18.717  0.00  0.00    -0.002 C 
ATOM      8  C   UNL     1      36.910 -22.218 -16.933  0.00  0.00    +0.095 C 
ATOM      9  C   UNL     1      34.617 -22.793 -17.674  0.00  0.00    +0.095 C 
BRANCH   5  10
ATOM     10  N   UNL     1      36.111 -20.279 -20.108  0.00  0.00    +0.388 N 
ATOM     11  H   UNL     1      36.793 -20.467 -20.843  0.00  0.00    -0.084 HD
ATOM     12  H   UNL     1      36.363 -19.432 -19.598  0.00  0.00    -0.084 HD
BRANCH  10  13
ATOM     13  C   UNL     1      34.800 -20.088 -20.712  0.00  0.00    -0.051 C 
BRANCH  13  14
ATOM     14  C   UNL     1      34.828 -19.036 -21.789  0.00  0.00    -0.010 C 
ATOM     15  C   UNL     1      35.273 -17.751 -21.503  0.00  0.00    +0.128 C 
ATOM     16  C   UNL     1      34.402 -19.374 -23.067  0.00  0.00    -0.003 C 
ATOM     17  C   UNL     1      35.292 -16.789 -22.512  0.00  0.00    +0.036 C 
ATOM     18  C   UNL     1      34.420 -18.411 -24.076  0.00  0.00    -0.000 C 
ATOM     19  C   UNL     1      34.865 -17.120 -23.799  0.00  0.00    +0.003 C 
BRANCH  15  20
ATOM     20  O   UNL     1      35.693 -17.412 -20.252  0.00  0.00    -0.506 OA
ATOM     21  H   UNL     1      36.590 -17.185 -20.104  0.00  0.00    +0.292 HD
ENDBRANCH  15  20
ENDBRANCH  13  14
ENDBRANCH  10  13
ENDBRANCH   5  10
ENDBRANCH   1   4
BRANCH   1  22
ATOM     22  N   UNL     1      33.824 -22.689 -14.478  0.00  0.00    -0.205 N 
ATOM     23  H   UNL     1      33.750 -21.725 -14.289  0.00  0.00    +0.175 HD
BRANCH  22  24
ATOM     24  C   UNL     1      32.725 -23.590 -14.240  0.00  0.00    +0.069 C 
ATOM     25  C   UNL     1      31.765 -23.776 -15.227  0.00  0.00    +0.053 C 
ATOM     26  C   UNL     1      32.639 -24.261 -13.027  0.00  0.00    +0.016 C 
ATOM     27  C   UNL     1      30.701 -24.648 -14.995  0.00  0.00    +0.147 C 
ATOM     28  C   UNL     1      31.575 -25.132 -12.796  0.00  0.00    +0.004 C 
ATOM     29  C   UNL     1      30.607 -25.326 -13.780  0.00  0.00    +0.038 C 
BRANCH  27  30
ATOM     30  O   UNL     1      29.755 -24.836 -15.956  0.00  0.00    -0.453 OA
BRANCH  30  32
ATOM     31  F   UNL     1      25.630 -21.222 -16.219  0.00  0.00    -0.204 F 
ATOM     32  C   UNL     1      28.715 -23.924 -16.022  0.00  0.00    +0.145 C 
ATOM     33  C   UNL     1      28.302 -23.287 -14.866  0.00  0.00    +0.040 C 
ATOM     34  C   UNL     1      28.115 -23.674 -17.243  0.00  0.00    +0.040 C 
ATOM     35  C   UNL     1      27.255 -22.369 -14.933  0.00  0.00    +0.033 C 
ATOM     36  C   UNL     1      27.067 -22.757 -17.311  0.00  0.00    +0.033 C 
ATOM     37  C   UNL     1      26.637 -22.104 -16.155  0.00  0.00    +0.140 C 
ENDBRANCH  30  32
ENDBRANCH  27  30
ENDBRANCH  22  24
ENDBRANCH   1  22
TORSDOF 9
ENDMDL
MODEL 9
REMARK VINA RESULT:     -11.4      4.304      7.829
REMARK  Name = 5287728
REMARK  9 active torsions:
REMARK  status: ('A' for Active; 'I' for Inactive)
REMARK    1  A    between atoms: S_1  and  N_4
REMARK    2  A    between atoms: S_1  and  N_22
REMARK    3  A    between atoms: C_5  and  N_10
REMARK    4  A    between atoms: N_10  and  C_13
REMARK    5  A    between atoms: C_13  and  C_14
REMARK    6  A    between atoms: C_15  and  O_20
REMARK    7  A    between atoms: N_22  and  C_24
REMARK    8  A    between atoms: C_27  and  O_30
REMARK    9  A    between atoms: O_30  and  C_32
REMARK                            x       y       z     vdW  Elec       q    Type
REMARK                         _______ _______ _______ _____ _____    ______ ____
ROOT
ATOM      1  S   UNL     1      33.443 -11.931 -23.417  0.00  0.00    +0.113 S 
ATOM      2  O   UNL     1      34.311 -10.844 -23.000  0.00  0.00    -0.138 OA
ATOM      3  O   UNL     1      33.107 -12.098 -24.819  0.00  0.00    -0.138 OA
ENDROOT
BRANCH   1   4
ATOM      4  N   UNL     1      34.117 -13.399 -22.840  0.00  0.00    -0.143 NA
ATOM      5  C   UNL     1      34.612 -16.101 -21.886  0.00  0.00    -0.059 C 
ATOM      6  C   UNL     1      34.628 -14.893 -20.944  0.00  0.00    -0.002 C 
ATOM      7  C   UNL     1      34.967 -15.667 -23.312  0.00  0.00    -0.002 C 
ATOM      8  C   UNL     1      33.710 -13.786 -21.457  0.00  0.00    +0.095 C 
ATOM      9  C   UNL     1      34.045 -14.549 -23.790  0.00  0.00    +0.095 C 
BRANCH   5  10
ATOM     10  N   UNL     1      35.557 -17.112 -21.420  0.00  0.00    +0.388 N 
ATOM     11  H   UNL     1      35.527 -17.154 -20.401  0.00  0.00    -0.084 HD
ATOM     12  H   UNL     1      36.492 -16.858 -21.737  0.00  0.00    -0.084 HD
BRANCH  10  13
ATOM     13  C   UNL     1      35.220 -18.421 -21.960  0.00  0.00    -0.051 C 
BRANCH  13  14
ATOM     14  C   UNL     1      35.296 -19.497 -20.910  0.00  0.00    -0.010 C 
ATOM     15  C   UNL     1      36.514 -19.828 -20.331  0.00  0.00    +0.128 C 
ATOM     16  C   UNL     1      34.127 -20.149 -20.535  0.00  0.00    -0.003 C 
ATOM     17  C   UNL     1      36.565 -20.828 -19.360  0.00  0.00    +0.036 C 
ATOM     18  C   UNL     1      34.180 -21.150 -19.563  0.00  0.00    -0.000 C 
ATOM     19  C   UNL     1      35.398 -21.488 -18.976  0.00  0.00    +0.003 C 
BRANCH  15  20
ATOM     20  O   UNL     1      37.663 -19.193 -20.695  0.00  0.00    -0.506 OA
ATOM     21  H   UNL     1      38.401 -19.691 -20.988  0.00  0.00    +0.292 HD
ENDBRANCH  15  20
ENDBRANCH  13  14
ENDBRANCH  10  13
ENDBRANCH   5  10
ENDBRANCH   1   4
BRANCH   1  22
ATOM     22  N   UNL     1      32.004 -11.844 -22.469  0.00  0.00    -0.205 N 
ATOM     23  H   UNL     1      31.257 -12.472 -22.605  0.00  0.00    +0.175 HD
BRANCH  22  24
ATOM     24  C   UNL     1      31.947 -10.810 -21.468  0.00  0.00    +0.069 C 
ATOM     25  C   UNL     1      31.916  -9.478 -21.861  0.00  0.00    +0.053 C 
ATOM     26  C   UNL     1      31.923 -11.158 -20.124  0.00  0.00    +0.016 C 
ATOM     27  C   UNL     1      31.861  -8.477 -20.890  0.00  0.00    +0.147 C 
ATOM     28  C   UNL     1      31.868 -10.156 -19.155  0.00  0.00    +0.004 C 
ATOM     29  C   UNL     1      31.837  -8.816 -19.538  0.00  0.00    +0.038 C 
BRANCH  27  30
ATOM     30  O   UNL     1      31.833  -7.168 -21.265  0.00  0.00    -0.453 OA
BRANCH  30  32
ATOM     31  F   UNL     1      35.552  -5.482 -24.934  0.00  0.00    -0.204 F 
ATOM     32  C   UNL     1      32.771  -6.742 -22.191  0.00  0.00    +0.145 C 
ATOM     33  C   UNL     1      32.417  -5.775 -23.113  0.00  0.00    +0.040 C 
ATOM     34  C   UNL     1      34.038  -7.296 -22.168  0.00  0.00    +0.040 C 
ATOM     35  C   UNL     1      33.362  -5.347 -24.045  0.00  0.00    +0.033 C 
ATOM     36  C   UNL     1      34.983  -6.868 -23.100  0.00  0.00    +0.033 C 
ATOM     37  C   UNL     1      34.645  -5.893 -24.039  0.00  0.00    +0.140 C 
ENDBRANCH  30  32
ENDBRANCH  27  30
ENDBRANCH  22  24
ENDBRANCH   1  22
TORSDOF 9
ENDMDL
