MODEL 1
REMARK VINA RESULT:     -11.6      0.000      0.000
REMARK  Name = 6918151
REMARK  4 active torsions:
REMARK  status: ('A' for Active; 'I' for Inactive)
REMARK    1  A    between atoms: C_2  and  C_11
REMARK    2  A    between atoms: C_7  and  C_18
REMARK    3  A    between atoms: C_11  and  C_12
REMARK    4  A    between atoms: C_18  and  C_23
REMARK                            x       y       z     vdW  Elec       q    Type
REMARK                         _______ _______ _______ _____ _____    ______ ____
ROOT
ATOM      1  O   UNL     1      35.818 -20.251 -20.017  0.00  0.00    -0.479 OA
ATOM      2  C   UNL     1      35.073 -19.260 -20.739  0.00  0.00    +0.171 C 
ATOM      3  C   UNL     1      33.851 -19.872 -21.423  0.00  0.00    +0.049 C 
ATOM      4  C   UNL     1      32.910 -20.425 -20.359  0.00  0.00    +0.033 C 
ATOM      5  C   UNL     1      33.678 -21.210 -19.335  0.00  0.00    +0.012 C 
ATOM      6  C   UNL     1      35.067 -21.072 -19.215  0.00  0.00    +0.134 C 
ATOM      7  C   UNL     1      33.703 -22.810 -17.510  0.00  0.00    -0.021 C 
ATOM      8  C   UNL     1      33.000 -22.075 -18.465  0.00  0.00    -0.006 C 
ATOM      9  C   UNL     1      35.770 -21.818 -18.266  0.00  0.00    +0.036 C 
ATOM     10  C   UNL     1      35.087 -22.684 -17.413  0.00  0.00    -0.001 C 
ENDROOT
BRANCH   2  11
ATOM     11  C   UNL     1      36.016 -18.646 -21.767  0.00  0.00    +0.070 C 
BRANCH  11  12
ATOM     12  C   UNL     1      35.373 -17.499 -22.498  0.00  0.00    -0.019 C 
ATOM     13  C   UNL     1      35.185 -16.289 -21.842  0.00  0.00    -0.004 C 
ATOM     14  C   UNL     1      34.976 -17.664 -23.818  0.00  0.00    -0.004 C 
ATOM     15  C   UNL     1      34.589 -15.225 -22.519  0.00  0.00    -0.000 C 
ATOM     16  C   UNL     1      34.380 -16.600 -24.495  0.00  0.00    -0.000 C 
ATOM     17  C   UNL     1      34.187 -15.381 -23.845  0.00  0.00    -0.000 C 
ENDBRANCH  11  12
ENDBRANCH   2  11
BRANCH   7  18
ATOM     18  C   UNL     1      32.972 -23.732 -16.594  0.00  0.00    +0.047 C 
BRANCH  18  23
ATOM     19  S   UNL     1      32.715 -23.752 -13.845  0.00  0.00    -0.048 S 
ATOM     20  O   UNL     1      30.160 -22.671 -16.528  0.00  0.00    -0.274 OA
ATOM     21  O   UNL     1      30.708 -24.533 -12.338  0.00  0.00    -0.263 OA
ATOM     22  N   UNL     1      30.229 -23.606 -14.414  0.00  0.00    -0.246 N 
ATOM     23  C   UNL     1      32.296 -22.991 -15.443  0.00  0.00    +0.137 C 
ATOM     24  C   UNL     1      30.790 -23.060 -15.550  0.00  0.00    +0.239 C 
ATOM     25  C   UNL     1      31.046 -24.030 -13.398  0.00  0.00    +0.279 C 
ATOM     26  H   UNL     1      29.251 -23.691 -14.333  0.00  0.00    +0.158 HD
ENDBRANCH  18  23
ENDBRANCH   7  18
TORSDOF 4
ENDMDL
MODEL 2
REMARK VINA RESULT:     -11.1      1.003      1.977
REMARK  Name = 6918151
REMARK  4 active torsions:
REMARK  status: ('A' for Active; 'I' for Inactive)
REMARK    1  A    between atoms: C_2  and  C_11
REMARK    2  A    between atoms: C_7  and  C_18
REMARK    3  A    between atoms: C_11  and  C_12
REMARK    4  A    between atoms: C_18  and  C_23
REMARK                            x       y       z     vdW  Elec       q    Type
REMARK                         _______ _______ _______ _____ _____    ______ ____
ROOT
ATOM      1  O   UNL     1      34.759 -19.593 -20.607  0.00  0.00    -0.479 OA
ATOM      2  C   UNL     1      36.129 -19.651 -21.030  0.00  0.00    +0.171 C 
ATOM      3  C   UNL     1      37.069 -19.858 -19.844  0.00  0.00    +0.049 C 
ATOM      4  C   UNL     1      36.764 -21.203 -19.195  0.00  0.00    +0.033 C 
ATOM      5  C   UNL     1      35.283 -21.382 -19.028  0.00  0.00    +0.012 C 
ATOM      6  C   UNL     1      34.376 -20.587 -19.742  0.00  0.00    +0.134 C 
ATOM      7  C   UNL     1      33.416 -22.549 -18.005  0.00  0.00    -0.021 C 
ATOM      8  C   UNL     1      34.791 -22.374 -18.169  0.00  0.00    -0.006 C 
ATOM      9  C   UNL     1      33.001 -20.756 -19.567  0.00  0.00    +0.036 C 
ATOM     10  C   UNL     1      32.522 -21.738 -18.701  0.00  0.00    -0.001 C 
ENDROOT
BRANCH   2  11
ATOM     11  C   UNL     1      36.437 -18.339 -21.741  0.00  0.00    +0.070 C 
BRANCH  11  12
ATOM     12  C   UNL     1      35.427 -18.037 -22.815  0.00  0.00    -0.019 C 
ATOM     13  C   UNL     1      34.735 -19.080 -23.416  0.00  0.00    -0.004 C 
ATOM     14  C   UNL     1      35.200 -16.720 -23.190  0.00  0.00    -0.004 C 
ATOM     15  C   UNL     1      33.798 -18.801 -24.411  0.00  0.00    -0.000 C 
ATOM     16  C   UNL     1      34.263 -16.441 -24.185  0.00  0.00    -0.000 C 
ATOM     17  C   UNL     1      33.562 -17.481 -24.795  0.00  0.00    -0.000 C 
ENDBRANCH  11  12
ENDBRANCH   2  11
BRANCH   7  18
ATOM     18  C   UNL     1      32.904 -23.603 -17.083  0.00  0.00    +0.047 C 
BRANCH  18  23
ATOM     19  S   UNL     1      33.124 -23.854 -14.343  0.00  0.00    -0.048 S 
ATOM     20  O   UNL     1      30.063 -22.838 -16.463  0.00  0.00    -0.274 OA
ATOM     21  O   UNL     1      31.480 -24.944 -12.605  0.00  0.00    -0.263 OA
ATOM     22  N   UNL     1      30.574 -23.917 -14.482  0.00  0.00    -0.246 N 
ATOM     23  C   UNL     1      32.373 -23.022 -15.774  0.00  0.00    +0.137 C 
ATOM     24  C   UNL     1      30.882 -23.233 -15.640  0.00  0.00    +0.239 C 
ATOM     25  C   UNL     1      31.586 -24.332 -13.656  0.00  0.00    +0.279 C 
ATOM     26  H   UNL     1      29.636 -24.105 -14.251  0.00  0.00    +0.158 HD
ENDBRANCH  18  23
ENDBRANCH   7  18
TORSDOF 4
ENDMDL
MODEL 3
REMARK VINA RESULT:     -10.9      2.001      2.133
REMARK  Name = 6918151
REMARK  4 active torsions:
REMARK  status: ('A' for Active; 'I' for Inactive)
REMARK    1  A    between atoms: C_2  and  C_11
REMARK    2  A    between atoms: C_7  and  C_18
REMARK    3  A    between atoms: C_11  and  C_12
REMARK    4  A    between atoms: C_18  and  C_23
REMARK                            x       y       z     vdW  Elec       q    Type
REMARK                         _______ _______ _______ _____ _____    ______ ____
ROOT
ATOM      1  O   UNL     1      36.151 -19.863 -20.374  0.00  0.00    -0.479 OA
ATOM      2  C   UNL     1      35.230 -19.007 -21.066  0.00  0.00    +0.171 C 
ATOM      3  C   UNL     1      34.043 -19.796 -21.616  0.00  0.00    +0.049 C 
ATOM      4  C   UNL     1      33.269 -20.406 -20.453  0.00  0.00    +0.033 C 
ATOM      5  C   UNL     1      34.211 -21.040 -19.471  0.00  0.00    +0.012 C 
ATOM      6  C   UNL     1      35.577 -20.729 -19.478  0.00  0.00    +0.134 C 
ATOM      7  C   UNL     1      34.586 -22.534 -17.595  0.00  0.00    -0.021 C 
ATOM      8  C   UNL     1      33.720 -21.938 -18.513  0.00  0.00    -0.006 C 
ATOM      9  C   UNL     1      36.444 -21.336 -18.567  0.00  0.00    +0.036 C 
ATOM     10  C   UNL     1      35.947 -22.236 -17.624  0.00  0.00    -0.001 C 
ENDROOT
BRANCH   2  11
ATOM     11  C   UNL     1      36.002 -18.334 -22.195  0.00  0.00    +0.070 C 
BRANCH  11  12
ATOM     12  C   UNL     1      35.265 -17.140 -22.740  0.00  0.00    -0.019 C 
ATOM     13  C   UNL     1      35.065 -16.031 -21.928  0.00  0.00    -0.004 C 
ATOM     14  C   UNL     1      34.794 -17.164 -24.045  0.00  0.00    -0.004 C 
ATOM     15  C   UNL     1      34.382 -14.925 -22.432  0.00  0.00    -0.000 C 
ATOM     16  C   UNL     1      34.111 -16.057 -24.549  0.00  0.00    -0.000 C 
ATOM     17  C   UNL     1      33.904 -14.938 -23.743  0.00  0.00    -0.000 C 
ENDBRANCH  11  12
ENDBRANCH   2  11
BRANCH   7  18
ATOM     18  C   UNL     1      34.054 -23.492 -16.583  0.00  0.00    +0.047 C 
BRANCH  18  23
ATOM     19  S   UNL     1      36.087 -23.884 -14.757  0.00  0.00    -0.048 S 
ATOM     20  O   UNL     1      32.308 -23.400 -14.137  0.00  0.00    -0.274 OA
ATOM     21  O   UNL     1      36.176 -25.420 -12.626  0.00  0.00    -0.263 OA
ATOM     22  N   UNL     1      34.135 -24.481 -13.220  0.00  0.00    -0.246 N 
ATOM     23  C   UNL     1      34.481 -23.132 -15.162  0.00  0.00    +0.137 C 
ATOM     24  C   UNL     1      33.505 -23.667 -14.139  0.00  0.00    +0.239 C 
ATOM     25  C   UNL     1      35.478 -24.727 -13.349  0.00  0.00    +0.279 C 
ATOM     26  H   UNL     1      33.626 -24.882 -12.480  0.00  0.00    +0.158 HD
ENDBRANCH  18  23
ENDBRANCH   7  18
TORSDOF 4
ENDMDL
MODEL 4
REMARK VINA RESULT:     -10.9      4.685      9.677
REMARK  Name = 6918151
REMARK  4 active torsions:
REMARK  status: ('A' for Active; 'I' for Inactive)
REMARK    1  A    between atoms: C_2  and  C_11
REMARK    2  A    between atoms: C_7  and  C_18
REMARK    3  A    between atoms: C_11  and  C_12
REMARK    4  A    between atoms: C_18  and  C_23
REMARK                            x       y       z     vdW  Elec       q    Type
REMARK                         _______ _______ _______ _____ _____    ______ ____
ROOT
ATOM      1  O   UNL     1      34.605 -23.127 -16.495  0.00  0.00    -0.479 OA
ATOM      2  C   UNL     1      35.427 -23.056 -15.320  0.00  0.00    +0.171 C 
ATOM      3  C   UNL     1      36.907 -23.208 -15.668  0.00  0.00    +0.049 C 
ATOM      4  C   UNL     1      37.331 -22.045 -16.558  0.00  0.00    +0.033 C 
ATOM      5  C   UNL     1      36.318 -21.817 -17.642  0.00  0.00    +0.012 C 
ATOM      6  C   UNL     1      35.027 -22.352 -17.545  0.00  0.00    +0.134 C 
ATOM      7  C   UNL     1      35.719 -20.818 -19.771  0.00  0.00    -0.021 C 
ATOM      8  C   UNL     1      36.652 -21.036 -18.757  0.00  0.00    -0.006 C 
ATOM      9  C   UNL     1      34.098 -22.142 -18.568  0.00  0.00    +0.036 C 
ATOM     10  C   UNL     1      34.444 -21.373 -19.678  0.00  0.00    -0.001 C 
ENDROOT
BRANCH   2  11
ATOM     11  C   UNL     1      34.974 -24.172 -14.385  0.00  0.00    +0.070 C 
BRANCH  11  12
ATOM     12  C   UNL     1      35.970 -24.413 -13.283  0.00  0.00    -0.019 C 
ATOM     13  C   UNL     1      36.179 -23.430 -12.324  0.00  0.00    -0.004 C 
ATOM     14  C   UNL     1      36.665 -25.613 -13.239  0.00  0.00    -0.004 C 
ATOM     15  C   UNL     1      37.102 -23.653 -11.302  0.00  0.00    -0.000 C 
ATOM     16  C   UNL     1      37.587 -25.836 -12.216  0.00  0.00    -0.000 C 
ATOM     17  C   UNL     1      37.806 -24.856 -11.249  0.00  0.00    -0.000 C 
ENDBRANCH  11  12
ENDBRANCH   2  11
BRANCH   7  18
ATOM     18  C   UNL     1      36.087 -19.990 -20.956  0.00  0.00    +0.047 C 
BRANCH  18  23
ATOM     19  S   UNL     1      34.627 -19.261 -23.182  0.00  0.00    -0.048 S 
ATOM     20  O   UNL     1      35.612 -17.145 -20.108  0.00  0.00    -0.274 OA
ATOM     21  O   UNL     1      34.744 -17.079 -24.644  0.00  0.00    -0.263 OA
ATOM     22  N   UNL     1      35.201 -16.907 -22.372  0.00  0.00    -0.246 N 
ATOM     23  C   UNL     1      34.948 -19.076 -21.402  0.00  0.00    +0.137 C 
ATOM     24  C   UNL     1      35.294 -17.619 -21.194  0.00  0.00    +0.239 C 
ATOM     25  C   UNL     1      34.864 -17.562 -23.528  0.00  0.00    +0.279 C 
ATOM     26  H   UNL     1      35.376 -15.939 -22.382  0.00  0.00    +0.158 HD
ENDBRANCH  18  23
ENDBRANCH   7  18
TORSDOF 4
ENDMDL
MODEL 5
REMARK VINA RESULT:     -10.8      3.733      9.186
REMARK  Name = 6918151
REMARK  4 active torsions:
REMARK  status: ('A' for Active; 'I' for Inactive)
REMARK    1  A    between atoms: C_2  and  C_11
REMARK    2  A    between atoms: C_7  and  C_18
REMARK    3  A    between atoms: C_11  and  C_12
REMARK    4  A    between atoms: C_18  and  C_23
REMARK                            x       y       z     vdW  Elec       q    Type
REMARK                         _______ _______ _______ _____ _____    ______ ____
ROOT
ATOM      1  O   UNL     1      34.346 -23.202 -16.654  0.00  0.00    -0.479 OA
ATOM      2  C   UNL     1      35.087 -23.108 -15.428  0.00  0.00    +0.171 C 
ATOM      3  C   UNL     1      36.591 -23.209 -15.679  0.00  0.00    +0.049 C 
ATOM      4  C   UNL     1      37.033 -22.031 -16.539  0.00  0.00    +0.033 C 
ATOM      5  C   UNL     1      36.086 -21.833 -17.686  0.00  0.00    +0.012 C 
ATOM      6  C   UNL     1      34.809 -22.411 -17.674  0.00  0.00    +0.134 C 
ATOM      7  C   UNL     1      35.593 -20.849 -19.850  0.00  0.00    -0.021 C 
ATOM      8  C   UNL     1      36.465 -21.039 -18.777  0.00  0.00    -0.006 C 
ATOM      9  C   UNL     1      33.943 -22.230 -18.755  0.00  0.00    +0.036 C 
ATOM     10  C   UNL     1      34.334 -21.446 -19.840  0.00  0.00    -0.001 C 
ENDROOT
BRANCH   2  11
ATOM     11  C   UNL     1      34.612 -24.240 -14.525  0.00  0.00    +0.070 C 
BRANCH  11  12
ATOM     12  C   UNL     1      33.164 -24.081 -14.148  0.00  0.00    -0.019 C 
ATOM     13  C   UNL     1      32.485 -22.925 -14.513  0.00  0.00    -0.004 C 
ATOM     14  C   UNL     1      32.526 -25.090 -13.439  0.00  0.00    -0.004 C 
ATOM     15  C   UNL     1      31.143 -22.777 -14.163  0.00  0.00    -0.000 C 
ATOM     16  C   UNL     1      31.184 -24.941 -13.090  0.00  0.00    -0.000 C 
ATOM     17  C   UNL     1      30.493 -23.785 -13.451  0.00  0.00    -0.000 C 
ENDBRANCH  11  12
ENDBRANCH   2  11
BRANCH   7  18
ATOM     18  C   UNL     1      36.010 -20.006 -21.008  0.00  0.00    +0.047 C 
BRANCH  18  23
ATOM     19  S   UNL     1      34.615 -19.219 -23.256  0.00  0.00    -0.048 S 
ATOM     20  O   UNL     1      35.580 -17.161 -20.136  0.00  0.00    -0.274 OA
ATOM     21  O   UNL     1      34.812 -17.023 -24.688  0.00  0.00    -0.263 OA
ATOM     22  N   UNL     1      35.224 -16.888 -22.405  0.00  0.00    -0.246 N 
ATOM     23  C   UNL     1      34.901 -19.062 -21.467  0.00  0.00    +0.137 C 
ATOM     24  C   UNL     1      35.276 -17.616 -21.234  0.00  0.00    +0.239 C 
ATOM     25  C   UNL     1      34.898 -17.521 -23.576  0.00  0.00    +0.279 C 
ATOM     26  H   UNL     1      35.421 -15.924 -22.400  0.00  0.00    +0.158 HD
ENDBRANCH  18  23
ENDBRANCH   7  18
TORSDOF 4
ENDMDL
MODEL 6
REMARK VINA RESULT:     -10.6      4.439      7.701
REMARK  Name = 6918151
REMARK  4 active torsions:
REMARK  status: ('A' for Active; 'I' for Inactive)
REMARK    1  A    between atoms: C_2  and  C_11
REMARK    2  A    between atoms: C_7  and  C_18
REMARK    3  A    between atoms: C_11  and  C_12
REMARK    4  A    between atoms: C_18  and  C_23
REMARK                            x       y       z     vdW  Elec       q    Type
REMARK                         _______ _______ _______ _____ _____    ______ ____
ROOT
ATOM      1  O   UNL     1      33.601 -13.946 -24.423  0.00  0.00    -0.479 OA
ATOM      2  C   UNL     1      33.873 -12.750 -23.677  0.00  0.00    +0.171 C 
ATOM      3  C   UNL     1      33.555 -12.937 -22.194  0.00  0.00    +0.049 C 
ATOM      4  C   UNL     1      34.466 -14.016 -21.621  0.00  0.00    +0.033 C 
ATOM      5  C   UNL     1      34.517 -15.202 -22.539  0.00  0.00    +0.012 C 
ATOM      6  C   UNL     1      34.100 -15.099 -23.873  0.00  0.00    +0.134 C 
ATOM      7  C   UNL     1      35.065 -17.537 -22.917  0.00  0.00    -0.021 C 
ATOM      8  C   UNL     1      35.013 -16.427 -22.072  0.00  0.00    -0.006 C 
ATOM      9  C   UNL     1      34.140 -16.214 -24.713  0.00  0.00    +0.036 C 
ATOM     10  C   UNL     1      34.626 -17.431 -24.235  0.00  0.00    -0.001 C 
ENDROOT
BRANCH   2  11
ATOM     11  C   UNL     1      33.019 -11.640 -24.277  0.00  0.00    +0.070 C 
BRANCH  11  12
ATOM     12  C   UNL     1      33.420 -10.286 -23.757  0.00  0.00    -0.019 C 
ATOM     13  C   UNL     1      32.571  -9.606 -22.893  0.00  0.00    -0.004 C 
ATOM     14  C   UNL     1      34.633  -9.734 -24.147  0.00  0.00    -0.004 C 
ATOM     15  C   UNL     1      32.943  -8.352 -22.410  0.00  0.00    -0.000 C 
ATOM     16  C   UNL     1      35.004  -8.480 -23.663  0.00  0.00    -0.000 C 
ATOM     17  C   UNL     1      34.159  -7.788 -22.796  0.00  0.00    -0.000 C 
ENDBRANCH  11  12
ENDBRANCH   2  11
BRANCH   7  18
ATOM     18  C   UNL     1      35.589 -18.836 -22.407  0.00  0.00    +0.047 C 
BRANCH  18  23
ATOM     19  S   UNL     1      36.967 -19.481 -20.104  0.00  0.00    -0.048 S 
ATOM     20  O   UNL     1      33.255 -20.078 -20.975  0.00  0.00    -0.274 OA
ATOM     21  O   UNL     1      36.917 -21.676 -18.658  0.00  0.00    -0.263 OA
ATOM     22  N   UNL     1      34.966 -21.026 -19.740  0.00  0.00    -0.246 N 
ATOM     23  C   UNL     1      35.409 -18.983 -20.898  0.00  0.00    +0.137 C 
ATOM     24  C   UNL     1      34.410 -20.068 -20.563  0.00  0.00    +0.239 C 
ATOM     25  C   UNL     1      36.282 -20.916 -19.373  0.00  0.00    +0.279 C 
ATOM     26  H   UNL     1      34.422 -21.782 -19.421  0.00  0.00    +0.158 HD
ENDBRANCH  18  23
ENDBRANCH   7  18
TORSDOF 4
ENDMDL
MODEL 7
REMARK VINA RESULT:     -10.5      3.942      6.827
REMARK  Name = 6918151
REMARK  4 active torsions:
REMARK  status: ('A' for Active; 'I' for Inactive)
REMARK    1  A    between atoms: C_2  and  C_11
REMARK    2  A    between atoms: C_7  and  C_18
REMARK    3  A    between atoms: C_11  and  C_12
REMARK    4  A    between atoms: C_18  and  C_23
REMARK                            x       y       z     vdW  Elec       q    Type
REMARK                         _______ _______ _______ _____ _____    ______ ____
ROOT
ATOM      1  O   UNL     1      34.110 -14.780 -23.612  0.00  0.00    -0.479 OA
ATOM      2  C   UNL     1      34.011 -13.484 -23.002  0.00  0.00    +0.171 C 
ATOM      3  C   UNL     1      33.376 -13.569 -21.615  0.00  0.00    +0.049 C 
ATOM      4  C   UNL     1      34.273 -14.402 -20.707  0.00  0.00    +0.033 C 
ATOM      5  C   UNL     1      34.722 -15.649 -21.413  0.00  0.00    +0.012 C 
ATOM      6  C   UNL     1      34.628 -15.761 -22.806  0.00  0.00    +0.134 C 
ATOM      7  C   UNL     1      35.689 -17.873 -21.322  0.00  0.00    -0.021 C 
ATOM      8  C   UNL     1      35.269 -16.709 -20.677  0.00  0.00    -0.006 C 
ATOM      9  C   UNL     1      35.038 -16.932 -23.448  0.00  0.00    +0.036 C 
ATOM     10  C   UNL     1      35.570 -17.986 -22.706  0.00  0.00    -0.001 C 
ENDROOT
BRANCH   2  11
ATOM     11  C   UNL     1      33.170 -12.613 -23.929  0.00  0.00    +0.070 C 
BRANCH  11  12
ATOM     12  C   UNL     1      33.604 -11.173 -23.885  0.00  0.00    -0.019 C 
ATOM     13  C   UNL     1      34.702 -10.766 -24.633  0.00  0.00    -0.004 C 
ATOM     14  C   UNL     1      32.902 -10.270 -23.098  0.00  0.00    -0.004 C 
ATOM     15  C   UNL     1      35.104  -9.432 -24.592  0.00  0.00    -0.000 C 
ATOM     16  C   UNL     1      33.305  -8.935 -23.059  0.00  0.00    -0.000 C 
ATOM     17  C   UNL     1      34.406  -8.516 -23.805  0.00  0.00    -0.000 C 
ENDBRANCH  11  12
ENDBRANCH   2  11
BRANCH   7  18
ATOM     18  C   UNL     1      36.264 -18.998 -20.529  0.00  0.00    +0.047 C 
BRANCH  18  23
ATOM     19  S   UNL     1      33.686 -19.979 -20.626  0.00  0.00    -0.048 S 
ATOM     20  O   UNL     1      36.898 -21.678 -19.324  0.00  0.00    -0.274 OA
ATOM     21  O   UNL     1      32.319 -21.329 -18.831  0.00  0.00    -0.263 OA
ATOM     22  N   UNL     1      34.618 -21.651 -18.934  0.00  0.00    -0.246 N 
ATOM     23  C   UNL     1      35.476 -20.293 -20.704  0.00  0.00    +0.137 C 
ATOM     24  C   UNL     1      35.771 -21.275 -19.592  0.00  0.00    +0.239 C 
ATOM     25  C   UNL     1      33.419 -21.103 -19.311  0.00  0.00    +0.279 C 
ATOM     26  H   UNL     1      34.656 -22.306 -18.200  0.00  0.00    +0.158 HD
ENDBRANCH  18  23
ENDBRANCH   7  18
TORSDOF 4
ENDMDL
MODEL 8
REMARK VINA RESULT:     -10.4      6.063     10.597
REMARK  Name = 6918151
REMARK  4 active torsions:
REMARK  status: ('A' for Active; 'I' for Inactive)
REMARK    1  A    between atoms: C_2  and  C_11
REMARK    2  A    between atoms: C_7  and  C_18
REMARK    3  A    between atoms: C_11  and  C_12
REMARK    4  A    between atoms: C_18  and  C_23
REMARK                            x       y       z     vdW  Elec       q    Type
REMARK                         _______ _______ _______ _____ _____    ______ ____
ROOT
ATOM      1  O   UNL     1      35.033 -17.941 -22.898  0.00  0.00    -0.479 OA
ATOM      2  C   UNL     1      35.004 -18.276 -21.503  0.00  0.00    +0.171 C 
ATOM      3  C   UNL     1      35.660 -17.185 -20.657  0.00  0.00    +0.049 C 
ATOM      4  C   UNL     1      34.864 -15.894 -20.804  0.00  0.00    +0.033 C 
ATOM      5  C   UNL     1      34.538 -15.640 -22.247  0.00  0.00    +0.012 C 
ATOM      6  C   UNL     1      34.628 -16.665 -23.197  0.00  0.00    +0.134 C 
ATOM      7  C   UNL     1      33.808 -14.119 -23.993  0.00  0.00    -0.021 C 
ATOM      8  C   UNL     1      34.112 -14.368 -22.654  0.00  0.00    -0.006 C 
ATOM      9  C   UNL     1      34.334 -16.412 -24.539  0.00  0.00    +0.036 C 
ATOM     10  C   UNL     1      33.922 -15.140 -24.935  0.00  0.00    -0.001 C 
ENDROOT
BRANCH   2  11
ATOM     11  C   UNL     1      35.740 -19.601 -21.341  0.00  0.00    +0.070 C 
BRANCH  11  12
ATOM     12  C   UNL     1      35.091 -20.475 -20.302  0.00  0.00    -0.019 C 
ATOM     13  C   UNL     1      33.708 -20.473 -20.174  0.00  0.00    -0.004 C 
ATOM     14  C   UNL     1      35.883 -21.271 -19.486  0.00  0.00    -0.004 C 
ATOM     15  C   UNL     1      33.106 -21.283 -19.211  0.00  0.00    -0.000 C 
ATOM     16  C   UNL     1      35.281 -22.081 -18.523  0.00  0.00    -0.000 C 
ATOM     17  C   UNL     1      33.893 -22.086 -18.385  0.00  0.00    -0.000 C 
ENDBRANCH  11  12
ENDBRANCH   2  11
BRANCH   7  18
ATOM     18  C   UNL     1      33.361 -12.761 -24.415  0.00  0.00    +0.047 C 
BRANCH  18  23
ATOM     19  S   UNL     1      32.331 -11.279 -22.327  0.00  0.00    -0.048 S 
ATOM     20  O   UNL     1      35.018 -10.303 -24.920  0.00  0.00    -0.274 OA
ATOM     21  O   UNL     1      31.585  -8.759 -22.245  0.00  0.00    -0.263 OA
ATOM     22  N   UNL     1      33.345  -9.340 -23.646  0.00  0.00    -0.246 N 
ATOM     23  C   UNL     1      33.741 -11.684 -23.402  0.00  0.00    +0.137 C 
ATOM     24  C   UNL     1      34.124 -10.391 -24.085  0.00  0.00    +0.239 C 
ATOM     25  C   UNL     1      32.354  -9.575 -22.728  0.00  0.00    +0.279 C 
ATOM     26  H   UNL     1      33.500  -8.430 -23.989  0.00  0.00    +0.158 HD
ENDBRANCH  18  23
ENDBRANCH   7  18
TORSDOF 4
ENDMDL
MODEL 9
REMARK VINA RESULT:     -10.2      6.011     10.190
REMARK  Name = 6918151
REMARK  4 active torsions:
REMARK  status: ('A' for Active; 'I' for Inactive)
REMARK    1  A    between atoms: C_2  and  C_11
REMARK    2  A    between atoms: C_7  and  C_18
REMARK    3  A    between atoms: C_11  and  C_12
REMARK    4  A    between atoms: C_18  and  C_23
REMARK                            x       y       z     vdW  Elec       q    Type
REMARK                         _______ _______ _______ _____ _____    ______ ____
ROOT
ATOM      1  O   UNL     1      35.694 -17.253 -20.551  0.00  0.00    -0.479 OA
ATOM      2  C   UNL     1      36.491 -18.124 -21.369  0.00  0.00    +0.171 C 
ATOM      3  C   UNL     1      35.708 -18.613 -22.586  0.00  0.00    +0.049 C 
ATOM      4  C   UNL     1      35.347 -17.417 -23.460  0.00  0.00    +0.033 C 
ATOM      5  C   UNL     1      34.814 -16.294 -22.618  0.00  0.00    +0.012 C 
ATOM      6  C   UNL     1      35.025 -16.269 -21.233  0.00  0.00    +0.134 C 
ATOM      7  C   UNL     1      33.618 -14.189 -22.450  0.00  0.00    -0.021 C 
ATOM      8  C   UNL     1      34.118 -15.238 -23.222  0.00  0.00    -0.006 C 
ATOM      9  C   UNL     1      34.513 -15.224 -20.461  0.00  0.00    +0.036 C 
ATOM     10  C   UNL     1      33.812 -14.184 -21.070  0.00  0.00    -0.001 C 
ENDROOT
BRANCH   2  11
ATOM     11  C   UNL     1      36.919 -19.297 -20.494  0.00  0.00    +0.070 C 
BRANCH  11  12
ATOM     12  C   UNL     1      35.740 -20.121 -20.052  0.00  0.00    -0.019 C 
ATOM     13  C   UNL     1      35.930 -21.153 -19.141  0.00  0.00    -0.004 C 
ATOM     14  C   UNL     1      34.479 -19.839 -20.558  0.00  0.00    -0.004 C 
ATOM     15  C   UNL     1      34.838 -21.916 -18.731  0.00  0.00    -0.000 C 
ATOM     16  C   UNL     1      33.387 -20.603 -20.147  0.00  0.00    -0.000 C 
ATOM     17  C   UNL     1      33.566 -21.641 -19.234  0.00  0.00    -0.000 C 
ENDBRANCH  11  12
ENDBRANCH   2  11
BRANCH   7  18
ATOM     18  C   UNL     1      32.873 -13.074 -23.102  0.00  0.00    +0.047 C 
BRANCH  18  23
ATOM     19  S   UNL     1      31.939 -10.865 -21.735  0.00  0.00    -0.048 S 
ATOM     20  O   UNL     1      34.591 -11.062 -24.532  0.00  0.00    -0.274 OA
ATOM     21  O   UNL     1      31.271  -8.482 -22.622  0.00  0.00    -0.263 OA
ATOM     22  N   UNL     1      32.979  -9.622 -23.709  0.00  0.00    -0.246 N 
ATOM     23  C   UNL     1      33.309 -11.705 -22.585  0.00  0.00    +0.137 C 
ATOM     24  C   UNL     1      33.715 -10.789 -23.718  0.00  0.00    +0.239 C 
ATOM     25  C   UNL     1      32.004  -9.449 -22.761  0.00  0.00    +0.279 C 
ATOM     26  H   UNL     1      33.152  -8.920 -24.378  0.00  0.00    +0.158 HD
ENDBRANCH  18  23
ENDBRANCH   7  18
TORSDOF 4
ENDMDL
