MODEL 1
REMARK VINA RESULT:     -12.8      0.000      0.000
REMARK  Name = 25145656
REMARK  4 active torsions:
REMARK  status: ('A' for Active; 'I' for Inactive)
REMARK    1  A    between atoms: C_5  and  C_22
REMARK    2  A    between atoms: C_8  and  C_11
REMARK    3  A    between atoms: C_14  and  C_19
REMARK    4  A    between atoms: C_22  and  C_24
REMARK                            x       y       z     vdW  Elec       q    Type
REMARK                         _______ _______ _______ _____ _____    ______ ____
ROOT
ATOM      1  N   UNL     1      34.578 -17.137 -22.995  0.00  0.00    -0.134 N 
ATOM      2  N   UNL     1      34.825 -17.800 -21.844  0.00  0.00    -0.168 NA
ATOM      3  N   UNL     1      34.084 -16.761 -25.125  0.00  0.00    -0.178 NA
ATOM      4  N   UNL     1      34.236 -19.050 -24.355  0.00  0.00    -0.200 NA
ATOM      5  C   UNL     1      34.569 -15.777 -23.150  0.00  0.00    +0.086 C 
ATOM      6  C   UNL     1      34.280 -17.702 -24.219  0.00  0.00    +0.114 C 
ATOM      7  C   UNL     1      34.262 -15.570 -24.471  0.00  0.00    +0.124 C 
ATOM      8  C   UNL     1      34.764 -19.093 -21.948  0.00  0.00    +0.103 C 
ATOM      9  C   UNL     1      34.470 -19.734 -23.283  0.00  0.00    +0.184 C 
ENDROOT
BRANCH   8  11
ATOM     10  F   UNL     1      33.079 -21.917 -18.378  0.00  0.00    -0.204 F 
ATOM     11  C   UNL     1      34.993 -19.947 -20.759  0.00  0.00    +0.019 C 
ATOM     12  C   UNL     1      33.911 -20.544 -20.112  0.00  0.00    +0.031 C 
ATOM     13  C   UNL     1      36.289 -20.154 -20.288  0.00  0.00    +0.002 C 
ATOM     14  C   UNL     1      35.422 -21.555 -18.521  0.00  0.00    +0.081 C 
ATOM     15  C   UNL     1      34.127 -21.348 -18.993  0.00  0.00    +0.144 C 
ATOM     16  C   UNL     1      36.504 -20.958 -19.169  0.00  0.00    +0.007 C 
BRANCH  14  19
ATOM     17  O   UNL     1      34.828 -23.269 -17.034  0.00  0.00    -0.270 OA
ATOM     18  N   UNL     1      36.837 -22.181 -16.643  0.00  0.00    -0.299 N 
ATOM     19  C   UNL     1      35.651 -22.394 -17.355  0.00  0.00    +0.248 C 
ATOM     20  C   UNL     1      37.218 -22.947 -15.478  0.00  0.00    +0.111 C 
ATOM     21  H   UNL     1      37.445 -21.470 -16.951  0.00  0.00    +0.150 HD
ENDBRANCH  14  19
ENDBRANCH   8  11
BRANCH   5  22
ATOM     22  C   UNL     1      34.854 -14.807 -22.020  0.00  0.00    +0.068 C 
BRANCH  22  24
ATOM     23  N   UNL     1      31.198 -10.499 -21.708  0.00  0.00    -0.248 NA
ATOM     24  C   UNL     1      33.896 -13.667 -21.946  0.00  0.00    -0.038 C 
ATOM     25  C   UNL     1      34.032 -12.580 -22.804  0.00  0.00    +0.050 C 
ATOM     26  C   UNL     1      33.131 -11.504 -22.737  0.00  0.00    -0.004 C 
ATOM     27  C   UNL     1      32.861 -13.683 -21.018  0.00  0.00    -0.028 C 
ATOM     28  C   UNL     1      32.078 -11.513 -21.798  0.00  0.00    +0.060 C 
ATOM     29  C   UNL     1      31.965 -12.613 -20.952  0.00  0.00    +0.071 C 
ATOM     30  C   UNL     1      33.245 -10.398 -23.590  0.00  0.00    -0.001 C 
ATOM     31  C   UNL     1      32.338  -9.350 -23.499  0.00  0.00    +0.020 C 
ATOM     32  C   UNL     1      31.343  -9.449 -22.549  0.00  0.00    +0.098 C 
ENDBRANCH  22  24
ENDBRANCH   5  22
TORSDOF 4
ENDMDL
MODEL 2
REMARK VINA RESULT:     -12.7      4.044      9.873
REMARK  Name = 25145656
REMARK  4 active torsions:
REMARK  status: ('A' for Active; 'I' for Inactive)
REMARK    1  A    between atoms: C_5  and  C_22
REMARK    2  A    between atoms: C_8  and  C_11
REMARK    3  A    between atoms: C_14  and  C_19
REMARK    4  A    between atoms: C_22  and  C_24
REMARK                            x       y       z     vdW  Elec       q    Type
REMARK                         _______ _______ _______ _____ _____    ______ ____
ROOT
ATOM      1  N   UNL     1      34.365 -15.526 -23.422  0.00  0.00    -0.134 N 
ATOM      2  N   UNL     1      34.062 -14.364 -22.803  0.00  0.00    -0.168 NA
ATOM      3  N   UNL     1      34.578 -17.046 -25.024  0.00  0.00    -0.178 NA
ATOM      4  N   UNL     1      33.562 -14.918 -25.570  0.00  0.00    -0.200 NA
ATOM      5  C   UNL     1      34.952 -16.616 -22.837  0.00  0.00    +0.086 C 
ATOM      6  C   UNL     1      34.150 -15.826 -24.753  0.00  0.00    +0.114 C 
ATOM      7  C   UNL     1      35.073 -17.539 -23.845  0.00  0.00    +0.124 C 
ATOM      8  C   UNL     1      33.518 -13.472 -23.575  0.00  0.00    +0.103 C 
ATOM      9  C   UNL     1      33.246 -13.789 -25.026  0.00  0.00    +0.184 C 
ENDROOT
BRANCH   8  11
ATOM     10  F   UNL     1      31.138 -10.719 -20.365  0.00  0.00    -0.204 F 
ATOM     11  C   UNL     1      33.152 -12.142 -23.034  0.00  0.00    +0.019 C 
ATOM     12  C   UNL     1      32.301 -12.049 -21.933  0.00  0.00    +0.031 C 
ATOM     13  C   UNL     1      33.660 -10.985 -23.624  0.00  0.00    +0.002 C 
ATOM     14  C   UNL     1      32.464  -9.639 -22.014  0.00  0.00    +0.081 C 
ATOM     15  C   UNL     1      31.957 -10.797 -21.423  0.00  0.00    +0.144 C 
ATOM     16  C   UNL     1      33.315  -9.734 -23.114  0.00  0.00    +0.007 C 
BRANCH  14  19
ATOM     17  O   UNL     1      31.332  -7.588 -22.109  0.00  0.00    -0.270 OA
ATOM     18  N   UNL     1      32.658  -7.977 -20.248  0.00  0.00    -0.299 N 
ATOM     19  C   UNL     1      32.108  -8.332 -21.485  0.00  0.00    +0.248 C 
ATOM     20  C   UNL     1      32.382  -6.725 -19.580  0.00  0.00    +0.111 C 
ATOM     21  H   UNL     1      33.266  -8.614 -19.807  0.00  0.00    +0.150 HD
ENDBRANCH  14  19
ENDBRANCH   8  11
BRANCH   5  22
ATOM     22  C   UNL     1      35.340 -16.669 -21.373  0.00  0.00    +0.068 C 
BRANCH  22  24
ATOM     23  N   UNL     1      35.850 -21.915 -19.314  0.00  0.00    -0.248 NA
ATOM     24  C   UNL     1      35.465 -18.052 -20.831  0.00  0.00    -0.038 C 
ATOM     25  C   UNL     1      34.324 -18.804 -20.563  0.00  0.00    +0.050 C 
ATOM     26  C   UNL     1      34.436 -20.108 -20.052  0.00  0.00    -0.004 C 
ATOM     27  C   UNL     1      36.719 -18.598 -20.588  0.00  0.00    -0.028 C 
ATOM     28  C   UNL     1      35.707 -20.670 -19.803  0.00  0.00    +0.060 C 
ATOM     29  C   UNL     1      36.830 -19.895 -20.080  0.00  0.00    +0.071 C 
ATOM     30  C   UNL     1      33.305 -20.888 -19.776  0.00  0.00    -0.001 C 
ATOM     31  C   UNL     1      33.450 -22.172 -19.270  0.00  0.00    +0.020 C 
ATOM     32  C   UNL     1      34.732 -22.635 -19.060  0.00  0.00    +0.098 C 
ENDBRANCH  22  24
ENDBRANCH   5  22
TORSDOF 4
ENDMDL
MODEL 3
REMARK VINA RESULT:     -11.7      6.709     12.693
REMARK  Name = 25145656
REMARK  4 active torsions:
REMARK  status: ('A' for Active; 'I' for Inactive)
REMARK    1  A    between atoms: C_5  and  C_22
REMARK    2  A    between atoms: C_8  and  C_11
REMARK    3  A    between atoms: C_14  and  C_19
REMARK    4  A    between atoms: C_22  and  C_24
REMARK                            x       y       z     vdW  Elec       q    Type
REMARK                         _______ _______ _______ _____ _____    ______ ____
ROOT
ATOM      1  N   UNL     1      32.178  -9.121 -20.706  0.00  0.00    -0.134 N 
ATOM      2  N   UNL     1      32.444  -8.495 -21.874  0.00  0.00    -0.168 NA
ATOM      3  N   UNL     1      31.952  -9.469 -18.527  0.00  0.00    -0.178 NA
ATOM      4  N   UNL     1      32.768  -7.318 -19.281  0.00  0.00    -0.200 NA
ATOM      5  C   UNL     1      31.718 -10.403 -20.571  0.00  0.00    +0.086 C 
ATOM      6  C   UNL     1      32.311  -8.584 -19.440  0.00  0.00    +0.114 C 
ATOM      7  C   UNL     1      31.586 -10.593 -19.219  0.00  0.00    +0.124 C 
ATOM      8  C   UNL     1      32.861  -7.272 -21.743  0.00  0.00    +0.103 C 
ATOM      9  C   UNL     1      33.043  -6.676 -20.369  0.00  0.00    +0.184 C 
ENDROOT
BRANCH   8  11
ATOM     10  F   UNL     1      31.523  -4.112 -25.174  0.00  0.00    -0.204 F 
ATOM     11  C   UNL     1      33.171  -6.459 -22.942  0.00  0.00    +0.019 C 
ATOM     12  C   UNL     1      32.186  -5.651 -23.509  0.00  0.00    +0.031 C 
ATOM     13  C   UNL     1      34.448  -6.501 -23.503  0.00  0.00    +0.002 C 
ATOM     14  C   UNL     1      33.753  -4.927 -25.200  0.00  0.00    +0.081 C 
ATOM     15  C   UNL     1      32.478  -4.885 -24.638  0.00  0.00    +0.144 C 
ATOM     16  C   UNL     1      34.738  -5.735 -24.632  0.00  0.00    +0.007 C 
BRANCH  14  19
ATOM     17  O   UNL     1      34.752  -3.100 -26.277  0.00  0.00    -0.270 OA
ATOM     18  N   UNL     1      33.569  -4.590 -27.602  0.00  0.00    -0.299 N 
ATOM     19  C   UNL     1      34.062  -4.130 -26.375  0.00  0.00    +0.248 C 
ATOM     20  C   UNL     1      33.809  -3.922 -28.861  0.00  0.00    +0.111 C 
ATOM     21  H   UNL     1      33.028  -5.412 -27.608  0.00  0.00    +0.150 HD
ENDBRANCH  14  19
ENDBRANCH   8  11
BRANCH   5  22
ATOM     22  C   UNL     1      31.448 -11.320 -21.747  0.00  0.00    +0.068 C 
BRANCH  22  24
ATOM     23  N   UNL     1      34.883 -15.813 -21.946  0.00  0.00    -0.248 NA
ATOM     24  C   UNL     1      32.351 -12.505 -21.810  0.00  0.00    -0.038 C 
ATOM     25  C   UNL     1      32.602 -13.131 -23.027  0.00  0.00    +0.050 C 
ATOM     26  C   UNL     1      33.453 -14.246 -23.091  0.00  0.00    -0.004 C 
ATOM     27  C   UNL     1      32.949 -12.991 -20.653  0.00  0.00    -0.028 C 
ATOM     28  C   UNL     1      34.063 -14.746 -21.921  0.00  0.00    +0.060 C 
ATOM     29  C   UNL     1      33.795 -14.100 -20.716  0.00  0.00    +0.071 C 
ATOM     30  C   UNL     1      33.723 -14.895 -24.303  0.00  0.00    -0.001 C 
ATOM     31  C   UNL     1      34.568 -15.996 -24.333  0.00  0.00    +0.020 C 
ATOM     32  C   UNL     1      35.118 -16.410 -23.138  0.00  0.00    +0.098 C 
ENDBRANCH  22  24
ENDBRANCH   5  22
TORSDOF 4
ENDMDL
MODEL 4
REMARK VINA RESULT:     -11.7      5.181     12.342
REMARK  Name = 25145656
REMARK  4 active torsions:
REMARK  status: ('A' for Active; 'I' for Inactive)
REMARK    1  A    between atoms: C_5  and  C_22
REMARK    2  A    between atoms: C_8  and  C_11
REMARK    3  A    between atoms: C_14  and  C_19
REMARK    4  A    between atoms: C_22  and  C_24
REMARK                            x       y       z     vdW  Elec       q    Type
REMARK                         _______ _______ _______ _____ _____    ______ ____
ROOT
ATOM      1  N   UNL     1      33.200 -23.762 -14.799  0.00  0.00    -0.134 N 
ATOM      2  N   UNL     1      33.790 -23.035 -15.772  0.00  0.00    -0.168 NA
ATOM      3  N   UNL     1      31.667 -24.933 -13.703  0.00  0.00    -0.178 NA
ATOM      4  N   UNL     1      31.094 -24.003 -15.863  0.00  0.00    -0.200 NA
ATOM      5  C   UNL     1      33.785 -24.151 -13.624  0.00  0.00    +0.086 C 
ATOM      6  C   UNL     1      31.910 -24.255 -14.811  0.00  0.00    +0.114 C 
ATOM      7  C   UNL     1      32.820 -24.872 -12.966  0.00  0.00    +0.124 C 
ATOM      8  C   UNL     1      33.031 -22.802 -16.801  0.00  0.00    +0.103 C 
ATOM      9  C   UNL     1      31.608 -23.305 -16.822  0.00  0.00    +0.184 C 
ENDROOT
BRANCH   8  11
ATOM     10  F   UNL     1      36.737 -21.281 -19.540  0.00  0.00    -0.204 F 
ATOM     11  C   UNL     1      33.555 -22.033 -17.954  0.00  0.00    +0.019 C 
ATOM     12  C   UNL     1      34.925 -22.015 -18.214  0.00  0.00    +0.031 C 
ATOM     13  C   UNL     1      32.678 -21.329 -18.778  0.00  0.00    +0.002 C 
ATOM     14  C   UNL     1      34.542 -20.586 -20.124  0.00  0.00    +0.081 C 
ATOM     15  C   UNL     1      35.418 -21.291 -19.299  0.00  0.00    +0.144 C 
ATOM     16  C   UNL     1      33.172 -20.605 -19.863  0.00  0.00    +0.007 C 
BRANCH  14  19
ATOM     17  O   UNL     1      36.174 -19.295 -21.207  0.00  0.00    -0.270 OA
ATOM     18  N   UNL     1      34.238 -19.763 -22.393  0.00  0.00    -0.299 N 
ATOM     19  C   UNL     1      35.052 -19.831 -21.257  0.00  0.00    +0.248 C 
ATOM     20  C   UNL     1      34.613 -19.072 -23.606  0.00  0.00    +0.111 C 
ATOM     21  H   UNL     1      33.361 -20.209 -22.366  0.00  0.00    +0.150 HD
ENDBRANCH  14  19
ENDBRANCH   8  11
BRANCH   5  22
ATOM     22  C   UNL     1      35.209 -23.798 -13.244  0.00  0.00    +0.068 C 
BRANCH  22  24
ATOM     23  N   UNL     1      39.045 -27.482 -15.176  0.00  0.00    -0.248 NA
ATOM     24  C   UNL     1      36.227 -24.763 -13.748  0.00  0.00    -0.038 C 
ATOM     25  C   UNL     1      37.565 -24.619 -13.393  0.00  0.00    +0.050 C 
ATOM     26  C   UNL     1      38.528 -25.527 -13.865  0.00  0.00    -0.004 C 
ATOM     27  C   UNL     1      35.847 -25.813 -14.575  0.00  0.00    -0.028 C 
ATOM     28  C   UNL     1      38.149 -26.595 -14.706  0.00  0.00    +0.060 C 
ATOM     29  C   UNL     1      36.804 -26.715 -15.045  0.00  0.00    +0.071 C 
ATOM     30  C   UNL     1      39.881 -25.406 -13.522  0.00  0.00    -0.001 C 
ATOM     31  C   UNL     1      40.808 -26.319 -14.006  0.00  0.00    +0.020 C 
ATOM     32  C   UNL     1      40.343 -27.329 -14.822  0.00  0.00    +0.098 C 
ENDBRANCH  22  24
ENDBRANCH   5  22
TORSDOF 4
ENDMDL
MODEL 5
REMARK VINA RESULT:     -11.6      5.510     12.326
REMARK  Name = 25145656
REMARK  4 active torsions:
REMARK  status: ('A' for Active; 'I' for Inactive)
REMARK    1  A    between atoms: C_5  and  C_22
REMARK    2  A    between atoms: C_8  and  C_11
REMARK    3  A    between atoms: C_14  and  C_19
REMARK    4  A    between atoms: C_22  and  C_24
REMARK                            x       y       z     vdW  Elec       q    Type
REMARK                         _______ _______ _______ _____ _____    ______ ____
ROOT
ATOM      1  N   UNL     1      33.155 -23.885 -14.591  0.00  0.00    -0.134 N 
ATOM      2  N   UNL     1      33.762 -23.168 -15.563  0.00  0.00    -0.168 NA
ATOM      3  N   UNL     1      31.600 -25.037 -13.507  0.00  0.00    -0.178 NA
ATOM      4  N   UNL     1      31.062 -24.120 -15.681  0.00  0.00    -0.200 NA
ATOM      5  C   UNL     1      33.723 -24.268 -13.406  0.00  0.00    +0.086 C 
ATOM      6  C   UNL     1      31.862 -24.369 -14.616  0.00  0.00    +0.114 C 
ATOM      7  C   UNL     1      32.745 -24.977 -12.755  0.00  0.00    +0.124 C 
ATOM      8  C   UNL     1      33.018 -22.939 -16.603  0.00  0.00    +0.103 C 
ATOM      9  C   UNL     1      31.592 -23.433 -16.639  0.00  0.00    +0.184 C 
ENDROOT
BRANCH   8  11
ATOM     10  F   UNL     1      32.361 -20.240 -20.582  0.00  0.00    -0.204 F 
ATOM     11  C   UNL     1      33.562 -22.183 -17.755  0.00  0.00    +0.019 C 
ATOM     12  C   UNL     1      32.694 -21.554 -18.647  0.00  0.00    +0.031 C 
ATOM     13  C   UNL     1      34.941 -22.100 -17.947  0.00  0.00    +0.002 C 
ATOM     14  C   UNL     1      34.584 -20.758 -19.924  0.00  0.00    +0.081 C 
ATOM     15  C   UNL     1      33.205 -20.841 -19.731  0.00  0.00    +0.144 C 
ATOM     16  C   UNL     1      35.451 -21.387 -19.031  0.00  0.00    +0.007 C 
BRANCH  14  19
ATOM     17  O   UNL     1      34.515 -19.989 -22.138  0.00  0.00    -0.270 OA
ATOM     18  N   UNL     1      36.322 -19.327 -20.846  0.00  0.00    -0.299 N 
ATOM     19  C   UNL     1      35.121 -20.015 -21.053  0.00  0.00    +0.248 C 
ATOM     20  C   UNL     1      36.969 -18.526 -21.861  0.00  0.00    +0.111 C 
ATOM     21  H   UNL     1      36.750 -19.390 -19.962  0.00  0.00    +0.150 HD
ENDBRANCH  14  19
ENDBRANCH   8  11
BRANCH   5  22
ATOM     22  C   UNL     1      35.144 -23.920 -13.010  0.00  0.00    +0.068 C 
BRANCH  22  24
ATOM     23  N   UNL     1      39.017 -27.427 -15.184  0.00  0.00    -0.248 NA
ATOM     24  C   UNL     1      36.172 -24.839 -13.578  0.00  0.00    -0.038 C 
ATOM     25  C   UNL     1      37.513 -24.687 -13.236  0.00  0.00    +0.050 C 
ATOM     26  C   UNL     1      38.484 -25.550 -13.769  0.00  0.00    -0.004 C 
ATOM     27  C   UNL     1      35.798 -25.853 -14.451  0.00  0.00    -0.028 C 
ATOM     28  C   UNL     1      38.112 -26.583 -14.656  0.00  0.00    +0.060 C 
ATOM     29  C   UNL     1      36.764 -26.712 -14.980  0.00  0.00    +0.071 C 
ATOM     30  C   UNL     1      39.840 -25.420 -13.441  0.00  0.00    -0.001 C 
ATOM     31  C   UNL     1      40.776 -26.289 -13.985  0.00  0.00    +0.020 C 
ATOM     32  C   UNL     1      40.317 -27.267 -14.842  0.00  0.00    +0.098 C 
ENDBRANCH  22  24
ENDBRANCH   5  22
TORSDOF 4
ENDMDL
MODEL 6
REMARK VINA RESULT:     -11.6      5.693      9.513
REMARK  Name = 25145656
REMARK  4 active torsions:
REMARK  status: ('A' for Active; 'I' for Inactive)
REMARK    1  A    between atoms: C_5  and  C_22
REMARK    2  A    between atoms: C_8  and  C_11
REMARK    3  A    between atoms: C_14  and  C_19
REMARK    4  A    between atoms: C_22  and  C_24
REMARK                            x       y       z     vdW  Elec       q    Type
REMARK                         _______ _______ _______ _____ _____    ______ ____
ROOT
ATOM      1  N   UNL     1      33.588 -23.661 -15.634  0.00  0.00    -0.134 N 
ATOM      2  N   UNL     1      34.783 -24.282 -15.750  0.00  0.00    -0.168 NA
ATOM      3  N   UNL     1      31.795 -22.736 -14.711  0.00  0.00    -0.178 NA
ATOM      4  N   UNL     1      33.479 -23.702 -13.265  0.00  0.00    -0.200 NA
ATOM      5  C   UNL     1      32.815 -23.213 -16.671  0.00  0.00    +0.086 C 
ATOM      6  C   UNL     1      32.934 -23.355 -14.457  0.00  0.00    +0.114 C 
ATOM      7  C   UNL     1      31.716 -22.647 -16.076  0.00  0.00    +0.124 C 
ATOM      8  C   UNL     1      35.332 -24.602 -14.617  0.00  0.00    +0.103 C 
ATOM      9  C   UNL     1      34.621 -24.305 -13.319  0.00  0.00    +0.184 C 
ENDROOT
BRANCH   8  11
ATOM     10  F   UNL     1      40.180 -24.393 -14.642  0.00  0.00    -0.204 F 
ATOM     11  C   UNL     1      36.653 -25.271 -14.593  0.00  0.00    +0.019 C 
ATOM     12  C   UNL     1      37.820 -24.508 -14.630  0.00  0.00    +0.031 C 
ATOM     13  C   UNL     1      36.731 -26.662 -14.533  0.00  0.00    +0.002 C 
ATOM     14  C   UNL     1      39.143 -26.528 -14.547  0.00  0.00    +0.081 C 
ATOM     15  C   UNL     1      39.065 -25.137 -14.607  0.00  0.00    +0.144 C 
ATOM     16  C   UNL     1      37.976 -27.290 -14.510  0.00  0.00    +0.007 C 
BRANCH  14  19
ATOM     17  O   UNL     1      41.344 -26.774 -13.776  0.00  0.00    -0.270 OA
ATOM     18  N   UNL     1      40.598 -28.305 -15.350  0.00  0.00    -0.299 N 
ATOM     19  C   UNL     1      40.439 -27.188 -14.522  0.00  0.00    +0.248 C 
ATOM     20  C   UNL     1      41.816 -29.081 -15.419  0.00  0.00    +0.111 C 
ATOM     21  H   UNL     1      39.841 -28.578 -15.916  0.00  0.00    +0.150 HD
ENDBRANCH  14  19
ENDBRANCH   8  11
BRANCH   5  22
ATOM     22  C   UNL     1      33.201 -23.369 -18.128  0.00  0.00    +0.068 C 
BRANCH  22  24
ATOM     23  N   UNL     1      37.041 -19.601 -19.882  0.00  0.00    -0.248 NA
ATOM     24  C   UNL     1      34.207 -22.372 -18.597  0.00  0.00    -0.038 C 
ATOM     25  C   UNL     1      33.890 -21.488 -19.625  0.00  0.00    +0.050 C 
ATOM     26  C   UNL     1      34.833 -20.548 -20.070  0.00  0.00    -0.004 C 
ATOM     27  C   UNL     1      35.465 -22.320 -18.012  0.00  0.00    -0.028 C 
ATOM     28  C   UNL     1      36.114 -20.489 -19.480  0.00  0.00    +0.060 C 
ATOM     29  C   UNL     1      36.404 -21.385 -18.454  0.00  0.00    +0.071 C 
ATOM     30  C   UNL     1      34.540 -19.646 -21.101  0.00  0.00    -0.001 C 
ATOM     31  C   UNL     1      35.495 -18.729 -21.518  0.00  0.00    +0.020 C 
ATOM     32  C   UNL     1      36.719 -18.747 -20.882  0.00  0.00    +0.098 C 
ENDBRANCH  22  24
ENDBRANCH   5  22
TORSDOF 4
ENDMDL
MODEL 7
REMARK VINA RESULT:     -11.3      5.490     10.238
REMARK  Name = 25145656
REMARK  4 active torsions:
REMARK  status: ('A' for Active; 'I' for Inactive)
REMARK    1  A    between atoms: C_5  and  C_22
REMARK    2  A    between atoms: C_8  and  C_11
REMARK    3  A    between atoms: C_14  and  C_19
REMARK    4  A    between atoms: C_22  and  C_24
REMARK                            x       y       z     vdW  Elec       q    Type
REMARK                         _______ _______ _______ _____ _____    ______ ____
ROOT
ATOM      1  N   UNL     1      31.743  -7.017 -22.255  0.00  0.00    -0.134 N 
ATOM      2  N   UNL     1      32.014  -8.167 -22.909  0.00  0.00    -0.168 NA
ATOM      3  N   UNL     1      31.464  -5.574 -20.593  0.00  0.00    -0.178 NA
ATOM      4  N   UNL     1      32.064  -7.858 -20.060  0.00  0.00    -0.200 NA
ATOM      5  C   UNL     1      31.405  -5.825 -22.838  0.00  0.00    +0.086 C 
ATOM      6  C   UNL     1      31.768  -6.826 -20.887  0.00  0.00    +0.114 C 
ATOM      7  C   UNL     1      31.238  -4.952 -21.792  0.00  0.00    +0.124 C 
ATOM      8  C   UNL     1      32.323  -9.163 -22.134  0.00  0.00    +0.103 C 
ATOM      9  C   UNL     1      32.326  -8.985 -20.635  0.00  0.00    +0.184 C 
ENDROOT
BRANCH   8  11
ATOM     10  F   UNL     1      34.154 -11.852 -25.735  0.00  0.00    -0.204 F 
ATOM     11  C   UNL     1      32.664 -10.482 -22.717  0.00  0.00    +0.019 C 
ATOM     12  C   UNL     1      33.260 -10.554 -23.976  0.00  0.00    +0.031 C 
ATOM     13  C   UNL     1      32.390 -11.650 -22.006  0.00  0.00    +0.002 C 
ATOM     14  C   UNL     1      33.307 -12.964 -23.815  0.00  0.00    +0.081 C 
ATOM     15  C   UNL     1      33.581 -11.795 -24.524  0.00  0.00    +0.144 C 
ATOM     16  C   UNL     1      32.711 -12.891 -22.556  0.00  0.00    +0.007 C 
BRANCH  14  19
ATOM     17  O   UNL     1      33.374 -14.518 -25.570  0.00  0.00    -0.270 OA
ATOM     18  N   UNL     1      34.288 -15.174 -23.543  0.00  0.00    -0.299 N 
ATOM     19  C   UNL     1      33.641 -14.260 -24.383  0.00  0.00    +0.248 C 
ATOM     20  C   UNL     1      34.706 -16.491 -23.966  0.00  0.00    +0.111 C 
ATOM     21  H   UNL     1      34.469 -14.905 -22.613  0.00  0.00    +0.150 HD
ENDBRANCH  14  19
ENDBRANCH   8  11
BRANCH   5  22
ATOM     22  C   UNL     1      31.273  -5.636 -24.336  0.00  0.00    +0.068 C 
BRANCH  22  24
ATOM     23  N   UNL     1      36.192  -4.559 -26.918  0.00  0.00    -0.248 NA
ATOM     24  C   UNL     1      32.565  -5.349 -25.025  0.00  0.00    -0.038 C 
ATOM     25  C   UNL     1      32.569  -4.844 -26.321  0.00  0.00    +0.050 C 
ATOM     26  C   UNL     1      33.783  -4.572 -26.974  0.00  0.00    -0.004 C 
ATOM     27  C   UNL     1      33.771  -5.585 -24.376  0.00  0.00    -0.028 C 
ATOM     28  C   UNL     1      35.012  -4.809 -26.322  0.00  0.00    +0.060 C 
ATOM     29  C   UNL     1      34.978  -5.314 -25.025  0.00  0.00    +0.071 C 
ATOM     30  C   UNL     1      33.817  -4.062 -28.279  0.00  0.00    -0.001 C 
ATOM     31  C   UNL     1      35.033  -3.805 -28.896  0.00  0.00    +0.020 C 
ATOM     32  C   UNL     1      36.181  -4.068 -28.179  0.00  0.00    +0.098 C 
ENDBRANCH  22  24
ENDBRANCH   5  22
TORSDOF 4
ENDMDL
MODEL 8
REMARK VINA RESULT:     -11.2      5.670     12.130
REMARK  Name = 25145656
REMARK  4 active torsions:
REMARK  status: ('A' for Active; 'I' for Inactive)
REMARK    1  A    between atoms: C_5  and  C_22
REMARK    2  A    between atoms: C_8  and  C_11
REMARK    3  A    between atoms: C_14  and  C_19
REMARK    4  A    between atoms: C_22  and  C_24
REMARK                            x       y       z     vdW  Elec       q    Type
REMARK                         _______ _______ _______ _____ _____    ______ ____
ROOT
ATOM      1  N   UNL     1      32.538 -11.394 -21.913  0.00  0.00    -0.134 N 
ATOM      2  N   UNL     1      32.754 -10.342 -22.733  0.00  0.00    -0.168 NA
ATOM      3  N   UNL     1      31.867 -12.570 -20.155  0.00  0.00    -0.178 NA
ATOM      4  N   UNL     1      31.483 -10.180 -20.169  0.00  0.00    -0.200 NA
ATOM      5  C   UNL     1      32.887 -12.693 -22.168  0.00  0.00    +0.086 C 
ATOM      6  C   UNL     1      31.921 -11.358 -20.677  0.00  0.00    +0.114 C 
ATOM      7  C   UNL     1      32.463 -13.398 -21.070  0.00  0.00    +0.124 C 
ATOM      8  C   UNL     1      32.320  -9.208 -22.273  0.00  0.00    +0.103 C 
ATOM      9  C   UNL     1      31.670  -9.139 -20.912  0.00  0.00    +0.184 C 
ENDROOT
BRANCH   8  11
ATOM     10  F   UNL     1      35.073  -5.639 -24.074  0.00  0.00    -0.204 F 
ATOM     11  C   UNL     1      32.470  -7.972 -23.077  0.00  0.00    +0.019 C 
ATOM     12  C   UNL     1      33.722  -7.371 -23.202  0.00  0.00    +0.031 C 
ATOM     13  C   UNL     1      31.360  -7.412 -23.708  0.00  0.00    +0.002 C 
ATOM     14  C   UNL     1      32.755  -5.647 -24.590  0.00  0.00    +0.081 C 
ATOM     15  C   UNL     1      33.864  -6.209 -23.959  0.00  0.00    +0.144 C 
ATOM     16  C   UNL     1      31.503  -6.249 -24.465  0.00  0.00    +0.007 C 
BRANCH  14  19
ATOM     17  O   UNL     1      33.114  -4.500 -26.604  0.00  0.00    -0.270 OA
ATOM     18  N   UNL     1      32.760  -3.216 -24.707  0.00  0.00    -0.299 N 
ATOM     19  C   UNL     1      32.898  -4.435 -25.381  0.00  0.00    +0.248 C 
ATOM     20  C   UNL     1      32.851  -1.928 -25.357  0.00  0.00    +0.111 C 
ATOM     21  H   UNL     1      32.590  -3.236 -23.737  0.00  0.00    +0.150 HD
ENDBRANCH  14  19
ENDBRANCH   8  11
BRANCH   5  22
ATOM     22  C   UNL     1      33.592 -13.134 -23.435  0.00  0.00    +0.068 C 
BRANCH  22  24
ATOM     23  N   UNL     1      35.133 -18.579 -23.457  0.00  0.00    -0.248 NA
ATOM     24  C   UNL     1      34.001 -14.568 -23.431  0.00  0.00    -0.038 C 
ATOM     25  C   UNL     1      34.592 -15.124 -22.301  0.00  0.00    +0.050 C 
ATOM     26  C   UNL     1      34.980 -16.475 -22.292  0.00  0.00    -0.004 C 
ATOM     27  C   UNL     1      33.795 -15.357 -24.556  0.00  0.00    -0.028 C 
ATOM     28  C   UNL     1      34.774 -17.283 -23.431  0.00  0.00    +0.060 C 
ATOM     29  C   UNL     1      34.181 -16.700 -24.548  0.00  0.00    +0.071 C 
ATOM     30  C   UNL     1      35.576 -17.060 -21.168  0.00  0.00    -0.001 C 
ATOM     31  C   UNL     1      35.948 -18.398 -21.191  0.00  0.00    +0.020 C 
ATOM     32  C   UNL     1      35.706 -19.106 -22.350  0.00  0.00    +0.098 C 
ENDBRANCH  22  24
ENDBRANCH   5  22
TORSDOF 4
ENDMDL
MODEL 9
REMARK VINA RESULT:     -11.0      3.410      6.436
REMARK  Name = 25145656
REMARK  4 active torsions:
REMARK  status: ('A' for Active; 'I' for Inactive)
REMARK    1  A    between atoms: C_5  and  C_22
REMARK    2  A    between atoms: C_8  and  C_11
REMARK    3  A    between atoms: C_14  and  C_19
REMARK    4  A    between atoms: C_22  and  C_24
REMARK                            x       y       z     vdW  Elec       q    Type
REMARK                         _______ _______ _______ _____ _____    ______ ____
ROOT
ATOM      1  N   UNL     1      34.035 -21.643 -18.625  0.00  0.00    -0.134 N 
ATOM      2  N   UNL     1      35.106 -22.095 -17.938  0.00  0.00    -0.168 NA
ATOM      3  N   UNL     1      31.923 -21.298 -19.214  0.00  0.00    -0.178 NA
ATOM      4  N   UNL     1      32.381 -22.720 -17.309  0.00  0.00    -0.200 NA
ATOM      5  C   UNL     1      34.074 -20.823 -19.721  0.00  0.00    +0.086 C 
ATOM      6  C   UNL     1      32.709 -21.913 -18.347  0.00  0.00    +0.114 C 
ATOM      7  C   UNL     1      32.760 -20.625 -20.064  0.00  0.00    +0.124 C 
ATOM      8  C   UNL     1      34.812 -22.853 -16.925  0.00  0.00    +0.103 C 
ATOM      9  C   UNL     1      33.371 -23.186 -16.620  0.00  0.00    +0.184 C 
ENDROOT
BRANCH   8  11
ATOM     10  F   UNL     1      36.446 -26.187 -13.800  0.00  0.00    -0.204 F 
ATOM     11  C   UNL     1      35.888 -23.403 -16.069  0.00  0.00    +0.019 C 
ATOM     12  C   UNL     1      35.661 -24.558 -15.321  0.00  0.00    +0.031 C 
ATOM     13  C   UNL     1      37.128 -22.766 -16.011  0.00  0.00    +0.002 C 
ATOM     14  C   UNL     1      37.914 -24.440 -14.456  0.00  0.00    +0.081 C 
ATOM     15  C   UNL     1      36.675 -25.076 -14.515  0.00  0.00    +0.144 C 
ATOM     16  C   UNL     1      38.140 -23.285 -15.205  0.00  0.00    +0.007 C 
BRANCH  14  19
ATOM     17  O   UNL     1      39.087 -24.617 -12.433  0.00  0.00    -0.270 OA
ATOM     18  N   UNL     1      39.827 -25.922 -14.201  0.00  0.00    -0.299 N 
ATOM     19  C   UNL     1      38.974 -24.978 -13.618  0.00  0.00    +0.248 C 
ATOM     20  C   UNL     1      40.911 -26.564 -13.492  0.00  0.00    +0.111 C 
ATOM     21  H   UNL     1      39.682 -26.162 -15.144  0.00  0.00    +0.150 HD
ENDBRANCH  14  19
ENDBRANCH   8  11
BRANCH   5  22
ATOM     22  C   UNL     1      35.362 -20.309 -20.332  0.00  0.00    +0.068 C 
BRANCH  22  24
ATOM     23  N   UNL     1      34.581 -16.804 -24.706  0.00  0.00    -0.248 NA
ATOM     24  C   UNL     1      35.156 -19.377 -21.479  0.00  0.00    -0.038 C 
ATOM     25  C   UNL     1      35.123 -18.002 -21.266  0.00  0.00    +0.050 C 
ATOM     26  C   UNL     1      34.931 -17.121 -22.342  0.00  0.00    -0.004 C 
ATOM     27  C   UNL     1      34.997 -19.876 -22.766  0.00  0.00    -0.028 C 
ATOM     28  C   UNL     1      34.768 -17.620 -23.652  0.00  0.00    +0.060 C 
ATOM     29  C   UNL     1      34.805 -18.999 -23.836  0.00  0.00    +0.071 C 
ATOM     30  C   UNL     1      34.894 -15.732 -22.157  0.00  0.00    -0.001 C 
ATOM     31  C   UNL     1      34.701 -14.888 -23.242  0.00  0.00    +0.020 C 
ATOM     32  C   UNL     1      34.552 -15.469 -24.484  0.00  0.00    +0.098 C 
ENDBRANCH  22  24
ENDBRANCH   5  22
TORSDOF 4
ENDMDL
