MODEL 1
REMARK VINA RESULT:     -11.2      0.000      0.000
REMARK  Name = 17754438
REMARK  6 active torsions:
REMARK  status: ('A' for Active; 'I' for Inactive)
REMARK    1  A    between atoms: N_1  and  C_19
REMARK    2  A    between atoms: C_7  and  C_12
REMARK    3  A    between atoms: N_10  and  C_15
REMARK    4  A    between atoms: C_15  and  C_16
REMARK    5  A    between atoms: C_16  and  O_17
REMARK    6  A    between atoms: C_19  and  C_21
REMARK                            x       y       z     vdW  Elec       q    Type
REMARK                         _______ _______ _______ _____ _____    ______ ____
ROOT
ATOM      1  N   UNL     1      34.654 -20.933 -19.644  0.00  0.00    -0.163 N 
ATOM      2  N   UNL     1      35.611 -21.949 -17.638  0.00  0.00    -0.378 NA
ATOM      3  N   UNL     1      33.441 -20.898 -20.231  0.00  0.00    -0.033 NA
ATOM      4  N   UNL     1      32.877 -22.875 -17.399  0.00  0.00    -0.208 NA
ATOM      5  N   UNL     1      32.605 -21.616 -19.481  0.00  0.00    -0.086 NA
ATOM      6  C   UNL     1      34.625 -21.673 -18.505  0.00  0.00    +0.267 C 
ATOM      7  C   UNL     1      35.163 -22.726 -16.625  0.00  0.00    +0.140 C 
ATOM      8  C   UNL     1      33.313 -22.098 -18.419  0.00  0.00    +0.098 C 
ATOM      9  C   UNL     1      33.853 -23.170 -16.510  0.00  0.00    +0.195 C 
ENDROOT
BRANCH   7  12
ATOM     10  N   UNL     1      37.037 -23.905 -13.823  0.00  0.00    -0.208 N 
ATOM     11  N   UNL     1      38.083 -23.362 -14.470  0.00  0.00    -0.176 NA
ATOM     12  C   UNL     1      36.138 -23.084 -15.637  0.00  0.00    +0.064 C 
ATOM     13  C   UNL     1      35.850 -23.766 -14.479  0.00  0.00    +0.088 C 
ATOM     14  C   UNL     1      37.527 -22.862 -15.577  0.00  0.00    +0.121 C 
BRANCH  10  15
ATOM     15  C   UNL     1      37.243 -24.561 -12.554  0.00  0.00    +0.148 C 
BRANCH  15  16
ATOM     16  C   UNL     1      37.260 -23.582 -11.387  0.00  0.00    +0.161 C 
BRANCH  16  17
ATOM     17  O   UNL     1      38.584 -23.104 -11.182  0.00  0.00    -0.380 OA
ATOM     18  H   UNL     1      38.558 -22.156 -10.981  0.00  0.00    +0.211 HD
ENDBRANCH  16  17
ENDBRANCH  15  16
ENDBRANCH  10  15
ENDBRANCH   7  12
BRANCH   1  19
ATOM     19  C   UNL     1      35.794 -20.227 -20.241  0.00  0.00    +0.145 C 
BRANCH  19  21
ATOM     20  N   UNL     1      34.205 -17.025 -24.628  0.00  0.00    -0.244 NA
ATOM     21  C   UNL     1      35.378 -19.375 -21.392  0.00  0.00    -0.000 C 
ATOM     22  C   UNL     1      35.370 -17.989 -21.269  0.00  0.00    -0.001 C 
ATOM     23  C   UNL     1      34.978 -17.182 -22.352  0.00  0.00    +0.017 C 
ATOM     24  C   UNL     1      34.994 -19.961 -22.592  0.00  0.00    -0.001 C 
ATOM     25  C   UNL     1      34.587 -17.769 -23.573  0.00  0.00    +0.081 C 
ATOM     26  C   UNL     1      34.604 -19.158 -23.667  0.00  0.00    +0.019 C 
ATOM     27  C   UNL     1      34.962 -15.784 -22.256  0.00  0.00    +0.003 C 
ATOM     28  C   UNL     1      34.568 -15.015 -23.342  0.00  0.00    +0.021 C 
ATOM     29  C   UNL     1      34.204 -15.679 -24.495  0.00  0.00    +0.099 C 
ENDBRANCH  19  21
ENDBRANCH   1  19
TORSDOF 6
ENDMDL
MODEL 2
REMARK VINA RESULT:     -11.1      2.775      4.226
REMARK  Name = 17754438
REMARK  6 active torsions:
REMARK  status: ('A' for Active; 'I' for Inactive)
REMARK    1  A    between atoms: N_1  and  C_19
REMARK    2  A    between atoms: C_7  and  C_12
REMARK    3  A    between atoms: N_10  and  C_15
REMARK    4  A    between atoms: C_15  and  C_16
REMARK    5  A    between atoms: C_16  and  O_17
REMARK    6  A    between atoms: C_19  and  C_21
REMARK                            x       y       z     vdW  Elec       q    Type
REMARK                         _______ _______ _______ _____ _____    ______ ____
ROOT
ATOM      1  N   UNL     1      33.273 -23.548 -16.861  0.00  0.00    -0.163 N 
ATOM      2  N   UNL     1      35.082 -24.382 -15.447  0.00  0.00    -0.378 NA
ATOM      3  N   UNL     1      32.059 -22.997 -16.660  0.00  0.00    -0.033 NA
ATOM      4  N   UNL     1      33.208 -23.550 -13.401  0.00  0.00    -0.208 NA
ATOM      5  N   UNL     1      31.859 -22.919 -15.344  0.00  0.00    -0.086 NA
ATOM      6  C   UNL     1      33.880 -23.835 -15.680  0.00  0.00    +0.267 C 
ATOM      7  C   UNL     1      35.313 -24.499 -14.119  0.00  0.00    +0.140 C 
ATOM      8  C   UNL     1      32.965 -23.427 -14.728  0.00  0.00    +0.098 C 
ATOM      9  C   UNL     1      34.416 -24.101 -13.139  0.00  0.00    +0.195 C 
ENDROOT
BRANCH   7  12
ATOM     10  N   UNL     1      38.706 -25.558 -13.761  0.00  0.00    -0.208 N 
ATOM     11  N   UNL     1      38.229 -26.267 -12.723  0.00  0.00    -0.176 NA
ATOM     12  C   UNL     1      36.575 -25.075 -13.755  0.00  0.00    +0.064 C 
ATOM     13  C   UNL     1      37.756 -24.827 -14.412  0.00  0.00    +0.088 C 
ATOM     14  C   UNL     1      36.927 -25.969 -12.725  0.00  0.00    +0.121 C 
BRANCH  10  15
ATOM     15  C   UNL     1      40.111 -25.619 -14.085  0.00  0.00    +0.148 C 
BRANCH  15  16
ATOM     16  C   UNL     1      40.488 -26.905 -14.808  0.00  0.00    +0.161 C 
BRANCH  16  17
ATOM     17  O   UNL     1      40.480 -26.685 -16.212  0.00  0.00    -0.380 OA
ATOM     18  H   UNL     1      39.812 -27.253 -16.625  0.00  0.00    +0.211 HD
ENDBRANCH  16  17
ENDBRANCH  15  16
ENDBRANCH  10  15
ENDBRANCH   7  12
BRANCH   1  19
ATOM     19  C   UNL     1      33.779 -23.765 -18.220  0.00  0.00    +0.145 C 
BRANCH  19  21
ATOM     20  N   UNL     1      34.803 -18.875 -20.879  0.00  0.00    -0.244 NA
ATOM     21  C   UNL     1      34.059 -22.478 -18.921  0.00  0.00    -0.000 C 
ATOM     22  C   UNL     1      35.368 -22.020 -19.047  0.00  0.00    -0.001 C 
ATOM     23  C   UNL     1      35.635 -20.807 -19.706  0.00  0.00    +0.017 C 
ATOM     24  C   UNL     1      33.015 -21.728 -19.447  0.00  0.00    -0.001 C 
ATOM     25  C   UNL     1      34.581 -20.041 -20.243  0.00  0.00    +0.081 C 
ATOM     26  C   UNL     1      33.282 -20.522 -20.102  0.00  0.00    +0.019 C 
ATOM     27  C   UNL     1      36.943 -20.324 -19.848  0.00  0.00    +0.003 C 
ATOM     28  C   UNL     1      37.175 -19.122 -20.503  0.00  0.00    +0.021 C 
ATOM     29  C   UNL     1      36.080 -18.443 -20.995  0.00  0.00    +0.099 C 
ENDBRANCH  19  21
ENDBRANCH   1  19
TORSDOF 6
ENDMDL
MODEL 3
REMARK VINA RESULT:     -10.9      4.521     10.286
REMARK  Name = 17754438
REMARK  6 active torsions:
REMARK  status: ('A' for Active; 'I' for Inactive)
REMARK    1  A    between atoms: N_1  and  C_19
REMARK    2  A    between atoms: C_7  and  C_12
REMARK    3  A    between atoms: N_10  and  C_15
REMARK    4  A    between atoms: C_15  and  C_16
REMARK    5  A    between atoms: C_16  and  O_17
REMARK    6  A    between atoms: C_19  and  C_21
REMARK                            x       y       z     vdW  Elec       q    Type
REMARK                         _______ _______ _______ _____ _____    ______ ____
ROOT
ATOM      1  N   UNL     1      35.506 -18.580 -22.615  0.00  0.00    -0.163 N 
ATOM      2  N   UNL     1      34.824 -16.242 -22.811  0.00  0.00    -0.378 NA
ATOM      3  N   UNL     1      35.268 -19.720 -23.293  0.00  0.00    -0.033 NA
ATOM      4  N   UNL     1      33.404 -17.356 -25.077  0.00  0.00    -0.208 NA
ATOM      5  N   UNL     1      34.452 -19.430 -24.306  0.00  0.00    -0.086 NA
ATOM      6  C   UNL     1      34.849 -17.532 -23.177  0.00  0.00    +0.267 C 
ATOM      7  C   UNL     1      34.042 -15.516 -23.643  0.00  0.00    +0.140 C 
ATOM      8  C   UNL     1      34.185 -18.094 -24.251  0.00  0.00    +0.098 C 
ATOM      9  C   UNL     1      33.362 -16.049 -24.729  0.00  0.00    +0.195 C 
ENDROOT
BRANCH   7  12
ATOM     10  N   UNL     1      33.672 -11.964 -23.593  0.00  0.00    -0.208 N 
ATOM     11  N   UNL     1      33.904 -12.097 -22.275  0.00  0.00    -0.176 NA
ATOM     12  C   UNL     1      33.943 -14.117 -23.343  0.00  0.00    +0.064 C 
ATOM     13  C   UNL     1      33.685 -13.143 -24.277  0.00  0.00    +0.088 C 
ATOM     14  C   UNL     1      34.069 -13.415 -22.129  0.00  0.00    +0.121 C 
BRANCH  10  15
ATOM     15  C   UNL     1      33.438 -10.653 -24.149  0.00  0.00    +0.148 C 
BRANCH  15  16
ATOM     16  C   UNL     1      34.703 -10.025 -24.719  0.00  0.00    +0.161 C 
BRANCH  16  17
ATOM     17  O   UNL     1      35.574  -9.655 -23.658  0.00  0.00    -0.380 OA
ATOM     18  H   UNL     1      35.526 -10.320 -22.954  0.00  0.00    +0.211 HD
ENDBRANCH  16  17
ENDBRANCH  15  16
ENDBRANCH  10  15
ENDBRANCH   7  12
BRANCH   1  19
ATOM     19  C   UNL     1      36.379 -18.579 -21.436  0.00  0.00    +0.145 C 
BRANCH  19  21
ATOM     20  N   UNL     1      35.025 -22.672 -17.770  0.00  0.00    -0.244 NA
ATOM     21  C   UNL     1      36.012 -19.657 -20.473  0.00  0.00    -0.000 C 
ATOM     22  C   UNL     1      34.675 -19.971 -20.249  0.00  0.00    -0.001 C 
ATOM     23  C   UNL     1      34.326 -20.986 -19.342  0.00  0.00    +0.017 C 
ATOM     24  C   UNL     1      37.004 -20.352 -19.791  0.00  0.00    -0.001 C 
ATOM     25  C   UNL     1      35.326 -21.695 -18.647  0.00  0.00    +0.081 C 
ATOM     26  C   UNL     1      36.656 -21.360 -18.889  0.00  0.00    +0.019 C 
ATOM     27  C   UNL     1      32.987 -21.322 -19.099  0.00  0.00    +0.003 C 
ATOM     28  C   UNL     1      32.674 -22.329 -18.196  0.00  0.00    +0.021 C 
ATOM     29  C   UNL     1      33.722 -22.967 -17.564  0.00  0.00    +0.099 C 
ENDBRANCH  19  21
ENDBRANCH   1  19
TORSDOF 6
ENDMDL
MODEL 4
REMARK VINA RESULT:     -10.9      4.386      6.716
REMARK  Name = 17754438
REMARK  6 active torsions:
REMARK  status: ('A' for Active; 'I' for Inactive)
REMARK    1  A    between atoms: N_1  and  C_19
REMARK    2  A    between atoms: C_7  and  C_12
REMARK    3  A    between atoms: N_10  and  C_15
REMARK    4  A    between atoms: C_15  and  C_16
REMARK    5  A    between atoms: C_16  and  O_17
REMARK    6  A    between atoms: C_19  and  C_21
REMARK                            x       y       z     vdW  Elec       q    Type
REMARK                         _______ _______ _______ _____ _____    ______ ____
ROOT
ATOM      1  N   UNL     1      34.169 -23.419 -16.830  0.00  0.00    -0.163 N 
ATOM      2  N   UNL     1      31.771 -23.436 -16.361  0.00  0.00    -0.378 NA
ATOM      3  N   UNL     1      35.299 -23.289 -16.105  0.00  0.00    -0.033 NA
ATOM      4  N   UNL     1      32.790 -23.056 -13.676  0.00  0.00    -0.208 NA
ATOM      5  N   UNL     1      34.949 -23.136 -14.828  0.00  0.00    -0.086 NA
ATOM      6  C   UNL     1      33.069 -23.351 -16.034  0.00  0.00    +0.267 C 
ATOM      7  C   UNL     1      30.987 -23.320 -15.265  0.00  0.00    +0.140 C 
ATOM      8  C   UNL     1      33.587 -23.171 -14.766  0.00  0.00    +0.098 C 
ATOM      9  C   UNL     1      31.474 -23.138 -13.978  0.00  0.00    +0.195 C 
ENDROOT
BRANCH   7  12
ATOM     10  N   UNL     1      27.487 -22.805 -15.760  0.00  0.00    -0.208 N 
ATOM     11  N   UNL     1      27.455 -24.138 -15.926  0.00  0.00    -0.176 NA
ATOM     12  C   UNL     1      29.573 -23.397 -15.499  0.00  0.00    +0.064 C 
ATOM     13  C   UNL     1      28.732 -22.311 -15.502  0.00  0.00    +0.088 C 
ATOM     14  C   UNL     1      28.733 -24.494 -15.765  0.00  0.00    +0.121 C 
BRANCH  10  15
ATOM     15  C   UNL     1      26.267 -22.040 -15.866  0.00  0.00    +0.148 C 
BRANCH  15  16
ATOM     16  C   UNL     1      25.985 -21.584 -17.291  0.00  0.00    +0.161 C 
BRANCH  16  17
ATOM     17  O   UNL     1      26.016 -20.164 -17.355  0.00  0.00    -0.380 OA
ATOM     18  H   UNL     1      25.110 -19.821 -17.361  0.00  0.00    +0.211 HD
ENDBRANCH  16  17
ENDBRANCH  15  16
ENDBRANCH  10  15
ENDBRANCH   7  12
BRANCH   1  19
ATOM     19  C   UNL     1      34.230 -23.605 -18.283  0.00  0.00    +0.145 C 
BRANCH  19  21
ATOM     20  N   UNL     1      34.761 -18.677 -21.015  0.00  0.00    -0.244 NA
ATOM     21  C   UNL     1      34.380 -22.308 -19.003  0.00  0.00    -0.000 C 
ATOM     22  C   UNL     1      35.646 -21.778 -19.235  0.00  0.00    -0.001 C 
ATOM     23  C   UNL     1      35.792 -20.555 -19.912  0.00  0.00    +0.017 C 
ATOM     24  C   UNL     1      33.257 -21.619 -19.445  0.00  0.00    -0.001 C 
ATOM     25  C   UNL     1      34.656 -19.851 -20.363  0.00  0.00    +0.081 C 
ATOM     26  C   UNL     1      33.402 -20.404 -20.118  0.00  0.00    +0.019 C 
ATOM     27  C   UNL     1      37.055 -20.000 -20.159  0.00  0.00    +0.003 C 
ATOM     28  C   UNL     1      37.166 -18.790 -20.830  0.00  0.00    +0.021 C 
ATOM     29  C   UNL     1      35.998 -18.176 -21.233  0.00  0.00    +0.099 C 
ENDBRANCH  19  21
ENDBRANCH   1  19
TORSDOF 6
ENDMDL
MODEL 5
REMARK VINA RESULT:     -10.7      3.886      9.626
REMARK  Name = 17754438
REMARK  6 active torsions:
REMARK  status: ('A' for Active; 'I' for Inactive)
REMARK    1  A    between atoms: N_1  and  C_19
REMARK    2  A    between atoms: C_7  and  C_12
REMARK    3  A    between atoms: N_10  and  C_15
REMARK    4  A    between atoms: C_15  and  C_16
REMARK    5  A    between atoms: C_16  and  O_17
REMARK    6  A    between atoms: C_19  and  C_21
REMARK                            x       y       z     vdW  Elec       q    Type
REMARK                         _______ _______ _______ _____ _____    ______ ____
ROOT
ATOM      1  N   UNL     1      35.195 -21.702 -18.887  0.00  0.00    -0.163 N 
ATOM      2  N   UNL     1      34.926 -20.219 -20.810  0.00  0.00    -0.378 NA
ATOM      3  N   UNL     1      36.122 -21.887 -17.925  0.00  0.00    -0.033 NA
ATOM      4  N   UNL     1      37.484 -19.282 -19.825  0.00  0.00    -0.208 NA
ATOM      5  N   UNL     1      37.107 -21.014 -18.136  0.00  0.00    -0.086 NA
ATOM      6  C   UNL     1      35.564 -20.707 -19.735  0.00  0.00    +0.267 C 
ATOM      7  C   UNL     1      35.638 -19.222 -21.384  0.00  0.00    +0.140 C 
ATOM      8  C   UNL     1      36.782 -20.282 -19.240  0.00  0.00    +0.098 C 
ATOM      9  C   UNL     1      36.863 -18.772 -20.913  0.00  0.00    +0.195 C 
ENDROOT
BRANCH   7  12
ATOM     10  N   UNL     1      34.392 -17.125 -23.994  0.00  0.00    -0.208 N 
ATOM     11  N   UNL     1      33.968 -18.282 -24.532  0.00  0.00    -0.176 NA
ATOM     12  C   UNL     1      35.047 -18.625 -22.548  0.00  0.00    +0.064 C 
ATOM     13  C   UNL     1      35.044 -17.276 -22.806  0.00  0.00    +0.088 C 
ATOM     14  C   UNL     1      34.371 -19.194 -23.643  0.00  0.00    +0.121 C 
BRANCH  10  15
ATOM     15  C   UNL     1      34.140 -15.881 -24.682  0.00  0.00    +0.148 C 
BRANCH  15  16
ATOM     16  C   UNL     1      33.923 -14.718 -23.723  0.00  0.00    +0.161 C 
BRANCH  16  17
ATOM     17  O   UNL     1      32.761 -13.993 -24.105  0.00  0.00    -0.380 OA
ATOM     18  H   UNL     1      32.640 -14.058 -25.064  0.00  0.00    +0.211 HD
ENDBRANCH  16  17
ENDBRANCH  15  16
ENDBRANCH  10  15
ENDBRANCH   7  12
BRANCH   1  19
ATOM     19  C   UNL     1      33.980 -22.523 -18.922  0.00  0.00    +0.145 C 
BRANCH  19  21
ATOM     20  N   UNL     1      32.104 -23.679 -13.709  0.00  0.00    -0.244 NA
ATOM     21  C   UNL     1      33.476 -22.827 -17.552  0.00  0.00    -0.000 C 
ATOM     22  C   UNL     1      32.116 -22.735 -17.269  0.00  0.00    -0.001 C 
ATOM     23  C   UNL     1      31.637 -23.020 -15.979  0.00  0.00    +0.017 C 
ATOM     24  C   UNL     1      34.361 -23.201 -16.548  0.00  0.00    -0.001 C 
ATOM     25  C   UNL     1      32.530 -23.400 -14.956  0.00  0.00    +0.081 C 
ATOM     26  C   UNL     1      33.885 -23.484 -15.266  0.00  0.00    +0.019 C 
ATOM     27  C   UNL     1      30.273 -22.936 -15.668  0.00  0.00    +0.003 C 
ATOM     28  C   UNL     1      29.832 -23.223 -14.384  0.00  0.00    +0.021 C 
ATOM     29  C   UNL     1      30.780 -23.587 -13.450  0.00  0.00    +0.099 C 
ENDBRANCH  19  21
ENDBRANCH   1  19
TORSDOF 6
ENDMDL
MODEL 6
REMARK VINA RESULT:     -10.6      1.485      2.182
REMARK  Name = 17754438
REMARK  6 active torsions:
REMARK  status: ('A' for Active; 'I' for Inactive)
REMARK    1  A    between atoms: N_1  and  C_19
REMARK    2  A    between atoms: C_7  and  C_12
REMARK    3  A    between atoms: N_10  and  C_15
REMARK    4  A    between atoms: C_15  and  C_16
REMARK    5  A    between atoms: C_16  and  O_17
REMARK    6  A    between atoms: C_19  and  C_21
REMARK                            x       y       z     vdW  Elec       q    Type
REMARK                         _______ _______ _______ _____ _____    ______ ____
ROOT
ATOM      1  N   UNL     1      34.534 -21.564 -19.071  0.00  0.00    -0.163 N 
ATOM      2  N   UNL     1      35.264 -22.814 -17.102  0.00  0.00    -0.378 NA
ATOM      3  N   UNL     1      33.352 -21.189 -19.599  0.00  0.00    -0.033 NA
ATOM      4  N   UNL     1      32.395 -22.936 -16.722  0.00  0.00    -0.208 NA
ATOM      5  N   UNL     1      32.386 -21.645 -18.803  0.00  0.00    -0.086 NA
ATOM      6  C   UNL     1      34.354 -22.269 -17.923  0.00  0.00    +0.267 C 
ATOM      7  C   UNL     1      34.666 -23.436 -16.060  0.00  0.00    +0.140 C 
ATOM      8  C   UNL     1      32.981 -22.309 -17.770  0.00  0.00    +0.098 C 
ATOM      9  C   UNL     1      33.291 -23.495 -15.878  0.00  0.00    +0.195 C 
ENDROOT
BRANCH   7  12
ATOM     10  N   UNL     1      37.362 -24.578 -14.014  0.00  0.00    -0.208 N 
ATOM     11  N   UNL     1      36.417 -25.340 -13.436  0.00  0.00    -0.176 NA
ATOM     12  C   UNL     1      35.548 -24.057 -15.115  0.00  0.00    +0.064 C 
ATOM     13  C   UNL     1      36.893 -23.792 -15.026  0.00  0.00    +0.088 C 
ATOM     14  C   UNL     1      35.312 -25.017 -14.113  0.00  0.00    +0.121 C 
BRANCH  10  15
ATOM     15  C   UNL     1      38.725 -24.647 -13.543  0.00  0.00    +0.148 C 
BRANCH  15  16
ATOM     16  C   UNL     1      39.591 -25.566 -14.394  0.00  0.00    +0.161 C 
BRANCH  16  17
ATOM     17  O   UNL     1      40.929 -25.085 -14.409  0.00  0.00    -0.380 OA
ATOM     18  H   UNL     1      41.541 -25.834 -14.471  0.00  0.00    +0.211 HD
ENDBRANCH  16  17
ENDBRANCH  15  16
ENDBRANCH  10  15
ENDBRANCH   7  12
BRANCH   1  19
ATOM     19  C   UNL     1      35.796 -21.205 -19.728  0.00  0.00    +0.145 C 
BRANCH  19  21
ATOM     20  N   UNL     1      35.233 -16.672 -23.069  0.00  0.00    -0.244 NA
ATOM     21  C   UNL     1      35.641 -20.016 -20.615  0.00  0.00    -0.000 C 
ATOM     22  C   UNL     1      34.924 -20.117 -21.804  0.00  0.00    -0.001 C 
ATOM     23  C   UNL     1      34.777 -18.999 -22.642  0.00  0.00    +0.017 C 
ATOM     24  C   UNL     1      36.213 -18.800 -20.260  0.00  0.00    -0.001 C 
ATOM     25  C   UNL     1      35.355 -17.762 -22.288  0.00  0.00    +0.081 C 
ATOM     26  C   UNL     1      36.066 -17.689 -21.093  0.00  0.00    +0.019 C 
ATOM     27  C   UNL     1      34.060 -19.073 -23.844  0.00  0.00    +0.003 C 
ATOM     28  C   UNL     1      33.933 -17.951 -24.651  0.00  0.00    +0.021 C 
ATOM     29  C   UNL     1      34.533 -16.786 -24.221  0.00  0.00    +0.099 C 
ENDBRANCH  19  21
ENDBRANCH   1  19
TORSDOF 6
ENDMDL
MODEL 7
REMARK VINA RESULT:     -10.6      3.652      7.032
REMARK  Name = 17754438
REMARK  6 active torsions:
REMARK  status: ('A' for Active; 'I' for Inactive)
REMARK    1  A    between atoms: N_1  and  C_19
REMARK    2  A    between atoms: C_7  and  C_12
REMARK    3  A    between atoms: N_10  and  C_15
REMARK    4  A    between atoms: C_15  and  C_16
REMARK    5  A    between atoms: C_16  and  O_17
REMARK    6  A    between atoms: C_19  and  C_21
REMARK                            x       y       z     vdW  Elec       q    Type
REMARK                         _______ _______ _______ _____ _____    ______ ____
ROOT
ATOM      1  N   UNL     1      34.541 -15.472 -23.460  0.00  0.00    -0.163 N 
ATOM      2  N   UNL     1      35.115 -17.417 -22.098  0.00  0.00    -0.378 NA
ATOM      3  N   UNL     1      33.936 -15.261 -24.646  0.00  0.00    -0.033 NA
ATOM      4  N   UNL     1      33.855 -18.747 -24.342  0.00  0.00    -0.208 NA
ATOM      5  N   UNL     1      33.594 -16.449 -25.146  0.00  0.00    -0.086 NA
ATOM      6  C   UNL     1      34.600 -16.798 -23.170  0.00  0.00    +0.267 C 
ATOM      7  C   UNL     1      34.971 -18.759 -22.197  0.00  0.00    +0.140 C 
ATOM      8  C   UNL     1      33.993 -17.402 -24.255  0.00  0.00    +0.098 C 
ATOM      9  C   UNL     1      34.367 -19.396 -23.272  0.00  0.00    +0.195 C 
ENDROOT
BRANCH   7  12
ATOM     10  N   UNL     1      35.620 -20.968 -19.466  0.00  0.00    -0.208 N 
ATOM     11  N   UNL     1      36.833 -20.390 -19.468  0.00  0.00    -0.176 NA
ATOM     12  C   UNL     1      35.490 -19.524 -21.100  0.00  0.00    +0.064 C 
ATOM     13  C   UNL     1      34.778 -20.485 -20.425  0.00  0.00    +0.088 C 
ATOM     14  C   UNL     1      36.747 -19.508 -20.468  0.00  0.00    +0.121 C 
BRANCH  10  15
ATOM     15  C   UNL     1      35.320 -22.002 -18.505  0.00  0.00    +0.148 C 
BRANCH  15  16
ATOM     16  C   UNL     1      33.875 -22.475 -18.587  0.00  0.00    +0.161 C 
BRANCH  16  17
ATOM     17  O   UNL     1      33.835 -23.810 -19.075  0.00  0.00    -0.380 OA
ATOM     18  H   UNL     1      32.965 -23.985 -19.467  0.00  0.00    +0.211 HD
ENDBRANCH  16  17
ENDBRANCH  15  16
ENDBRANCH  10  15
ENDBRANCH   7  12
BRANCH   1  19
ATOM     19  C   UNL     1      35.034 -14.344 -22.662  0.00  0.00    +0.145 C 
BRANCH  19  21
ATOM     20  N   UNL     1      31.041 -10.408 -21.893  0.00  0.00    -0.244 NA
ATOM     21  C   UNL     1      33.986 -13.301 -22.467  0.00  0.00    -0.000 C 
ATOM     22  C   UNL     1      34.056 -12.099 -23.165  0.00  0.00    -0.001 C 
ATOM     23  C   UNL     1      33.070 -11.113 -22.983  0.00  0.00    +0.017 C 
ATOM     24  C   UNL     1      32.935 -13.523 -21.585  0.00  0.00    -0.001 C 
ATOM     25  C   UNL     1      32.001 -11.332 -22.090  0.00  0.00    +0.081 C 
ATOM     26  C   UNL     1      31.956 -12.543 -21.405  0.00  0.00    +0.019 C 
ATOM     27  C   UNL     1      33.116  -9.895 -23.674  0.00  0.00    +0.003 C 
ATOM     28  C   UNL     1      32.128  -8.941 -23.472  0.00  0.00    +0.021 C 
ATOM     29  C   UNL     1      31.122  -9.245 -22.579  0.00  0.00    +0.099 C 
ENDBRANCH  19  21
ENDBRANCH   1  19
TORSDOF 6
ENDMDL
MODEL 8
REMARK VINA RESULT:     -10.3      7.228      8.689
REMARK  Name = 17754438
REMARK  6 active torsions:
REMARK  status: ('A' for Active; 'I' for Inactive)
REMARK    1  A    between atoms: N_1  and  C_19
REMARK    2  A    between atoms: C_7  and  C_12
REMARK    3  A    between atoms: N_10  and  C_15
REMARK    4  A    between atoms: C_15  and  C_16
REMARK    5  A    between atoms: C_16  and  O_17
REMARK    6  A    between atoms: C_19  and  C_21
REMARK                            x       y       z     vdW  Elec       q    Type
REMARK                         _______ _______ _______ _____ _____    ______ ____
ROOT
ATOM      1  N   UNL     1      34.827 -24.000 -12.990  0.00  0.00    -0.163 N 
ATOM      2  N   UNL     1      36.843 -25.103 -13.821  0.00  0.00    -0.378 NA
ATOM      3  N   UNL     1      34.226 -23.848 -11.793  0.00  0.00    -0.033 NA
ATOM      4  N   UNL     1      37.051 -25.759 -11.007  0.00  0.00    -0.208 NA
ATOM      5  N   UNL     1      34.967 -24.480 -10.883  0.00  0.00    -0.086 NA
ATOM      6  C   UNL     1      35.966 -24.732 -12.876  0.00  0.00    +0.267 C 
ATOM      7  C   UNL     1      37.850 -25.831 -13.288  0.00  0.00    +0.140 C 
ATOM      8  C   UNL     1      36.036 -25.028 -11.528  0.00  0.00    +0.098 C 
ATOM      9  C   UNL     1      37.951 -26.146 -11.940  0.00  0.00    +0.195 C 
ENDROOT
BRANCH   7  12
ATOM     10  N   UNL     1      39.903 -27.508 -15.683  0.00  0.00    -0.208 N 
ATOM     11  N   UNL     1      40.724 -26.459 -15.507  0.00  0.00    -0.176 NA
ATOM     12  C   UNL     1      38.850 -26.282 -14.213  0.00  0.00    +0.064 C 
ATOM     13  C   UNL     1      38.766 -27.451 -14.931  0.00  0.00    +0.088 C 
ATOM     14  C   UNL     1      40.076 -25.714 -14.608  0.00  0.00    +0.121 C 
BRANCH  10  15
ATOM     15  C   UNL     1      40.267 -28.556 -16.607  0.00  0.00    +0.148 C 
BRANCH  15  16
ATOM     16  C   UNL     1      41.515 -29.311 -16.171  0.00  0.00    +0.161 C 
BRANCH  16  17
ATOM     17  O   UNL     1      41.728 -29.122 -14.778  0.00  0.00    -0.380 OA
ATOM     18  H   UNL     1      41.803 -29.985 -14.342  0.00  0.00    +0.211 HD
ENDBRANCH  16  17
ENDBRANCH  15  16
ENDBRANCH  10  15
ENDBRANCH   7  12
BRANCH   1  19
ATOM     19  C   UNL     1      34.243 -23.409 -14.200  0.00  0.00    +0.145 C 
BRANCH  19  21
ATOM     20  N   UNL     1      28.818 -24.894 -14.820  0.00  0.00    -0.244 NA
ATOM     21  C   UNL     1      32.812 -23.793 -14.371  0.00  0.00    -0.000 C 
ATOM     22  C   UNL     1      31.984 -23.054 -15.211  0.00  0.00    -0.001 C 
ATOM     23  C   UNL     1      30.635 -23.413 -15.373  0.00  0.00    +0.017 C 
ATOM     24  C   UNL     1      32.297 -24.890 -13.690  0.00  0.00    -0.001 C 
ATOM     25  C   UNL     1      30.106 -24.524 -14.686  0.00  0.00    +0.081 C 
ATOM     26  C   UNL     1      30.956 -25.245 -13.852  0.00  0.00    +0.019 C 
ATOM     27  C   UNL     1      29.780 -22.686 -16.213  0.00  0.00    +0.003 C 
ATOM     28  C   UNL     1      28.452 -23.065 -16.353  0.00  0.00    +0.021 C 
ATOM     29  C   UNL     1      28.025 -24.167 -15.640  0.00  0.00    +0.099 C 
ENDBRANCH  19  21
ENDBRANCH   1  19
TORSDOF 6
ENDMDL
MODEL 9
REMARK VINA RESULT:     -10.2      6.250     10.712
REMARK  Name = 17754438
REMARK  6 active torsions:
REMARK  status: ('A' for Active; 'I' for Inactive)
REMARK    1  A    between atoms: N_1  and  C_19
REMARK    2  A    between atoms: C_7  and  C_12
REMARK    3  A    between atoms: N_10  and  C_15
REMARK    4  A    between atoms: C_15  and  C_16
REMARK    5  A    between atoms: C_16  and  O_17
REMARK    6  A    between atoms: C_19  and  C_21
REMARK                            x       y       z     vdW  Elec       q    Type
REMARK                         _______ _______ _______ _____ _____    ______ ____
ROOT
ATOM      1  N   UNL     1      33.683 -11.367 -23.969  0.00  0.00    -0.163 N 
ATOM      2  N   UNL     1      34.239 -13.494 -22.903  0.00  0.00    -0.378 NA
ATOM      3  N   UNL     1      33.260 -10.972 -25.187  0.00  0.00    -0.033 NA
ATOM      4  N   UNL     1      33.518 -14.444 -25.543  0.00  0.00    -0.208 NA
ATOM      5  N   UNL     1      33.139 -12.060 -25.948  0.00  0.00    -0.086 NA
ATOM      6  C   UNL     1      33.841 -12.716 -23.920  0.00  0.00    +0.267 C 
ATOM      7  C   UNL     1      34.263 -14.796 -23.270  0.00  0.00    +0.140 C 
ATOM      8  C   UNL     1      33.490 -13.137 -25.189  0.00  0.00    +0.098 C 
ATOM      9  C   UNL     1      33.918 -15.252 -24.535  0.00  0.00    +0.195 C 
ENDROOT
BRANCH   7  12
ATOM     10  N   UNL     1      35.398 -17.544 -21.290  0.00  0.00    -0.208 N 
ATOM     11  N   UNL     1      35.201 -16.703 -20.260  0.00  0.00    -0.176 NA
ATOM     12  C   UNL     1      34.677 -15.722 -22.255  0.00  0.00    +0.064 C 
ATOM     13  C   UNL     1      35.099 -17.005 -22.507  0.00  0.00    +0.088 C 
ATOM     14  C   UNL     1      34.761 -15.592 -20.856  0.00  0.00    +0.121 C 
BRANCH  10  15
ATOM     15  C   UNL     1      35.886 -18.879 -21.041  0.00  0.00    +0.148 C 
BRANCH  15  16
ATOM     16  C   UNL     1      37.388 -18.914 -20.790  0.00  0.00    +0.161 C 
BRANCH  16  17
ATOM     17  O   UNL     1      37.659 -18.518 -19.452  0.00  0.00    -0.380 OA
ATOM     18  H   UNL     1      36.824 -18.365 -18.984  0.00  0.00    +0.211 HD
ENDBRANCH  16  17
ENDBRANCH  15  16
ENDBRANCH  10  15
ENDBRANCH   7  12
BRANCH   1  19
ATOM     19  C   UNL     1      33.910 -10.386 -22.902  0.00  0.00    +0.145 C 
BRANCH  19  21
ATOM     20  N   UNL     1      31.604  -5.366 -24.131  0.00  0.00    -0.244 NA
ATOM     21  C   UNL     1      33.312  -9.060 -23.230  0.00  0.00    -0.000 C 
ATOM     22  C   UNL     1      34.118  -8.023 -23.690  0.00  0.00    -0.001 C 
ATOM     23  C   UNL     1      33.557  -6.771 -23.999  0.00  0.00    +0.017 C 
ATOM     24  C   UNL     1      31.946  -8.852 -23.076  0.00  0.00    -0.001 C 
ATOM     25  C   UNL     1      32.173  -6.553 -23.845  0.00  0.00    +0.081 C 
ATOM     26  C   UNL     1      31.390  -7.608 -23.383  0.00  0.00    +0.019 C 
ATOM     27  C   UNL     1      34.345  -5.710 -24.464  0.00  0.00    +0.003 C 
ATOM     28  C   UNL     1      33.763  -4.486 -24.760  0.00  0.00    +0.021 C 
ATOM     29  C   UNL     1      32.400  -4.368 -24.578  0.00  0.00    +0.099 C 
ENDBRANCH  19  21
ENDBRANCH   1  19
TORSDOF 6
ENDMDL
