MODEL 1
REMARK VINA RESULT:     -12.1      0.000      0.000
REMARK  Name = 448407
REMARK  4 active torsions:
REMARK  status: ('A' for Active; 'I' for Inactive)
REMARK    1  A    between atoms: C_1  and  N_8
REMARK    2  A    between atoms: C_2  and  C_23
REMARK    3  A    between atoms: N_22  and  C_25
REMARK    4  A    between atoms: C_25  and  C_28
REMARK                            x       y       z     vdW  Elec       q    Type
REMARK                         _______ _______ _______ _____ _____    ______ ____
ROOT
ATOM      1  C   UNL     1      35.767 -18.710 -21.071  0.00  0.00    +0.090 C 
ATOM      2  C   UNL     1      34.766 -20.559 -19.844  0.00  0.00    +0.055 C 
ATOM      3  C   UNL     1      34.632 -19.404 -20.614  0.00  0.00    +0.023 C 
ATOM      4  C   UNL     1      37.038 -19.208 -20.735  0.00  0.00    +0.018 C 
ATOM      5  C   UNL     1      36.034 -21.039 -19.519  0.00  0.00    +0.005 C 
ATOM      6  C   UNL     1      37.171 -20.363 -19.965  0.00  0.00    +0.002 C 
ENDROOT
BRANCH   1   8
ATOM      7  O   UNL     1      34.123 -13.783 -20.945  0.00  0.00    -0.207 OA
ATOM      8  N   UNL     1      35.634 -17.560 -21.839  0.00  0.00    -0.137 N 
ATOM      9  N   UNL     1      35.310 -17.544 -23.160  0.00  0.00    -0.215 N 
ATOM     10  N   UNL     1      35.248 -16.381 -21.206  0.00  0.00    -0.143 NA
ATOM     11  N   UNL     1      34.193 -15.779 -24.458  0.00  0.00    -0.309 NA
ATOM     12  N   UNL     1      33.594 -13.807 -23.202  0.00  0.00    -0.251 NA
ATOM     13  N   UNL     1      33.113 -13.940 -25.460  0.00  0.00    -0.283 N 
ATOM     14  C   UNL     1      34.704 -16.363 -23.438  0.00  0.00    +0.243 C 
ATOM     15  C   UNL     1      34.699 -15.669 -22.141  0.00  0.00    +0.241 C 
ATOM     16  C   UNL     1      34.110 -14.327 -22.040  0.00  0.00    +0.239 C 
ATOM     17  C   UNL     1      33.642 -14.502 -24.321  0.00  0.00    +0.208 C 
ATOM     18  H   UNL     1      35.485 -18.267 -23.804  0.00  0.00    +0.175 HD
ATOM     19  H   UNL     1      33.134 -14.437 -26.311  0.00  0.00    +0.156 HD
ATOM     20  H   UNL     1      32.711 -13.042 -25.425  0.00  0.00    +0.156 HD
ENDBRANCH   1   8
BRANCH   2  23
ATOM     21  O   UNL     1      32.514 -21.191 -20.015  0.00  0.00    -0.270 OA
ATOM     22  N   UNL     1      33.714 -22.035 -18.219  0.00  0.00    -0.297 N 
ATOM     23  C   UNL     1      33.582 -21.265 -19.381  0.00  0.00    +0.246 C 
ATOM     24  H   UNL     1      34.588 -22.048 -17.767  0.00  0.00    +0.150 HD
BRANCH  22  25
ATOM     25  C   UNL     1      32.637 -22.811 -17.649  0.00  0.00    +0.117 C 
BRANCH  25  28
ATOM     26 CL   UNL     1      30.879 -23.883 -12.874  0.00  0.00    -0.082 Cl
ATOM     27 CL   UNL     1      36.133 -24.203 -14.060  0.00  0.00    -0.082 Cl
ATOM     28  C   UNL     1      32.931 -23.227 -16.236  0.00  0.00    -0.001 C 
ATOM     29  C   UNL     1      34.242 -23.490 -15.855  0.00  0.00    +0.009 C 
ATOM     30  C   UNL     1      31.889 -23.345 -15.323  0.00  0.00    +0.009 C 
ATOM     31  C   UNL     1      32.161 -23.732 -14.011  0.00  0.00    +0.058 C 
ATOM     32  C   UNL     1      34.514 -23.876 -14.543  0.00  0.00    +0.058 C 
ATOM     33  C   UNL     1      33.474 -23.998 -13.620  0.00  0.00    +0.023 C 
ENDBRANCH  25  28
ENDBRANCH  22  25
ENDBRANCH   2  23
TORSDOF 4
ENDMDL
MODEL 2
REMARK VINA RESULT:     -12.1      0.153      1.671
REMARK  Name = 448407
REMARK  4 active torsions:
REMARK  status: ('A' for Active; 'I' for Inactive)
REMARK    1  A    between atoms: C_1  and  N_8
REMARK    2  A    between atoms: C_2  and  C_23
REMARK    3  A    between atoms: N_22  and  C_25
REMARK    4  A    between atoms: C_25  and  C_28
REMARK                            x       y       z     vdW  Elec       q    Type
REMARK                         _______ _______ _______ _____ _____    ______ ____
ROOT
ATOM      1  C   UNL     1      35.774 -18.715 -21.055  0.00  0.00    +0.090 C 
ATOM      2  C   UNL     1      34.776 -20.571 -19.835  0.00  0.00    +0.055 C 
ATOM      3  C   UNL     1      34.641 -19.414 -20.603  0.00  0.00    +0.023 C 
ATOM      4  C   UNL     1      37.046 -19.208 -20.715  0.00  0.00    +0.018 C 
ATOM      5  C   UNL     1      36.045 -21.046 -19.508  0.00  0.00    +0.005 C 
ATOM      6  C   UNL     1      37.181 -20.365 -19.948  0.00  0.00    +0.002 C 
ENDROOT
BRANCH   1   8
ATOM      7  O   UNL     1      34.100 -13.799 -20.926  0.00  0.00    -0.207 OA
ATOM      8  N   UNL     1      35.640 -17.563 -21.821  0.00  0.00    -0.137 N 
ATOM      9  N   UNL     1      35.324 -17.546 -23.143  0.00  0.00    -0.215 N 
ATOM     10  N   UNL     1      35.242 -16.389 -21.187  0.00  0.00    -0.143 NA
ATOM     11  N   UNL     1      34.205 -15.784 -24.444  0.00  0.00    -0.309 NA
ATOM     12  N   UNL     1      33.585 -13.819 -23.187  0.00  0.00    -0.251 NA
ATOM     13  N   UNL     1      33.120 -13.949 -25.448  0.00  0.00    -0.283 N 
ATOM     14  C   UNL     1      34.712 -16.368 -23.422  0.00  0.00    +0.243 C 
ATOM     15  C   UNL     1      34.695 -15.677 -22.123  0.00  0.00    +0.241 C 
ATOM     16  C   UNL     1      34.097 -14.339 -22.022  0.00  0.00    +0.239 C 
ATOM     17  C   UNL     1      33.645 -14.511 -24.307  0.00  0.00    +0.208 C 
ATOM     18  H   UNL     1      35.508 -18.266 -23.789  0.00  0.00    +0.175 HD
ATOM     19  H   UNL     1      33.151 -14.443 -26.300  0.00  0.00    +0.156 HD
ATOM     20  H   UNL     1      32.713 -13.054 -25.413  0.00  0.00    +0.156 HD
ENDBRANCH   1   8
BRANCH   2  23
ATOM     21  O   UNL     1      32.527 -21.208 -20.014  0.00  0.00    -0.270 OA
ATOM     22  N   UNL     1      33.726 -22.058 -18.220  0.00  0.00    -0.297 N 
ATOM     23  C   UNL     1      33.593 -21.283 -19.378  0.00  0.00    +0.246 C 
ATOM     24  H   UNL     1      34.599 -22.071 -17.767  0.00  0.00    +0.150 HD
BRANCH  22  25
ATOM     25  C   UNL     1      32.650 -22.839 -17.655  0.00  0.00    +0.117 C 
BRANCH  25  28
ATOM     26 CL   UNL     1      36.115 -23.700 -13.875  0.00  0.00    -0.082 Cl
ATOM     27 CL   UNL     1      30.822 -24.290 -13.009  0.00  0.00    -0.082 Cl
ATOM     28  C   UNL     1      32.926 -23.230 -16.232  0.00  0.00    -0.001 C 
ATOM     29  C   UNL     1      31.868 -23.540 -15.386  0.00  0.00    +0.009 C 
ATOM     30  C   UNL     1      34.238 -23.277 -15.774  0.00  0.00    +0.009 C 
ATOM     31  C   UNL     1      34.495 -23.639 -14.452  0.00  0.00    +0.058 C 
ATOM     32  C   UNL     1      32.124 -23.903 -14.064  0.00  0.00    +0.058 C 
ATOM     33  C   UNL     1      33.438 -23.952 -13.596  0.00  0.00    +0.023 C 
ENDBRANCH  25  28
ENDBRANCH  22  25
ENDBRANCH   2  23
TORSDOF 4
ENDMDL
MODEL 3
REMARK VINA RESULT:     -12.1      4.215      9.771
REMARK  Name = 448407
REMARK  4 active torsions:
REMARK  status: ('A' for Active; 'I' for Inactive)
REMARK    1  A    between atoms: C_1  and  N_8
REMARK    2  A    between atoms: C_2  and  C_23
REMARK    3  A    between atoms: N_22  and  C_25
REMARK    4  A    between atoms: C_25  and  C_28
REMARK                            x       y       z     vdW  Elec       q    Type
REMARK                         _______ _______ _______ _____ _____    ______ ____
ROOT
ATOM      1  C   UNL     1      34.572 -21.988 -18.350  0.00  0.00    +0.090 C 
ATOM      2  C   UNL     1      34.970 -20.561 -20.282  0.00  0.00    +0.055 C 
ATOM      3  C   UNL     1      34.112 -21.348 -19.515  0.00  0.00    +0.023 C 
ATOM      4  C   UNL     1      35.916 -21.816 -17.977  0.00  0.00    +0.018 C 
ATOM      5  C   UNL     1      36.301 -20.401 -19.897  0.00  0.00    +0.005 C 
ATOM      6  C   UNL     1      36.774 -21.029 -18.745  0.00  0.00    +0.002 C 
ENDROOT
BRANCH   1   8
ATOM      7  O   UNL     1      29.638 -22.472 -16.797  0.00  0.00    -0.207 OA
ATOM      8  N   UNL     1      33.717 -22.771 -17.585  0.00  0.00    -0.137 N 
ATOM      9  N   UNL     1      34.055 -23.364 -16.409  0.00  0.00    -0.215 N 
ATOM     10  N   UNL     1      32.349 -22.519 -17.653  0.00  0.00    -0.143 NA
ATOM     11  N   UNL     1      32.609 -23.995 -14.522  0.00  0.00    -0.309 NA
ATOM     12  N   UNL     1      30.268 -23.485 -14.810  0.00  0.00    -0.251 NA
ATOM     13  N   UNL     1      31.009 -24.496 -12.866  0.00  0.00    -0.283 N 
ATOM     14  C   UNL     1      32.929 -23.521 -15.669  0.00  0.00    +0.243 C 
ATOM     15  C   UNL     1      31.876 -22.958 -16.528  0.00  0.00    +0.241 C 
ATOM     16  C   UNL     1      30.485 -22.949 -16.057  0.00  0.00    +0.239 C 
ATOM     17  C   UNL     1      31.274 -23.968 -14.109  0.00  0.00    +0.208 C 
ATOM     18  H   UNL     1      34.962 -23.634 -16.140  0.00  0.00    +0.175 HD
ATOM     19  H   UNL     1      31.742 -24.864 -12.320  0.00  0.00    +0.156 HD
ATOM     20  H   UNL     1      30.087 -24.505 -12.522  0.00  0.00    +0.156 HD
ENDBRANCH   1   8
BRANCH   2  23
ATOM     21  O   UNL     1      33.259 -19.876 -21.731  0.00  0.00    -0.270 OA
ATOM     22  N   UNL     1      35.429 -19.301 -22.314  0.00  0.00    -0.297 N 
ATOM     23  C   UNL     1      34.477 -19.905 -21.483  0.00  0.00    +0.246 C 
ATOM     24  H   UNL     1      36.376 -19.363 -22.057  0.00  0.00    +0.150 HD
BRANCH  22  25
ATOM     25  C   UNL     1      35.093 -18.593 -23.527  0.00  0.00    +0.117 C 
BRANCH  25  28
ATOM     26 CL   UNL     1      33.373 -14.030 -25.333  0.00  0.00    -0.082 Cl
ATOM     27 CL   UNL     1      34.738 -14.655 -20.150  0.00  0.00    -0.082 Cl
ATOM     28  C   UNL     1      34.743 -17.157 -23.262  0.00  0.00    -0.001 C 
ATOM     29  C   UNL     1      34.887 -16.639 -21.980  0.00  0.00    +0.009 C 
ATOM     30  C   UNL     1      34.277 -16.360 -24.301  0.00  0.00    +0.009 C 
ATOM     31  C   UNL     1      33.951 -15.026 -24.055  0.00  0.00    +0.058 C 
ATOM     32  C   UNL     1      34.562 -15.306 -21.733  0.00  0.00    +0.058 C 
ATOM     33  C   UNL     1      34.093 -14.498 -22.770  0.00  0.00    +0.023 C 
ENDBRANCH  25  28
ENDBRANCH  22  25
ENDBRANCH   2  23
TORSDOF 4
ENDMDL
MODEL 4
REMARK VINA RESULT:     -12.0      5.638     10.689
REMARK  Name = 448407
REMARK  4 active torsions:
REMARK  status: ('A' for Active; 'I' for Inactive)
REMARK    1  A    between atoms: C_1  and  N_8
REMARK    2  A    between atoms: C_2  and  C_23
REMARK    3  A    between atoms: N_22  and  C_25
REMARK    4  A    between atoms: C_25  and  C_28
REMARK                            x       y       z     vdW  Elec       q    Type
REMARK                         _______ _______ _______ _____ _____    ______ ____
ROOT
ATOM      1  C   UNL     1      32.642 -24.560 -13.662  0.00  0.00    +0.090 C 
ATOM      2  C   UNL     1      31.184 -23.574 -15.344  0.00  0.00    +0.055 C 
ATOM      3  C   UNL     1      32.459 -23.781 -14.818  0.00  0.00    +0.023 C 
ATOM      4  C   UNL     1      31.511 -25.127 -13.049  0.00  0.00    +0.018 C 
ATOM      5  C   UNL     1      30.073 -24.143 -14.723  0.00  0.00    +0.005 C 
ATOM      6  C   UNL     1      30.236 -24.920 -13.576  0.00  0.00    +0.002 C 
ENDROOT
BRANCH   1   8
ATOM      7  O   UNL     1      35.299 -24.975  -9.217  0.00  0.00    -0.207 OA
ATOM      8  N   UNL     1      33.913 -24.768 -13.139  0.00  0.00    -0.137 N 
ATOM      9  N   UNL     1      35.061 -24.282 -13.680  0.00  0.00    -0.215 N 
ATOM     10  N   UNL     1      34.039 -24.963 -11.765  0.00  0.00    -0.143 NA
ATOM     11  N   UNL     1      37.191 -23.750 -12.570  0.00  0.00    -0.309 NA
ATOM     12  N   UNL     1      37.233 -24.149 -10.190  0.00  0.00    -0.251 NA
ATOM     13  N   UNL     1      39.107 -23.324 -11.267  0.00  0.00    -0.283 N 
ATOM     14  C   UNL     1      35.976 -24.142 -12.688  0.00  0.00    +0.243 C 
ATOM     15  C   UNL     1      35.253 -24.597 -11.491  0.00  0.00    +0.241 C 
ATOM     16  C   UNL     1      35.933 -24.592 -10.189  0.00  0.00    +0.239 C 
ATOM     17  C   UNL     1      37.802 -23.759 -11.314  0.00  0.00    +0.208 C 
ATOM     18  H   UNL     1      35.205 -24.068 -14.630  0.00  0.00    +0.175 HD
ATOM     19  H   UNL     1      39.557 -23.027 -12.090  0.00  0.00    +0.156 HD
ATOM     20  H   UNL     1      39.589 -23.308 -10.409  0.00  0.00    +0.156 HD
ENDBRANCH   1   8
BRANCH   2  23
ATOM     21  O   UNL     1      29.906 -22.269 -16.814  0.00  0.00    -0.270 OA
ATOM     22  N   UNL     1      32.146 -22.564 -17.339  0.00  0.00    -0.297 N 
ATOM     23  C   UNL     1      31.013 -22.766 -16.541  0.00  0.00    +0.246 C 
ATOM     24  H   UNL     1      32.990 -22.988 -17.063  0.00  0.00    +0.150 HD
BRANCH  22  25
ATOM     25  C   UNL     1      32.141 -21.769 -18.545  0.00  0.00    +0.117 C 
BRANCH  25  28
ATOM     26 CL   UNL     1      37.272 -22.048 -17.745  0.00  0.00    -0.082 Cl
ATOM     27 CL   UNL     1      35.231 -19.257 -21.888  0.00  0.00    -0.082 Cl
ATOM     28  C   UNL     1      33.530 -21.391 -18.975  0.00  0.00    -0.001 C 
ATOM     29  C   UNL     1      33.709 -20.594 -20.099  0.00  0.00    +0.009 C 
ATOM     30  C   UNL     1      34.622 -21.843 -18.243  0.00  0.00    +0.009 C 
ATOM     31  C   UNL     1      35.912 -21.493 -18.642  0.00  0.00    +0.058 C 
ATOM     32  C   UNL     1      34.998 -20.243 -20.498  0.00  0.00    +0.058 C 
ATOM     33  C   UNL     1      36.101 -20.694 -19.770  0.00  0.00    +0.023 C 
ENDBRANCH  25  28
ENDBRANCH  22  25
ENDBRANCH   2  23
TORSDOF 4
ENDMDL
MODEL 5
REMARK VINA RESULT:     -12.0      4.689     10.242
REMARK  Name = 448407
REMARK  4 active torsions:
REMARK  status: ('A' for Active; 'I' for Inactive)
REMARK    1  A    between atoms: C_1  and  N_8
REMARK    2  A    between atoms: C_2  and  C_23
REMARK    3  A    between atoms: N_22  and  C_25
REMARK    4  A    between atoms: C_25  and  C_28
REMARK                            x       y       z     vdW  Elec       q    Type
REMARK                         _______ _______ _______ _____ _____    ______ ____
ROOT
ATOM      1  C   UNL     1      34.711 -21.951 -18.235  0.00  0.00    +0.090 C 
ATOM      2  C   UNL     1      34.738 -20.418 -20.125  0.00  0.00    +0.055 C 
ATOM      3  C   UNL     1      35.410 -21.112 -19.119  0.00  0.00    +0.023 C 
ATOM      4  C   UNL     1      33.319 -22.076 -18.387  0.00  0.00    +0.018 C 
ATOM      5  C   UNL     1      33.357 -20.553 -20.262  0.00  0.00    +0.005 C 
ATOM      6  C   UNL     1      32.647 -21.383 -19.393  0.00  0.00    +0.002 C 
ENDROOT
BRANCH   1   8
ATOM      7  O   UNL     1      34.000 -24.887 -14.008  0.00  0.00    -0.207 OA
ATOM      8  N   UNL     1      35.382 -22.644 -17.233  0.00  0.00    -0.137 N 
ATOM      9  N   UNL     1      36.537 -22.232 -16.647  0.00  0.00    -0.215 N 
ATOM     10  N   UNL     1      34.640 -23.457 -16.380  0.00  0.00    -0.143 NA
ATOM     11  N   UNL     1      37.396 -22.734 -14.398  0.00  0.00    -0.309 NA
ATOM     12  N   UNL     1      35.983 -24.157 -13.056  0.00  0.00    -0.251 NA
ATOM     13  N   UNL     1      37.985 -23.369 -12.207  0.00  0.00    -0.283 N 
ATOM     14  C   UNL     1      36.594 -22.756 -15.397  0.00  0.00    +0.243 C 
ATOM     15  C   UNL     1      35.347 -23.529 -15.295  0.00  0.00    +0.241 C 
ATOM     16  C   UNL     1      35.046 -24.258 -14.056  0.00  0.00    +0.239 C 
ATOM     17  C   UNL     1      37.074 -23.440 -13.236  0.00  0.00    +0.208 C 
ATOM     18  H   UNL     1      37.217 -21.651 -17.059  0.00  0.00    +0.175 HD
ATOM     19  H   UNL     1      38.809 -22.840 -12.313  0.00  0.00    +0.156 HD
ATOM     20  H   UNL     1      37.812 -23.846 -11.363  0.00  0.00    +0.156 HD
ENDBRANCH   1   8
BRANCH   2  23
ATOM     21  O   UNL     1      36.654 -19.239 -20.785  0.00  0.00    -0.270 OA
ATOM     22  N   UNL     1      34.810 -19.126 -22.187  0.00  0.00    -0.297 N 
ATOM     23  C   UNL     1      35.477 -19.554 -21.032  0.00  0.00    +0.246 C 
ATOM     24  H   UNL     1      33.878 -19.413 -22.319  0.00  0.00    +0.150 HD
BRANCH  22  25
ATOM     25  C   UNL     1      35.417 -18.286 -23.193  0.00  0.00    +0.117 C 
BRANCH  25  28
ATOM     26 CL   UNL     1      34.539 -14.052 -20.305  0.00  0.00    -0.082 Cl
ATOM     27 CL   UNL     1      33.412 -14.124 -25.582  0.00  0.00    -0.082 Cl
ATOM     28  C   UNL     1      34.929 -16.867 -23.109  0.00  0.00    -0.001 C 
ATOM     29  C   UNL     1      34.455 -16.234 -24.252  0.00  0.00    +0.009 C 
ATOM     30  C   UNL     1      34.958 -16.202 -21.889  0.00  0.00    +0.009 C 
ATOM     31  C   UNL     1      34.507 -14.885 -21.810  0.00  0.00    +0.058 C 
ATOM     32  C   UNL     1      34.003 -14.917 -24.174  0.00  0.00    +0.058 C 
ATOM     33  C   UNL     1      34.029 -14.242 -22.952  0.00  0.00    +0.023 C 
ENDBRANCH  25  28
ENDBRANCH  22  25
ENDBRANCH   2  23
TORSDOF 4
ENDMDL
MODEL 6
REMARK VINA RESULT:     -11.8      5.668     10.380
REMARK  Name = 448407
REMARK  4 active torsions:
REMARK  status: ('A' for Active; 'I' for Inactive)
REMARK    1  A    between atoms: C_1  and  N_8
REMARK    2  A    between atoms: C_2  and  C_23
REMARK    3  A    between atoms: N_22  and  C_25
REMARK    4  A    between atoms: C_25  and  C_28
REMARK                            x       y       z     vdW  Elec       q    Type
REMARK                         _______ _______ _______ _____ _____    ______ ____
ROOT
ATOM      1  C   UNL     1      32.912 -24.592 -13.570  0.00  0.00    +0.090 C 
ATOM      2  C   UNL     1      31.426 -23.521 -15.173  0.00  0.00    +0.055 C 
ATOM      3  C   UNL     1      32.707 -23.906 -14.780  0.00  0.00    +0.023 C 
ATOM      4  C   UNL     1      31.795 -24.882 -12.766  0.00  0.00    +0.018 C 
ATOM      5  C   UNL     1      30.329 -23.816 -14.364  0.00  0.00    +0.005 C 
ATOM      6  C   UNL     1      30.514 -24.497 -13.160  0.00  0.00    +0.002 C 
ENDROOT
BRANCH   1   8
ATOM      7  O   UNL     1      36.962 -23.205 -10.626  0.00  0.00    -0.207 OA
ATOM      8  N   UNL     1      34.189 -24.977 -13.178  0.00  0.00    -0.137 N 
ATOM      9  N   UNL     1      35.095 -25.588 -13.987  0.00  0.00    -0.215 N 
ATOM     10  N   UNL     1      34.814 -24.259 -12.162  0.00  0.00    -0.143 NA
ATOM     11  N   UNL     1      37.551 -25.560 -13.855  0.00  0.00    -0.309 NA
ATOM     12  N   UNL     1      38.465 -24.267 -12.034  0.00  0.00    -0.251 NA
ATOM     13  N   UNL     1      39.872 -25.369 -13.503  0.00  0.00    -0.283 N 
ATOM     14  C   UNL     1      36.339 -25.293 -13.534  0.00  0.00    +0.243 C 
ATOM     15  C   UNL     1      36.083 -24.440 -12.363  0.00  0.00    +0.241 C 
ATOM     16  C   UNL     1      37.214 -23.912 -11.591  0.00  0.00    +0.239 C 
ATOM     17  C   UNL     1      38.600 -25.038 -13.095  0.00  0.00    +0.208 C 
ATOM     18  H   UNL     1      34.885 -26.147 -14.769  0.00  0.00    +0.175 HD
ATOM     19  H   UNL     1      40.004 -25.943 -14.292  0.00  0.00    +0.156 HD
ATOM     20  H   UNL     1      40.652 -25.030 -13.006  0.00  0.00    +0.156 HD
ENDBRANCH   1   8
BRANCH   2  23
ATOM     21  O   UNL     1      30.104 -22.402 -16.754  0.00  0.00    -0.270 OA
ATOM     22  N   UNL     1      32.367 -22.606 -17.223  0.00  0.00    -0.297 N 
ATOM     23  C   UNL     1      31.232 -22.813 -16.429  0.00  0.00    +0.246 C 
ATOM     24  H   UNL     1      33.228 -22.960 -16.905  0.00  0.00    +0.150 HD
BRANCH  22  25
ATOM     25  C   UNL     1      32.339 -21.902 -18.484  0.00  0.00    +0.117 C 
BRANCH  25  28
ATOM     26 CL   UNL     1      35.326 -19.302 -21.855  0.00  0.00    -0.082 Cl
ATOM     27 CL   UNL     1      37.478 -21.975 -17.691  0.00  0.00    -0.082 Cl
ATOM     28  C   UNL     1      33.712 -21.475 -18.919  0.00  0.00    -0.001 C 
ATOM     29  C   UNL     1      34.822 -21.878 -18.186  0.00  0.00    +0.009 C 
ATOM     30  C   UNL     1      33.859 -20.682 -20.051  0.00  0.00    +0.009 C 
ATOM     31  C   UNL     1      35.133 -20.285 -20.456  0.00  0.00    +0.058 C 
ATOM     32  C   UNL     1      36.097 -21.482 -18.590  0.00  0.00    +0.058 C 
ATOM     33  C   UNL     1      36.253 -20.685 -19.725  0.00  0.00    +0.023 C 
ENDBRANCH  25  28
ENDBRANCH  22  25
ENDBRANCH   2  23
TORSDOF 4
ENDMDL
MODEL 7
REMARK VINA RESULT:     -11.8      5.663     10.411
REMARK  Name = 448407
REMARK  4 active torsions:
REMARK  status: ('A' for Active; 'I' for Inactive)
REMARK    1  A    between atoms: C_1  and  N_8
REMARK    2  A    between atoms: C_2  and  C_23
REMARK    3  A    between atoms: N_22  and  C_25
REMARK    4  A    between atoms: C_25  and  C_28
REMARK                            x       y       z     vdW  Elec       q    Type
REMARK                         _______ _______ _______ _____ _____    ______ ____
ROOT
ATOM      1  C   UNL     1      32.974 -24.590 -13.580  0.00  0.00    +0.090 C 
ATOM      2  C   UNL     1      31.466 -23.514 -15.160  0.00  0.00    +0.055 C 
ATOM      3  C   UNL     1      32.751 -23.916 -14.794  0.00  0.00    +0.023 C 
ATOM      4  C   UNL     1      31.874 -24.851 -12.745  0.00  0.00    +0.018 C 
ATOM      5  C   UNL     1      30.386 -23.781 -14.320  0.00  0.00    +0.005 C 
ATOM      6  C   UNL     1      30.590 -24.450 -13.112  0.00  0.00    +0.002 C 
ENDROOT
BRANCH   1   8
ATOM      7  O   UNL     1      37.064 -23.305 -10.645  0.00  0.00    -0.207 OA
ATOM      8  N   UNL     1      34.254 -24.991 -13.215  0.00  0.00    -0.137 N 
ATOM      9  N   UNL     1      35.149 -25.580 -14.053  0.00  0.00    -0.215 N 
ATOM     10  N   UNL     1      34.895 -24.306 -12.186  0.00  0.00    -0.143 NA
ATOM     11  N   UNL     1      37.606 -25.565 -13.950  0.00  0.00    -0.309 NA
ATOM     12  N   UNL     1      38.547 -24.330 -12.103  0.00  0.00    -0.251 NA
ATOM     13  N   UNL     1      39.932 -25.392 -13.620  0.00  0.00    -0.283 N 
ATOM     14  C   UNL     1      36.399 -25.304 -13.607  0.00  0.00    +0.243 C 
ATOM     15  C   UNL     1      36.160 -24.485 -12.408  0.00  0.00    +0.241 C 
ATOM     16  C   UNL     1      37.303 -23.984 -11.633  0.00  0.00    +0.239 C 
ATOM     17  C   UNL     1      38.666 -25.069 -13.188  0.00  0.00    +0.208 C 
ATOM     18  H   UNL     1      34.927 -26.115 -14.849  0.00  0.00    +0.175 HD
ATOM     19  H   UNL     1      40.052 -25.943 -14.428  0.00  0.00    +0.156 HD
ATOM     20  H   UNL     1      40.719 -25.071 -13.122  0.00  0.00    +0.156 HD
ENDBRANCH   1   8
BRANCH   2  23
ATOM     21  O   UNL     1      30.119 -22.411 -16.730  0.00  0.00    -0.270 OA
ATOM     22  N   UNL     1      32.374 -22.620 -17.233  0.00  0.00    -0.297 N 
ATOM     23  C   UNL     1      31.252 -22.819 -16.419  0.00  0.00    +0.246 C 
ATOM     24  H   UNL     1      33.240 -22.970 -16.925  0.00  0.00    +0.150 HD
BRANCH  22  25
ATOM     25  C   UNL     1      32.327 -21.928 -18.501  0.00  0.00    +0.117 C 
BRANCH  25  28
ATOM     26 CL   UNL     1      37.476 -21.951 -17.774  0.00  0.00    -0.082 Cl
ATOM     27 CL   UNL     1      35.236 -19.218 -21.852  0.00  0.00    -0.082 Cl
ATOM     28  C   UNL     1      33.688 -21.474 -18.944  0.00  0.00    -0.001 C 
ATOM     29  C   UNL     1      33.810 -20.655 -20.061  0.00  0.00    +0.009 C 
ATOM     30  C   UNL     1      34.812 -21.877 -18.234  0.00  0.00    +0.009 C 
ATOM     31  C   UNL     1      36.077 -21.456 -18.645  0.00  0.00    +0.058 C 
ATOM     32  C   UNL     1      35.074 -20.233 -20.472  0.00  0.00    +0.058 C 
ATOM     33  C   UNL     1      36.208 -20.634 -19.765  0.00  0.00    +0.023 C 
ENDBRANCH  25  28
ENDBRANCH  22  25
ENDBRANCH   2  23
TORSDOF 4
ENDMDL
MODEL 8
REMARK VINA RESULT:     -11.6      3.288      5.665
REMARK  Name = 448407
REMARK  4 active torsions:
REMARK  status: ('A' for Active; 'I' for Inactive)
REMARK    1  A    between atoms: C_1  and  N_8
REMARK    2  A    between atoms: C_2  and  C_23
REMARK    3  A    between atoms: N_22  and  C_25
REMARK    4  A    between atoms: C_25  and  C_28
REMARK                            x       y       z     vdW  Elec       q    Type
REMARK                         _______ _______ _______ _____ _____    ______ ____
ROOT
ATOM      1  C   UNL     1      34.123 -14.289 -23.098  0.00  0.00    +0.090 C 
ATOM      2  C   UNL     1      35.027 -16.447 -22.427  0.00  0.00    +0.055 C 
ATOM      3  C   UNL     1      34.772 -15.104 -22.153  0.00  0.00    +0.023 C 
ATOM      4  C   UNL     1      33.736 -14.860 -24.323  0.00  0.00    +0.018 C 
ATOM      5  C   UNL     1      34.637 -16.998 -23.647  0.00  0.00    +0.005 C 
ATOM      6  C   UNL     1      33.991 -16.203 -24.595  0.00  0.00    +0.002 C 
ENDROOT
BRANCH   1   8
ATOM      7  O   UNL     1      30.706 -11.070 -20.872  0.00  0.00    -0.207 OA
ATOM      8  N   UNL     1      33.867 -12.950 -22.825  0.00  0.00    -0.137 N 
ATOM      9  N   UNL     1      34.163 -11.920 -23.661  0.00  0.00    -0.215 N 
ATOM     10  N   UNL     1      32.798 -12.637 -21.989  0.00  0.00    -0.143 NA
ATOM     11  N   UNL     1      33.086  -9.716 -23.842  0.00  0.00    -0.309 NA
ATOM     12  N   UNL     1      31.252  -9.344 -22.319  0.00  0.00    -0.251 NA
ATOM     13  N   UNL     1      31.883  -7.691 -23.808  0.00  0.00    -0.283 N 
ATOM     14  C   UNL     1      33.304 -10.901 -23.406  0.00  0.00    +0.243 C 
ATOM     15  C   UNL     1      32.460 -11.431 -22.324  0.00  0.00    +0.241 C 
ATOM     16  C   UNL     1      31.387 -10.595 -21.768  0.00  0.00    +0.239 C 
ATOM     17  C   UNL     1      32.056  -8.953 -23.288  0.00  0.00    +0.208 C 
ATOM     18  H   UNL     1      34.878 -11.914 -24.338  0.00  0.00    +0.175 HD
ATOM     19  H   UNL     1      32.469  -7.372 -24.533  0.00  0.00    +0.156 HD
ATOM     20  H   UNL     1      31.173  -7.106 -23.457  0.00  0.00    +0.156 HD
ENDBRANCH   1   8
BRANCH   2  23
ATOM     21  O   UNL     1      35.546 -17.058 -20.223  0.00  0.00    -0.270 OA
ATOM     22  N   UNL     1      36.491 -18.325 -21.920  0.00  0.00    -0.297 N 
ATOM     23  C   UNL     1      35.698 -17.276 -21.438  0.00  0.00    +0.246 C 
ATOM     24  H   UNL     1      36.568 -18.440 -22.894  0.00  0.00    +0.150 HD
BRANCH  22  25
ATOM     25  C   UNL     1      37.201 -19.247 -21.064  0.00  0.00    +0.117 C 
BRANCH  25  28
ATOM     26 CL   UNL     1      32.375 -20.988 -20.215  0.00  0.00    -0.082 Cl
ATOM     27 CL   UNL     1      36.484 -22.469 -17.046  0.00  0.00    -0.082 Cl
ATOM     28  C   UNL     1      36.265 -20.085 -20.241  0.00  0.00    -0.001 C 
ATOM     29  C   UNL     1      36.756 -20.802 -19.156  0.00  0.00    +0.009 C 
ATOM     30  C   UNL     1      34.916 -20.137 -20.574  0.00  0.00    +0.009 C 
ATOM     31  C   UNL     1      34.046 -20.916 -19.811  0.00  0.00    +0.058 C 
ATOM     32  C   UNL     1      35.887 -21.580 -18.392  0.00  0.00    +0.058 C 
ATOM     33  C   UNL     1      34.531 -21.638 -18.720  0.00  0.00    +0.023 C 
ENDBRANCH  25  28
ENDBRANCH  22  25
ENDBRANCH   2  23
TORSDOF 4
ENDMDL
MODEL 9
REMARK VINA RESULT:     -11.5      4.497      9.915
REMARK  Name = 448407
REMARK  4 active torsions:
REMARK  status: ('A' for Active; 'I' for Inactive)
REMARK    1  A    between atoms: C_1  and  N_8
REMARK    2  A    between atoms: C_2  and  C_23
REMARK    3  A    between atoms: N_22  and  C_25
REMARK    4  A    between atoms: C_25  and  C_28
REMARK                            x       y       z     vdW  Elec       q    Type
REMARK                         _______ _______ _______ _____ _____    ______ ____
ROOT
ATOM      1  C   UNL     1      35.786 -20.407 -20.167  0.00  0.00    +0.090 C 
ATOM      2  C   UNL     1      35.538 -18.801 -21.979  0.00  0.00    +0.055 C 
ATOM      3  C   UNL     1      35.021 -19.835 -21.198  0.00  0.00    +0.023 C 
ATOM      4  C   UNL     1      37.083 -19.913 -19.940  0.00  0.00    +0.018 C 
ATOM      5  C   UNL     1      36.826 -18.323 -21.741  0.00  0.00    +0.005 C 
ATOM      6  C   UNL     1      37.599 -18.880 -20.720  0.00  0.00    +0.002 C 
ENDROOT
BRANCH   1   8
ATOM      7  O   UNL     1      31.466 -22.100 -17.829  0.00  0.00    -0.207 OA
ATOM      8  N   UNL     1      35.271 -21.436 -19.387  0.00  0.00    -0.137 N 
ATOM      9  N   UNL     1      35.953 -22.075 -18.399  0.00  0.00    -0.215 N 
ATOM     10  N   UNL     1      33.897 -21.473 -19.164  0.00  0.00    -0.143 NA
ATOM     11  N   UNL     1      35.079 -23.209 -16.400  0.00  0.00    -0.309 NA
ATOM     12  N   UNL     1      32.676 -23.178 -16.172  0.00  0.00    -0.251 NA
ATOM     13  N   UNL     1      33.984 -24.223 -14.577  0.00  0.00    -0.283 N 
ATOM     14  C   UNL     1      35.057 -22.550 -17.499  0.00  0.00    +0.243 C 
ATOM     15  C   UNL     1      33.761 -22.129 -18.053  0.00  0.00    +0.241 C 
ATOM     16  C   UNL     1      32.523 -22.469 -17.339  0.00  0.00    +0.239 C 
ATOM     17  C   UNL     1      33.880 -23.513 -15.751  0.00  0.00    +0.208 C 
ATOM     18  H   UNL     1      36.930 -22.174 -18.346  0.00  0.00    +0.175 HD
ATOM     19  H   UNL     1      34.870 -24.487 -14.237  0.00  0.00    +0.156 HD
ATOM     20  H   UNL     1      33.173 -24.467 -14.075  0.00  0.00    +0.156 HD
ENDBRANCH   1   8
BRANCH   2  23
ATOM     21  O   UNL     1      33.859 -18.896 -23.613  0.00  0.00    -0.270 OA
ATOM     22  N   UNL     1      34.975 -16.878 -23.361  0.00  0.00    -0.297 N 
ATOM     23  C   UNL     1      34.733 -18.220 -23.042  0.00  0.00    +0.246 C 
ATOM     24  H   UNL     1      35.683 -16.403 -22.869  0.00  0.00    +0.150 HD
BRANCH  22  25
ATOM     25  C   UNL     1      34.244 -16.155 -24.375  0.00  0.00    +0.117 C 
BRANCH  25  28
ATOM     26 CL   UNL     1      33.436 -11.146 -25.513  0.00  0.00    -0.082 Cl
ATOM     27 CL   UNL     1      32.732 -13.028 -20.505  0.00  0.00    -0.082 Cl
ATOM     28  C   UNL     1      33.852 -14.781 -23.913  0.00  0.00    -0.001 C 
ATOM     29  C   UNL     1      33.514 -14.573 -22.581  0.00  0.00    +0.009 C 
ATOM     30  C   UNL     1      33.831 -13.730 -24.823  0.00  0.00    +0.009 C 
ATOM     31  C   UNL     1      33.466 -12.453 -24.395  0.00  0.00    +0.058 C 
ATOM     32  C   UNL     1      33.151 -13.297 -22.152  0.00  0.00    +0.058 C 
ATOM     33  C   UNL     1      33.126 -12.236 -23.059  0.00  0.00    +0.023 C 
ENDBRANCH  25  28
ENDBRANCH  22  25
ENDBRANCH   2  23
TORSDOF 4
ENDMDL
