MODEL 1
REMARK VINA RESULT:     -11.8      0.000      0.000
REMARK  Name = 1712
REMARK  5 active torsions:
REMARK  status: ('A' for Active; 'I' for Inactive)
REMARK    1  A    between atoms: C_1  and  N_18
REMARK    2  A    between atoms: C_2  and  S_7
REMARK    3  A    between atoms: S_7  and  N_10
REMARK    4  A    between atoms: N_18  and  C_20
REMARK    5  A    between atoms: C_20  and  C_26
REMARK                            x       y       z     vdW  Elec       q    Type
REMARK                         _______ _______ _______ _____ _____    ______ ____
ROOT
ATOM      1  C   UNL     1      35.361 -19.250 -20.744  0.00  0.00    +0.045 C 
ATOM      2  C   UNL     1      34.726 -17.636 -22.960  0.00  0.00    +0.125 C 
ATOM      3  C   UNL     1      34.827 -19.813 -21.917  0.00  0.00    +0.016 C 
ATOM      4  C   UNL     1      35.570 -17.859 -20.706  0.00  0.00    +0.016 C 
ATOM      5  C   UNL     1      34.512 -19.013 -23.015  0.00  0.00    +0.021 C 
ATOM      6  C   UNL     1      35.255 -17.059 -21.805  0.00  0.00    +0.021 C 
ENDROOT
BRANCH   2   7
ATOM      7  S   UNL     1      34.331 -16.635 -24.334  0.00  0.00    +0.075 S 
ATOM      8  O   UNL     1      33.517 -17.431 -25.245  0.00  0.00    -0.150 OA
ATOM      9  O   UNL     1      35.557 -16.027 -24.836  0.00  0.00    -0.150 OA
BRANCH   7  10
ATOM     10  N   UNL     1      33.325 -15.418 -23.643  0.00  0.00    -0.199 N 
ATOM     11  H   UNL     1      32.670 -15.640 -22.943  0.00  0.00    +0.175 HD
ATOM     12  N   UNL     1      33.088 -13.854 -25.393  0.00  0.00    -0.228 NA
ATOM     13  C   UNL     1      33.471 -14.069 -24.120  0.00  0.00    +0.147 C 
ATOM     14  C   UNL     1      33.979 -13.100 -23.276  0.00  0.00    +0.036 C 
ATOM     15  C   UNL     1      34.102 -11.810 -23.778  0.00  0.00    +0.005 C 
ATOM     16  C   UNL     1      33.223 -12.588 -25.848  0.00  0.00    +0.100 C 
ATOM     17  C   UNL     1      33.719 -11.541 -25.088  0.00  0.00    +0.021 C 
ENDBRANCH   7  10
ENDBRANCH   2   7
BRANCH   1  18
ATOM     18  N   UNL     1      35.676 -20.045 -19.652  0.00  0.00    -0.328 N 
ATOM     19  H   UNL     1      35.947 -19.600 -18.816  0.00  0.00    +0.147 HD
BRANCH  18  20
ATOM     20  C   UNL     1      35.630 -21.486 -19.670  0.00  0.00    +0.127 C 
BRANCH  20  26
ATOM     21  S   UNL     1      37.409 -22.310 -16.641  0.00  0.00    -0.104 S 
ATOM     22  O   UNL     1      32.737 -21.703 -20.145  0.00  0.00    -0.210 OA
ATOM     23  N   UNL     1      32.460 -22.494 -17.972  0.00  0.00    -0.333 NA
ATOM     24  N   UNL     1      36.541 -23.214 -14.370  0.00  0.00    -0.262 NA
ATOM     25  C   UNL     1      34.709 -22.388 -17.428  0.00  0.00    +0.033 C 
ATOM     26  C   UNL     1      34.628 -21.961 -18.686  0.00  0.00    +0.092 C 
ATOM     27  C   UNL     1      33.326 -22.706 -17.037  0.00  0.00    +0.142 C 
ATOM     28  C   UNL     1      35.736 -22.580 -16.491  0.00  0.00    +0.114 C 
ATOM     29  C   UNL     1      33.180 -22.024 -19.051  0.00  0.00    +0.202 C 
ATOM     30  C   UNL     1      35.475 -23.058 -15.217  0.00  0.00    +0.069 C 
ATOM     31  C   UNL     1      33.087 -23.216 -15.660  0.00  0.00    +0.034 C 
ATOM     32  C   UNL     1      34.134 -23.371 -14.825  0.00  0.00    +0.018 C 
ATOM     33  C   UNL     1      37.626 -22.847 -15.020  0.00  0.00    +0.183 C 
ENDBRANCH  20  26
ENDBRANCH  18  20
ENDBRANCH   1  18
TORSDOF 5
ENDMDL
MODEL 2
REMARK VINA RESULT:     -11.2      3.456     10.973
REMARK  Name = 1712
REMARK  5 active torsions:
REMARK  status: ('A' for Active; 'I' for Inactive)
REMARK    1  A    between atoms: C_1  and  N_18
REMARK    2  A    between atoms: C_2  and  S_7
REMARK    3  A    between atoms: S_7  and  N_10
REMARK    4  A    between atoms: N_18  and  C_20
REMARK    5  A    between atoms: C_20  and  C_26
REMARK                            x       y       z     vdW  Elec       q    Type
REMARK                         _______ _______ _______ _____ _____    ______ ____
ROOT
ATOM      1  C   UNL     1      34.063 -14.511 -23.629  0.00  0.00    +0.045 C 
ATOM      2  C   UNL     1      34.988 -17.028 -22.778  0.00  0.00    +0.125 C 
ATOM      3  C   UNL     1      34.474 -14.716 -22.299  0.00  0.00    +0.016 C 
ATOM      4  C   UNL     1      34.125 -15.595 -24.522  0.00  0.00    +0.016 C 
ATOM      5  C   UNL     1      34.933 -15.964 -21.878  0.00  0.00    +0.021 C 
ATOM      6  C   UNL     1      34.583 -16.843 -24.101  0.00  0.00    +0.021 C 
ENDROOT
BRANCH   2   7
ATOM      7  S   UNL     1      35.561 -18.590 -22.251  0.00  0.00    +0.075 S 
ATOM      8  O   UNL     1      37.014 -18.520 -22.147  0.00  0.00    -0.150 OA
ATOM      9  O   UNL     1      34.966 -19.616 -23.098  0.00  0.00    -0.150 OA
BRANCH   7  10
ATOM     10  N   UNL     1      34.917 -18.715 -20.657  0.00  0.00    -0.199 N 
ATOM     11  H   UNL     1      34.658 -17.911 -20.151  0.00  0.00    +0.175 HD
ATOM     12  N   UNL     1      35.916 -20.682 -19.822  0.00  0.00    -0.228 NA
ATOM     13  C   UNL     1      34.769 -20.027 -20.088  0.00  0.00    +0.147 C 
ATOM     14  C   UNL     1      33.503 -20.528 -19.853  0.00  0.00    +0.036 C 
ATOM     15  C   UNL     1      33.407 -21.800 -19.302  0.00  0.00    +0.005 C 
ATOM     16  C   UNL     1      35.784 -21.916 -19.287  0.00  0.00    +0.100 C 
ATOM     17  C   UNL     1      34.565 -22.514 -19.010  0.00  0.00    +0.021 C 
ENDBRANCH   7  10
ENDBRANCH   2   7
BRANCH   1  18
ATOM     18  N   UNL     1      33.608 -13.270 -24.049  0.00  0.00    -0.328 N 
ATOM     19  H   UNL     1      33.943 -12.918 -24.905  0.00  0.00    +0.147 HD
BRANCH  18  20
ATOM     20  C   UNL     1      32.673 -12.464 -23.303  0.00  0.00    +0.127 C 
BRANCH  20  26
ATOM     21  S   UNL     1      31.608 -10.942 -20.210  0.00  0.00    -0.104 S 
ATOM     22  O   UNL     1      34.127 -11.173 -25.508  0.00  0.00    -0.210 OA
ATOM     23  N   UNL     1      34.131  -9.176 -24.311  0.00  0.00    -0.333 NA
ATOM     24  N   UNL     1      31.896  -8.516 -19.338  0.00  0.00    -0.262 NA
ATOM     25  C   UNL     1      32.989 -10.030 -22.485  0.00  0.00    +0.033 C 
ATOM     26  C   UNL     1      33.106 -11.046 -23.337  0.00  0.00    +0.092 C 
ATOM     27  C   UNL     1      33.646  -8.892 -23.147  0.00  0.00    +0.142 C 
ATOM     28  C   UNL     1      32.424  -9.839 -21.215  0.00  0.00    +0.114 C 
ATOM     29  C   UNL     1      33.842 -10.508 -24.522  0.00  0.00    +0.202 C 
ATOM     30  C   UNL     1      32.475  -8.609 -20.578  0.00  0.00    +0.069 C 
ATOM     31  C   UNL     1      33.680  -7.589 -22.430  0.00  0.00    +0.034 C 
ATOM     32  C   UNL     1      33.111  -7.495 -21.211  0.00  0.00    +0.018 C 
ATOM     33  C   UNL     1      31.400  -9.698 -19.038  0.00  0.00    +0.183 C 
ENDBRANCH  20  26
ENDBRANCH  18  20
ENDBRANCH   1  18
TORSDOF 5
ENDMDL
MODEL 3
REMARK VINA RESULT:     -11.0      2.460     10.232
REMARK  Name = 1712
REMARK  5 active torsions:
REMARK  status: ('A' for Active; 'I' for Inactive)
REMARK    1  A    between atoms: C_1  and  N_18
REMARK    2  A    between atoms: C_2  and  S_7
REMARK    3  A    between atoms: S_7  and  N_10
REMARK    4  A    between atoms: N_18  and  C_20
REMARK    5  A    between atoms: C_20  and  C_26
REMARK                            x       y       z     vdW  Elec       q    Type
REMARK                         _______ _______ _______ _____ _____    ______ ____
ROOT
ATOM      1  C   UNL     1      35.325 -20.043 -20.357  0.00  0.00    +0.045 C 
ATOM      2  C   UNL     1      34.286 -22.033 -18.661  0.00  0.00    +0.125 C 
ATOM      3  C   UNL     1      33.937 -20.247 -20.250  0.00  0.00    +0.016 C 
ATOM      4  C   UNL     1      36.180 -20.859 -19.595  0.00  0.00    +0.016 C 
ATOM      5  C   UNL     1      33.422 -21.234 -19.410  0.00  0.00    +0.021 C 
ATOM      6  C   UNL     1      35.665 -21.846 -18.754  0.00  0.00    +0.021 C 
ENDROOT
BRANCH   2   7
ATOM      7  S   UNL     1      33.642 -23.269 -17.610  0.00  0.00    +0.075 S 
ATOM      8  O   UNL     1      34.517 -23.365 -16.447  0.00  0.00    -0.150 OA
ATOM      9  O   UNL     1      33.389 -24.468 -18.399  0.00  0.00    -0.150 OA
BRANCH   7  10
ATOM     10  N   UNL     1      32.143 -22.590 -17.097  0.00  0.00    -0.199 N 
ATOM     11  H   UNL     1      31.703 -21.882 -17.619  0.00  0.00    +0.175 HD
ATOM     12  N   UNL     1      32.227 -22.807 -14.749  0.00  0.00    -0.228 NA
ATOM     13  C   UNL     1      31.556 -23.089 -15.883  0.00  0.00    +0.147 C 
ATOM     14  C   UNL     1      30.376 -23.805 -15.943  0.00  0.00    +0.036 C 
ATOM     15  C   UNL     1      29.843 -24.268 -14.745  0.00  0.00    +0.005 C 
ATOM     16  C   UNL     1      31.680 -23.274 -13.604  0.00  0.00    +0.100 C 
ATOM     17  C   UNL     1      30.502 -24.001 -13.549  0.00  0.00    +0.021 C 
ENDBRANCH   7  10
ENDBRANCH   2   7
BRANCH   1  18
ATOM     18  N   UNL     1      35.837 -19.061 -21.192  0.00  0.00    -0.328 N 
ATOM     19  H   UNL     1      36.474 -19.333 -21.892  0.00  0.00    +0.147 HD
BRANCH  18  20
ATOM     20  C   UNL     1      35.493 -17.664 -21.093  0.00  0.00    +0.127 C 
BRANCH  20  26
ATOM     21  S   UNL     1      34.186 -14.337 -20.607  0.00  0.00    -0.104 S 
ATOM     22  O   UNL     1      35.639 -19.163 -23.618  0.00  0.00    -0.210 OA
ATOM     23  N   UNL     1      34.672 -17.356 -24.724  0.00  0.00    -0.333 NA
ATOM     24  N   UNL     1      33.161 -12.664 -22.304  0.00  0.00    -0.262 NA
ATOM     25  C   UNL     1      34.479 -16.037 -22.829  0.00  0.00    +0.033 C 
ATOM     26  C   UNL     1      35.035 -17.173 -22.415  0.00  0.00    +0.092 C 
ATOM     27  C   UNL     1      34.276 -16.211 -24.276  0.00  0.00    +0.142 C 
ATOM     28  C   UNL     1      34.086 -14.830 -22.232  0.00  0.00    +0.114 C 
ATOM     29  C   UNL     1      35.165 -18.036 -23.629  0.00  0.00    +0.202 C 
ATOM     30  C   UNL     1      33.515 -13.807 -22.973  0.00  0.00    +0.069 C 
ATOM     31  C   UNL     1      33.661 -15.089 -25.036  0.00  0.00    +0.034 C 
ATOM     32  C   UNL     1      33.312 -13.964 -24.381  0.00  0.00    +0.018 C 
ATOM     33  C   UNL     1      33.471 -12.830 -21.035  0.00  0.00    +0.183 C 
ENDBRANCH  20  26
ENDBRANCH  18  20
ENDBRANCH   1  18
TORSDOF 5
ENDMDL
MODEL 4
REMARK VINA RESULT:     -10.8      3.482     11.338
REMARK  Name = 1712
REMARK  5 active torsions:
REMARK  status: ('A' for Active; 'I' for Inactive)
REMARK    1  A    between atoms: C_1  and  N_18
REMARK    2  A    between atoms: C_2  and  S_7
REMARK    3  A    between atoms: S_7  and  N_10
REMARK    4  A    between atoms: N_18  and  C_20
REMARK    5  A    between atoms: C_20  and  C_26
REMARK                            x       y       z     vdW  Elec       q    Type
REMARK                         _______ _______ _______ _____ _____    ______ ____
ROOT
ATOM      1  C   UNL     1      34.034 -14.504 -23.511  0.00  0.00    +0.045 C 
ATOM      2  C   UNL     1      34.945 -17.058 -22.760  0.00  0.00    +0.125 C 
ATOM      3  C   UNL     1      34.050 -15.565 -24.435  0.00  0.00    +0.016 C 
ATOM      4  C   UNL     1      34.486 -14.752 -22.202  0.00  0.00    +0.016 C 
ATOM      5  C   UNL     1      34.501 -16.831 -24.062  0.00  0.00    +0.021 C 
ATOM      6  C   UNL     1      34.938 -16.018 -21.830  0.00  0.00    +0.021 C 
ENDROOT
BRANCH   2   7
ATOM      7  S   UNL     1      35.511 -18.642 -22.294  0.00  0.00    +0.075 S 
ATOM      8  O   UNL     1      36.969 -18.609 -22.284  0.00  0.00    -0.150 OA
ATOM      9  O   UNL     1      34.837 -19.639 -23.116  0.00  0.00    -0.150 OA
BRANCH   7  10
ATOM     10  N   UNL     1      34.969 -18.777 -20.663  0.00  0.00    -0.199 N 
ATOM     11  H   UNL     1      34.800 -17.975 -20.118  0.00  0.00    +0.175 HD
ATOM     12  N   UNL     1      35.887 -20.832 -19.956  0.00  0.00    -0.228 NA
ATOM     13  C   UNL     1      34.772 -20.096 -20.124  0.00  0.00    +0.147 C 
ATOM     14  C   UNL     1      33.494 -20.520 -19.816  0.00  0.00    +0.036 C 
ATOM     15  C   UNL     1      33.350 -21.801 -19.296  0.00  0.00    +0.005 C 
ATOM     16  C   UNL     1      35.708 -22.072 -19.449  0.00  0.00    +0.100 C 
ATOM     17  C   UNL     1      34.474 -22.598 -19.106  0.00  0.00    +0.021 C 
ENDBRANCH   7  10
ENDBRANCH   2   7
BRANCH   1  18
ATOM     18  N   UNL     1      33.584 -13.246 -23.881  0.00  0.00    -0.328 N 
ATOM     19  H   UNL     1      32.837 -13.189 -24.520  0.00  0.00    +0.147 HD
BRANCH  18  20
ATOM     20  C   UNL     1      34.149 -12.015 -23.386  0.00  0.00    +0.127 C 
BRANCH  20  26
ATOM     21  S   UNL     1      34.926  -8.647 -24.421  0.00  0.00    -0.104 S 
ATOM     22  O   UNL     1      31.812 -12.902 -21.839  0.00  0.00    -0.210 OA
ATOM     23  N   UNL     1      31.052 -10.702 -21.762  0.00  0.00    -0.333 NA
ATOM     24  N   UNL     1      33.643  -6.426 -24.034  0.00  0.00    -0.262 NA
ATOM     25  C   UNL     1      32.827  -9.831 -22.969  0.00  0.00    +0.033 C 
ATOM     26  C   UNL     1      33.062 -11.138 -22.887  0.00  0.00    +0.092 C 
ATOM     27  C   UNL     1      31.561  -9.619 -22.250  0.00  0.00    +0.142 C 
ATOM     28  C   UNL     1      33.472  -8.724 -23.542  0.00  0.00    +0.114 C 
ATOM     29  C   UNL     1      31.923 -11.715 -22.109  0.00  0.00    +0.202 C 
ATOM     30  C   UNL     1      32.943  -7.447 -23.444  0.00  0.00    +0.069 C 
ATOM     31  C   UNL     1      31.026  -8.233 -22.167  0.00  0.00    +0.034 C 
ATOM     32  C   UNL     1      31.712  -7.228 -22.746  0.00  0.00    +0.018 C 
ATOM     33  C   UNL     1      34.719  -6.946 -24.586  0.00  0.00    +0.183 C 
ENDBRANCH  20  26
ENDBRANCH  18  20
ENDBRANCH   1  18
TORSDOF 5
ENDMDL
MODEL 5
REMARK VINA RESULT:     -10.7      2.929      4.183
REMARK  Name = 1712
REMARK  5 active torsions:
REMARK  status: ('A' for Active; 'I' for Inactive)
REMARK    1  A    between atoms: C_1  and  N_18
REMARK    2  A    between atoms: C_2  and  S_7
REMARK    3  A    between atoms: S_7  and  N_10
REMARK    4  A    between atoms: N_18  and  C_20
REMARK    5  A    between atoms: C_20  and  C_26
REMARK                            x       y       z     vdW  Elec       q    Type
REMARK                         _______ _______ _______ _____ _____    ______ ____
ROOT
ATOM      1  C   UNL     1      33.846 -21.991 -19.007  0.00  0.00    +0.045 C 
ATOM      2  C   UNL     1      35.410 -19.912 -20.079  0.00  0.00    +0.125 C 
ATOM      3  C   UNL     1      35.244 -21.986 -18.851  0.00  0.00    +0.016 C 
ATOM      4  C   UNL     1      33.250 -20.930 -19.713  0.00  0.00    +0.016 C 
ATOM      5  C   UNL     1      36.019 -20.956 -19.383  0.00  0.00    +0.021 C 
ATOM      6  C   UNL     1      34.025 -19.900 -20.244  0.00  0.00    +0.021 C 
ENDROOT
BRANCH   2   7
ATOM      7  S   UNL     1      36.380 -18.623 -20.745  0.00  0.00    +0.075 S 
ATOM      8  O   UNL     1      37.745 -18.797 -20.261  0.00  0.00    -0.150 OA
ATOM      9  O   UNL     1      35.704 -17.355 -20.500  0.00  0.00    -0.150 OA
BRANCH   7  10
ATOM     10  N   UNL     1      36.365 -18.966 -22.434  0.00  0.00    -0.199 N 
ATOM     11  H   UNL     1      37.035 -19.565 -22.835  0.00  0.00    +0.175 HD
ATOM     12  N   UNL     1      35.430 -17.016 -23.375  0.00  0.00    -0.228 NA
ATOM     13  C   UNL     1      35.343 -18.353 -23.240  0.00  0.00    +0.147 C 
ATOM     14  C   UNL     1      34.364 -19.141 -23.811  0.00  0.00    +0.036 C 
ATOM     15  C   UNL     1      33.397 -18.506 -24.582  0.00  0.00    +0.005 C 
ATOM     16  C   UNL     1      34.472 -16.433 -24.131  0.00  0.00    +0.100 C 
ATOM     17  C   UNL     1      33.445 -17.127 -24.750  0.00  0.00    +0.021 C 
ENDBRANCH   7  10
ENDBRANCH   2   7
BRANCH   1  18
ATOM     18  N   UNL     1      33.075 -23.015 -18.478  0.00  0.00    -0.328 N 
ATOM     19  H   UNL     1      32.155 -23.123 -18.812  0.00  0.00    +0.147 HD
BRANCH  18  20
ATOM     20  C   UNL     1      33.541 -23.929 -17.465  0.00  0.00    +0.127 C 
BRANCH  20  26
ATOM     21  S   UNL     1      35.810 -24.915 -14.839  0.00  0.00    -0.104 S 
ATOM     22  O   UNL     1      30.877 -22.726 -17.152  0.00  0.00    -0.210 OA
ATOM     23  N   UNL     1      31.135 -22.806 -14.839  0.00  0.00    -0.333 NA
ATOM     24  N   UNL     1      35.568 -24.768 -12.260  0.00  0.00    -0.262 NA
ATOM     25  C   UNL     1      33.245 -23.759 -14.902  0.00  0.00    +0.033 C 
ATOM     26  C   UNL     1      32.884 -23.614 -16.174  0.00  0.00    +0.092 C 
ATOM     27  C   UNL     1      32.115 -23.237 -14.117  0.00  0.00    +0.142 C 
ATOM     28  C   UNL     1      34.368 -24.255 -14.222  0.00  0.00    +0.114 C 
ATOM     29  C   UNL     1      31.521 -23.000 -16.149  0.00  0.00    +0.202 C 
ATOM     30  C   UNL     1      34.432 -24.263 -12.838  0.00  0.00    +0.069 C 
ATOM     31  C   UNL     1      32.222 -23.263 -12.633  0.00  0.00    +0.034 C 
ATOM     32  C   UNL     1      33.339 -23.759 -12.063  0.00  0.00    +0.018 C 
ATOM     33  C   UNL     1      36.375 -25.147 -13.229  0.00  0.00    +0.183 C 
ENDBRANCH  20  26
ENDBRANCH  18  20
ENDBRANCH   1  18
TORSDOF 5
ENDMDL
MODEL 6
REMARK VINA RESULT:     -10.4      3.210      5.071
REMARK  Name = 1712
REMARK  5 active torsions:
REMARK  status: ('A' for Active; 'I' for Inactive)
REMARK    1  A    between atoms: C_1  and  N_18
REMARK    2  A    between atoms: C_2  and  S_7
REMARK    3  A    between atoms: S_7  and  N_10
REMARK    4  A    between atoms: N_18  and  C_20
REMARK    5  A    between atoms: C_20  and  C_26
REMARK                            x       y       z     vdW  Elec       q    Type
REMARK                         _______ _______ _______ _____ _____    ______ ____
ROOT
ATOM      1  C   UNL     1      34.477 -21.845 -18.926  0.00  0.00    +0.045 C 
ATOM      2  C   UNL     1      35.790 -19.766 -20.294  0.00  0.00    +0.125 C 
ATOM      3  C   UNL     1      35.876 -21.709 -18.859  0.00  0.00    +0.016 C 
ATOM      4  C   UNL     1      33.752 -20.917 -19.695  0.00  0.00    +0.016 C 
ATOM      5  C   UNL     1      36.526 -20.677 -19.537  0.00  0.00    +0.021 C 
ATOM      6  C   UNL     1      34.402 -19.886 -20.372  0.00  0.00    +0.021 C 
ENDROOT
BRANCH   2   7
ATOM      7  S   UNL     1      36.604 -18.476 -21.142  0.00  0.00    +0.075 S 
ATOM      8  O   UNL     1      38.026 -18.565 -20.828  0.00  0.00    -0.150 OA
ATOM      9  O   UNL     1      35.903 -17.227 -20.877  0.00  0.00    -0.150 OA
BRANCH   7  10
ATOM     10  N   UNL     1      36.394 -18.915 -22.796  0.00  0.00    -0.199 N 
ATOM     11  H   UNL     1      37.024 -19.526 -23.241  0.00  0.00    +0.175 HD
ATOM     12  N   UNL     1      35.313 -17.034 -23.721  0.00  0.00    -0.228 NA
ATOM     13  C   UNL     1      35.271 -18.363 -23.504  0.00  0.00    +0.147 C 
ATOM     14  C   UNL     1      34.247 -19.196 -23.910  0.00  0.00    +0.036 C 
ATOM     15  C   UNL     1      33.181 -18.619 -24.592  0.00  0.00    +0.005 C 
ATOM     16  C   UNL     1      34.260 -16.509 -24.387  0.00  0.00    +0.100 C 
ATOM     17  C   UNL     1      33.181 -17.251 -24.839  0.00  0.00    +0.021 C 
ENDBRANCH   7  10
ENDBRANCH   2   7
BRANCH   1  18
ATOM     18  N   UNL     1      33.830 -22.870 -18.252  0.00  0.00    -0.328 N 
ATOM     19  H   UNL     1      34.193 -23.782 -18.334  0.00  0.00    +0.147 HD
BRANCH  18  20
ATOM     20  C   UNL     1      32.655 -22.678 -17.438  0.00  0.00    +0.127 C 
BRANCH  20  26
ATOM     21  S   UNL     1      29.375 -23.572 -16.231  0.00  0.00    -0.104 S 
ATOM     22  O   UNL     1      35.233 -23.193 -16.122  0.00  0.00    -0.210 OA
ATOM     23  N   UNL     1      34.107 -24.227 -14.365  0.00  0.00    -0.333 NA
ATOM     24  N   UNL     1      28.654 -24.798 -14.062  0.00  0.00    -0.262 NA
ATOM     25  C   UNL     1      31.994 -23.903 -15.259  0.00  0.00    +0.033 C 
ATOM     26  C   UNL     1      32.837 -23.366 -16.137  0.00  0.00    +0.092 C 
ATOM     27  C   UNL     1      32.844 -24.424 -14.176  0.00  0.00    +0.142 C 
ATOM     28  C   UNL     1      30.603 -24.060 -15.160  0.00  0.00    +0.114 C 
ATOM     29  C   UNL     1      34.207 -23.567 -15.573  0.00  0.00    +0.202 C 
ATOM     30  C   UNL     1      30.021 -24.691 -14.073  0.00  0.00    +0.069 C 
ATOM     31  C   UNL     1      32.180 -25.095 -13.026  0.00  0.00    +0.034 C 
ATOM     32  C   UNL     1      30.837 -25.202 -13.013  0.00  0.00    +0.018 C 
ATOM     33  C   UNL     1      28.200 -24.236 -15.162  0.00  0.00    +0.183 C 
ENDBRANCH  20  26
ENDBRANCH  18  20
ENDBRANCH   1  18
TORSDOF 5
ENDMDL
MODEL 7
REMARK VINA RESULT:     -10.3      4.717      8.258
REMARK  Name = 1712
REMARK  5 active torsions:
REMARK  status: ('A' for Active; 'I' for Inactive)
REMARK    1  A    between atoms: C_1  and  N_18
REMARK    2  A    between atoms: C_2  and  S_7
REMARK    3  A    between atoms: S_7  and  N_10
REMARK    4  A    between atoms: N_18  and  C_20
REMARK    5  A    between atoms: C_20  and  C_26
REMARK                            x       y       z     vdW  Elec       q    Type
REMARK                         _______ _______ _______ _____ _____    ______ ____
ROOT
ATOM      1  C   UNL     1      32.934 -12.456 -22.286  0.00  0.00    +0.045 C 
ATOM      2  C   UNL     1      32.324  -9.718 -22.510  0.00  0.00    +0.125 C 
ATOM      3  C   UNL     1      33.584 -11.648 -23.236  0.00  0.00    +0.016 C 
ATOM      4  C   UNL     1      31.970 -11.862 -21.451  0.00  0.00    +0.016 C 
ATOM      5  C   UNL     1      33.282 -10.291 -23.347  0.00  0.00    +0.021 C 
ATOM      6  C   UNL     1      31.668 -10.505 -21.562  0.00  0.00    +0.021 C 
ENDROOT
BRANCH   2   7
ATOM      7  S   UNL     1      31.945  -8.020 -22.649  0.00  0.00    +0.075 S 
ATOM      8  O   UNL     1      31.282  -7.610 -21.416  0.00  0.00    -0.150 OA
ATOM      9  O   UNL     1      31.267  -7.796 -23.919  0.00  0.00    -0.150 OA
BRANCH   7  10
ATOM     10  N   UNL     1      33.502  -7.283 -22.689  0.00  0.00    -0.199 N 
ATOM     11  H   UNL     1      34.200  -7.540 -22.044  0.00  0.00    +0.175 HD
ATOM     12  N   UNL     1      33.061  -5.134 -23.555  0.00  0.00    -0.228 NA
ATOM     13  C   UNL     1      33.751  -6.283 -23.692  0.00  0.00    +0.147 C 
ATOM     14  C   UNL     1      34.653  -6.546 -24.705  0.00  0.00    +0.036 C 
ATOM     15  C   UNL     1      34.863  -5.550 -25.652  0.00  0.00    +0.005 C 
ATOM     16  C   UNL     1      33.291  -4.189 -24.495  0.00  0.00    +0.100 C 
ATOM     17  C   UNL     1      34.173  -4.346 -25.552  0.00  0.00    +0.021 C 
ENDBRANCH   7  10
ENDBRANCH   2   7
BRANCH   1  18
ATOM     18  N   UNL     1      33.235 -13.805 -22.175  0.00  0.00    -0.328 N 
ATOM     19  H   UNL     1      32.535 -14.411 -21.838  0.00  0.00    +0.147 HD
BRANCH  18  20
ATOM     20  C   UNL     1      34.514 -14.373 -22.522  0.00  0.00    +0.127 C 
BRANCH  20  26
ATOM     21  S   UNL     1      35.661 -17.237 -20.652  0.00  0.00    -0.104 S 
ATOM     22  O   UNL     1      33.381 -14.361 -25.235  0.00  0.00    -0.210 OA
ATOM     23  N   UNL     1      33.633 -16.675 -25.329  0.00  0.00    -0.333 NA
ATOM     24  N   UNL     1      35.714 -19.752 -21.285  0.00  0.00    -0.262 NA
ATOM     25  C   UNL     1      34.544 -16.867 -23.208  0.00  0.00    +0.033 C 
ATOM     26  C   UNL     1      34.309 -15.567 -23.376  0.00  0.00    +0.092 C 
ATOM     27  C   UNL     1      34.102 -17.505 -24.458  0.00  0.00    +0.142 C 
ATOM     28  C   UNL     1      35.072 -17.672 -22.188  0.00  0.00    +0.114 C 
ATOM     29  C   UNL     1      33.720 -15.428 -24.744  0.00  0.00    +0.202 C 
ATOM     30  C   UNL     1      35.185 -19.046 -22.335  0.00  0.00    +0.069 C 
ATOM     31  C   UNL     1      34.240 -18.982 -24.576  0.00  0.00    +0.034 C 
ATOM     32  C   UNL     1      34.760 -19.679 -23.546  0.00  0.00    +0.018 C 
ATOM     33  C   UNL     1      36.005 -18.893 -20.331  0.00  0.00    +0.183 C 
ENDBRANCH  20  26
ENDBRANCH  18  20
ENDBRANCH   1  18
TORSDOF 5
ENDMDL
MODEL 8
REMARK VINA RESULT:     -10.2      2.189     10.360
REMARK  Name = 1712
REMARK  5 active torsions:
REMARK  status: ('A' for Active; 'I' for Inactive)
REMARK    1  A    between atoms: C_1  and  N_18
REMARK    2  A    between atoms: C_2  and  S_7
REMARK    3  A    between atoms: S_7  and  N_10
REMARK    4  A    between atoms: N_18  and  C_20
REMARK    5  A    between atoms: C_20  and  C_26
REMARK                            x       y       z     vdW  Elec       q    Type
REMARK                         _______ _______ _______ _____ _____    ______ ____
ROOT
ATOM      1  C   UNL     1      35.068 -20.287 -20.259  0.00  0.00    +0.045 C 
ATOM      2  C   UNL     1      33.877 -22.038 -18.406  0.00  0.00    +0.125 C 
ATOM      3  C   UNL     1      33.669 -20.359 -20.130  0.00  0.00    +0.016 C 
ATOM      4  C   UNL     1      35.857 -21.114 -19.438  0.00  0.00    +0.016 C 
ATOM      5  C   UNL     1      33.078 -21.227 -19.211  0.00  0.00    +0.021 C 
ATOM      6  C   UNL     1      35.266 -21.981 -18.519  0.00  0.00    +0.021 C 
ENDROOT
BRANCH   2   7
ATOM      7  S   UNL     1      33.139 -23.125 -17.257  0.00  0.00    +0.075 S 
ATOM      8  O   UNL     1      33.668 -24.461 -17.504  0.00  0.00    -0.150 OA
ATOM      9  O   UNL     1      31.695 -22.925 -17.286  0.00  0.00    -0.150 OA
BRANCH   7  10
ATOM     10  N   UNL     1      33.767 -22.572 -15.750  0.00  0.00    -0.199 N 
ATOM     11  H   UNL     1      33.534 -21.682 -15.401  0.00  0.00    +0.175 HD
ATOM     12  N   UNL     1      35.838 -23.688 -15.585  0.00  0.00    -0.228 NA
ATOM     13  C   UNL     1      34.640 -23.450 -15.018  0.00  0.00    +0.147 C 
ATOM     14  C   UNL     1      34.216 -23.983 -13.816  0.00  0.00    +0.036 C 
ATOM     15  C   UNL     1      35.093 -24.826 -13.142  0.00  0.00    +0.005 C 
ATOM     16  C   UNL     1      36.663 -24.513 -14.902  0.00  0.00    +0.100 C 
ATOM     17  C   UNL     1      36.341 -25.101 -13.689  0.00  0.00    +0.021 C 
ENDBRANCH   7  10
ENDBRANCH   2   7
BRANCH   1  18
ATOM     18  N   UNL     1      35.655 -19.424 -21.171  0.00  0.00    -0.328 N 
ATOM     19  H   UNL     1      36.189 -19.813 -21.901  0.00  0.00    +0.147 HD
BRANCH  18  20
ATOM     20  C   UNL     1      35.530 -17.988 -21.112  0.00  0.00    +0.127 C 
BRANCH  20  26
ATOM     21  S   UNL     1      34.457 -14.581 -20.610  0.00  0.00    -0.104 S 
ATOM     22  O   UNL     1      35.482 -19.513 -23.626  0.00  0.00    -0.210 OA
ATOM     23  N   UNL     1      34.589 -17.657 -24.712  0.00  0.00    -0.333 NA
ATOM     24  N   UNL     1      33.475 -12.859 -22.283  0.00  0.00    -0.262 NA
ATOM     25  C   UNL     1      34.554 -16.314 -22.825  0.00  0.00    +0.033 C 
ATOM     26  C   UNL     1      35.052 -17.480 -22.421  0.00  0.00    +0.092 C 
ATOM     27  C   UNL     1      34.284 -16.485 -24.261  0.00  0.00    +0.142 C 
ATOM     28  C   UNL     1      34.262 -15.079 -22.225  0.00  0.00    +0.114 C 
ATOM     29  C   UNL     1      35.080 -18.358 -23.630  0.00  0.00    +0.202 C 
ATOM     30  C   UNL     1      33.729 -14.028 -22.954  0.00  0.00    +0.069 C 
ATOM     31  C   UNL     1      33.712 -15.332 -25.008  0.00  0.00    +0.034 C 
ATOM     32  C   UNL     1      33.462 -14.182 -24.352  0.00  0.00    +0.018 C 
ATOM     33  C   UNL     1      33.823 -13.035 -21.026  0.00  0.00    +0.183 C 
ENDBRANCH  20  26
ENDBRANCH  18  20
ENDBRANCH   1  18
TORSDOF 5
ENDMDL
MODEL 9
REMARK VINA RESULT:     -10.1      2.621      4.128
REMARK  Name = 1712
REMARK  5 active torsions:
REMARK  status: ('A' for Active; 'I' for Inactive)
REMARK    1  A    between atoms: C_1  and  N_18
REMARK    2  A    between atoms: C_2  and  S_7
REMARK    3  A    between atoms: S_7  and  N_10
REMARK    4  A    between atoms: N_18  and  C_20
REMARK    5  A    between atoms: C_20  and  C_26
REMARK                            x       y       z     vdW  Elec       q    Type
REMARK                         _______ _______ _______ _____ _____    ______ ____
ROOT
ATOM      1  C   UNL     1      35.841 -21.008 -18.958  0.00  0.00    +0.045 C 
ATOM      2  C   UNL     1      35.198 -19.841 -21.436  0.00  0.00    +0.125 C 
ATOM      3  C   UNL     1      36.823 -20.351 -19.722  0.00  0.00    +0.016 C 
ATOM      4  C   UNL     1      34.530 -21.067 -19.464  0.00  0.00    +0.016 C 
ATOM      5  C   UNL     1      36.504 -19.773 -20.950  0.00  0.00    +0.021 C 
ATOM      6  C   UNL     1      34.211 -20.489 -20.693  0.00  0.00    +0.021 C 
ENDROOT
BRANCH   2   7
ATOM      7  S   UNL     1      34.800 -19.118 -22.974  0.00  0.00    +0.075 S 
ATOM      8  O   UNL     1      33.397 -18.724 -22.931  0.00  0.00    -0.150 OA
ATOM      9  O   UNL     1      35.247 -20.008 -24.038  0.00  0.00    -0.150 OA
BRANCH   7  10
ATOM     10  N   UNL     1      35.757 -17.685 -22.982  0.00  0.00    -0.199 N 
ATOM     11  H   UNL     1      36.656 -17.679 -23.383  0.00  0.00    +0.175 HD
ATOM     12  N   UNL     1      35.034 -16.541 -21.050  0.00  0.00    -0.228 NA
ATOM     13  C   UNL     1      35.204 -16.499 -22.385  0.00  0.00    +0.147 C 
ATOM     14  C   UNL     1      34.888 -15.419 -23.187  0.00  0.00    +0.036 C 
ATOM     15  C   UNL     1      34.355 -14.294 -22.568  0.00  0.00    +0.005 C 
ATOM     16  C   UNL     1      34.514 -15.429 -20.483  0.00  0.00    +0.100 C 
ATOM     17  C   UNL     1      34.162 -14.291 -21.190  0.00  0.00    +0.021 C 
ENDBRANCH   7  10
ENDBRANCH   2   7
BRANCH   1  18
ATOM     18  N   UNL     1      36.157 -21.582 -17.736  0.00  0.00    -0.328 N 
ATOM     19  H   UNL     1      36.974 -21.277 -17.277  0.00  0.00    +0.147 HD
BRANCH  18  20
ATOM     20  C   UNL     1      35.361 -22.602 -17.099  0.00  0.00    +0.127 C 
BRANCH  20  26
ATOM     21  S   UNL     1      32.621 -23.711 -15.030  0.00  0.00    -0.104 S 
ATOM     22  O   UNL     1      38.178 -22.309 -16.308  0.00  0.00    -0.210 OA
ATOM     23  N   UNL     1      37.631 -23.037 -14.164  0.00  0.00    -0.333 NA
ATOM     24  N   UNL     1      32.577 -24.446 -12.543  0.00  0.00    -0.262 NA
ATOM     25  C   UNL     1      35.377 -23.323 -14.615  0.00  0.00    +0.033 C 
ATOM     26  C   UNL     1      35.914 -22.891 -15.754  0.00  0.00    +0.092 C 
ATOM     27  C   UNL     1      36.496 -23.394 -13.662  0.00  0.00    +0.142 C 
ATOM     28  C   UNL     1      34.094 -23.688 -14.179  0.00  0.00    +0.114 C 
ATOM     29  C   UNL     1      37.371 -22.702 -15.477  0.00  0.00    +0.202 C 
ATOM     30  C   UNL     1      33.863 -24.110 -12.880  0.00  0.00    +0.069 C 
ATOM     31  C   UNL     1      36.207 -23.853 -12.276  0.00  0.00    +0.034 C 
ATOM     32  C   UNL     1      34.943 -24.183 -11.943  0.00  0.00    +0.018 C 
ATOM     33  C   UNL     1      31.826 -24.272 -13.610  0.00  0.00    +0.183 C 
ENDBRANCH  20  26
ENDBRANCH  18  20
ENDBRANCH   1  18
TORSDOF 5
ENDMDL
