MODEL 1
REMARK VINA RESULT:     -13.1      0.000      0.000
REMARK  Name = 24780387
REMARK  3 active torsions:
REMARK  status: ('A' for Active; 'I' for Inactive)
REMARK    1  A    between atoms: N_3  and  C_25
REMARK    2  A    between atoms: C_18  and  O_23
REMARK    3  A    between atoms: C_25  and  N_26
REMARK                            x       y       z     vdW  Elec       q    Type
REMARK                         _______ _______ _______ _____ _____    ______ ____
ROOT
ATOM      1  O   UNL     1      32.875 -25.020 -12.413  0.00  0.00    -0.270 OA
ATOM      2  O   UNL     1      36.196 -23.407 -15.191  0.00  0.00    -0.270 OA
ATOM      3  N   UNL     1      34.823 -24.339 -13.540  0.00  0.00    -0.244 N 
ATOM      4  N   UNL     1      32.038 -22.065 -18.104  0.00  0.00    -0.353 N 
ATOM      5  C   UNL     1      31.503 -23.841 -14.851  0.00  0.00    -0.020 A 
ATOM      6  C   UNL     1      31.145 -23.215 -16.054  0.00  0.00    -0.010 A 
ATOM      7  C   UNL     1      32.829 -23.937 -14.523  0.00  0.00    +0.054 A 
ATOM      8  C   UNL     1      30.292 -24.272 -14.091  0.00  0.00    +0.027 C 
ATOM      9  C   UNL     1      29.649 -23.167 -16.197  0.00  0.00    +0.028 C 
ATOM     10  C   UNL     1      32.144 -22.712 -16.900  0.00  0.00    +0.052 A 
ATOM     11  C   UNL     1      33.820 -23.442 -15.370  0.00  0.00    +0.059 A 
ATOM     12  C   UNL     1      29.221 -24.245 -15.191  0.00  0.00    +0.009 C 
ATOM     13  C   UNL     1      33.513 -22.811 -16.591  0.00  0.00    +0.024 A 
ATOM     14  C   UNL     1      33.473 -24.512 -13.343  0.00  0.00    +0.253 C 
ATOM     15  C   UNL     1      35.110 -23.705 -14.732  0.00  0.00    +0.253 C 
ATOM     16  C   UNL     1      34.228 -22.199 -17.676  0.00  0.00    +0.051 A 
ATOM     17  C   UNL     1      33.279 -21.747 -18.598  0.00  0.00    +0.060 A 
ATOM     18  C   UNL     1      35.589 -21.978 -17.979  0.00  0.00    +0.140 C 
ATOM     19  C   UNL     1      33.619 -21.093 -19.790  0.00  0.00    +0.017 C 
ATOM     20  C   UNL     1      35.947 -21.326 -19.167  0.00  0.00    +0.037 C 
ATOM     21  C   UNL     1      34.973 -20.891 -20.059  0.00  0.00    +0.005 C 
ATOM     22  H   UNL     1      31.187 -21.856 -18.555  0.00  0.00    +0.166 HD
ENDROOT
BRANCH  18  23
ATOM     23  O   UNL     1      36.642 -22.362 -17.197  0.00  0.00    -0.471 OA
ATOM     24  C   UNL     1      37.529 -21.336 -16.762  0.00  0.00    +0.252 C 
ENDBRANCH  18  23
BRANCH   3  25
ATOM     25  C   UNL     1      35.845 -24.768 -12.605  0.00  0.00    +0.028 C 
BRANCH  25  26
ATOM     26  N   UNL     1      37.060 -25.103 -13.345  0.00  0.00    +0.396 N 
ATOM     27  N   UNL     1      39.452 -26.662 -13.800  0.00  0.00    +0.383 N 
ATOM     28  C   UNL     1      38.248 -24.941 -12.497  0.00  0.00    -0.098 C 
ATOM     29  C   UNL     1      36.989 -26.471 -13.872  0.00  0.00    -0.098 C 
ATOM     30  C   UNL     1      39.523 -25.294 -13.272  0.00  0.00    -0.101 C 
ATOM     31  C   UNL     1      38.263 -26.823 -14.647  0.00  0.00    -0.101 C 
ATOM     32  C   UNL     1      40.667 -26.995 -14.541  0.00  0.00    -0.101 C 
ATOM     33  H   UNL     1      37.137 -24.458 -14.132  0.00  0.00    -0.077 HD
ATOM     34  H   UNL     1      39.376 -27.306 -13.014  0.00  0.00    -0.080 HD
ENDBRANCH  25  26
ENDBRANCH   3  25
TORSDOF 3
ENDMDL
MODEL 2
REMARK VINA RESULT:     -11.8      1.197      4.588
REMARK  Name = 24780387
REMARK  3 active torsions:
REMARK  status: ('A' for Active; 'I' for Inactive)
REMARK    1  A    between atoms: N_3  and  C_25
REMARK    2  A    between atoms: C_18  and  O_23
REMARK    3  A    between atoms: C_25  and  N_26
REMARK                            x       y       z     vdW  Elec       q    Type
REMARK                         _______ _______ _______ _____ _____    ______ ____
ROOT
ATOM      1  O   UNL     1      37.776 -22.748 -16.488  0.00  0.00    -0.270 OA
ATOM      2  O   UNL     1      34.422 -24.265 -13.696  0.00  0.00    -0.270 OA
ATOM      3  N   UNL     1      36.376 -23.636 -14.821  0.00  0.00    -0.244 N 
ATOM      4  N   UNL     1      31.410 -22.383 -17.563  0.00  0.00    -0.353 N 
ATOM      5  C   UNL     1      35.134 -22.098 -17.834  0.00  0.00    -0.020 A 
ATOM      6  C   UNL     1      33.796 -21.946 -18.226  0.00  0.00    -0.010 A 
ATOM      7  C   UNL     1      35.409 -22.713 -16.642  0.00  0.00    +0.054 A 
ATOM      8  C   UNL     1      36.061 -21.565 -18.877  0.00  0.00    +0.027 C 
ATOM      9  C   UNL     1      33.715 -21.299 -19.581  0.00  0.00    +0.028 C 
ATOM     10  C   UNL     1      32.770 -22.412 -17.392  0.00  0.00    +0.052 A 
ATOM     11  C   UNL     1      34.386 -23.169 -15.812  0.00  0.00    +0.059 A 
ATOM     12  C   UNL     1      35.113 -20.676 -19.695  0.00  0.00    +0.009 C 
ATOM     13  C   UNL     1      33.028 -23.035 -16.156  0.00  0.00    +0.024 A 
ATOM     14  C   UNL     1      36.691 -23.016 -16.007  0.00  0.00    +0.253 C 
ATOM     15  C   UNL     1      35.015 -23.765 -14.632  0.00  0.00    +0.253 C 
ATOM     16  C   UNL     1      31.752 -23.369 -15.586  0.00  0.00    +0.051 A 
ATOM     17  C   UNL     1      30.770 -22.949 -16.488  0.00  0.00    +0.060 A 
ATOM     18  C   UNL     1      31.320 -23.989 -14.393  0.00  0.00    +0.140 C 
ATOM     19  C   UNL     1      29.398 -23.116 -16.259  0.00  0.00    +0.017 C 
ATOM     20  C   UNL     1      29.952 -24.163 -14.149  0.00  0.00    +0.037 C 
ATOM     21  C   UNL     1      29.005 -23.731 -15.071  0.00  0.00    +0.005 C 
ATOM     22  H   UNL     1      30.953 -22.005 -18.350  0.00  0.00    +0.166 HD
ENDROOT
BRANCH  18  23
ATOM     23  O   UNL     1      32.143 -24.449 -13.403  0.00  0.00    -0.471 OA
ATOM     24  C   UNL     1      31.595 -25.410 -12.506  0.00  0.00    +0.252 C 
ENDBRANCH  18  23
BRANCH   3  25
ATOM     25  C   UNL     1      37.357 -24.112 -13.864  0.00  0.00    +0.028 C 
BRANCH  25  26
ATOM     26  N   UNL     1      38.282 -25.019 -14.538  0.00  0.00    +0.396 N 
ATOM     27  N   UNL     1      39.914 -27.402 -14.673  0.00  0.00    +0.383 N 
ATOM     28  C   UNL     1      39.546 -25.121 -13.797  0.00  0.00    -0.098 C 
ATOM     29  C   UNL     1      37.679 -26.348 -14.707  0.00  0.00    -0.098 C 
ATOM     30  C   UNL     1      40.517 -26.075 -14.502  0.00  0.00    -0.101 C 
ATOM     31  C   UNL     1      38.651 -27.300 -15.413  0.00  0.00    -0.101 C 
ATOM     32  C   UNL     1      40.841 -28.309 -15.348  0.00  0.00    -0.101 C 
ATOM     33  H   UNL     1      38.482 -24.637 -15.462  0.00  0.00    -0.077 HD
ATOM     34  H   UNL     1      39.716 -27.786 -13.749  0.00  0.00    -0.080 HD
ENDBRANCH  25  26
ENDBRANCH   3  25
TORSDOF 3
ENDMDL
MODEL 3
REMARK VINA RESULT:     -11.2      2.533      6.619
REMARK  Name = 24780387
REMARK  3 active torsions:
REMARK  status: ('A' for Active; 'I' for Inactive)
REMARK    1  A    between atoms: N_3  and  C_25
REMARK    2  A    between atoms: C_18  and  O_23
REMARK    3  A    between atoms: C_25  and  N_26
REMARK                            x       y       z     vdW  Elec       q    Type
REMARK                         _______ _______ _______ _____ _____    ______ ____
ROOT
ATOM      1  O   UNL     1      32.298 -25.203 -12.348  0.00  0.00    -0.270 OA
ATOM      2  O   UNL     1      32.084 -23.650 -16.694  0.00  0.00    -0.270 OA
ATOM      3  N   UNL     1      31.804 -24.553 -14.553  0.00  0.00    -0.244 N 
ATOM      4  N   UNL     1      37.041 -22.279 -15.630  0.00  0.00    -0.353 N 
ATOM      5  C   UNL     1      34.994 -23.961 -12.984  0.00  0.00    -0.020 A 
ATOM      6  C   UNL     1      36.125 -23.355 -13.550  0.00  0.00    -0.010 A 
ATOM      7  C   UNL     1      33.864 -24.096 -13.744  0.00  0.00    +0.054 A 
ATOM      8  C   UNL     1      35.271 -24.411 -11.587  0.00  0.00    +0.027 C 
ATOM      9  C   UNL     1      37.266 -23.354 -12.572  0.00  0.00    +0.028 C 
ATOM     10  C   UNL     1      36.075 -22.890 -14.872  0.00  0.00    +0.052 A 
ATOM     11  C   UNL     1      33.816 -23.626 -15.056  0.00  0.00    +0.059 A 
ATOM     12  C   UNL     1      36.524 -23.589 -11.250  0.00  0.00    +0.009 C 
ATOM     13  C   UNL     1      34.921 -23.004 -15.668  0.00  0.00    +0.024 A 
ATOM     14  C   UNL     1      32.570 -24.696 -13.420  0.00  0.00    +0.253 C 
ATOM     15  C   UNL     1      32.480 -23.922 -15.577  0.00  0.00    +0.253 C 
ATOM     16  C   UNL     1      35.237 -22.422 -16.943  0.00  0.00    +0.051 A 
ATOM     17  C   UNL     1      36.562 -21.981 -16.882  0.00  0.00    +0.060 A 
ATOM     18  C   UNL     1      34.536 -22.219 -18.152  0.00  0.00    +0.140 C 
ATOM     19  C   UNL     1      37.212 -21.358 -17.956  0.00  0.00    +0.017 C 
ATOM     20  C   UNL     1      35.171 -21.596 -19.234  0.00  0.00    +0.037 C 
ATOM     21  C   UNL     1      36.492 -21.172 -19.135  0.00  0.00    +0.005 C 
ATOM     22  H   UNL     1      37.954 -22.079 -15.319  0.00  0.00    +0.166 HD
ENDROOT
BRANCH  18  23
ATOM     23  O   UNL     1      33.237 -22.577 -18.378  0.00  0.00    -0.471 OA
ATOM     24  C   UNL     1      32.408 -21.619 -19.030  0.00  0.00    +0.252 C 
ENDBRANCH  18  23
BRANCH   3  25
ATOM     25  C   UNL     1      30.434 -25.013 -14.674  0.00  0.00    +0.028 C 
BRANCH  25  26
ATOM     26  N   UNL     1      29.644 -23.988 -15.352  0.00  0.00    +0.396 N 
ATOM     27  N   UNL     1      27.156 -22.675 -16.019  0.00  0.00    +0.383 N 
ATOM     28  C   UNL     1      28.684 -24.598 -16.281  0.00  0.00    -0.098 C 
ATOM     29  C   UNL     1      28.945 -23.139 -14.379  0.00  0.00    -0.098 C 
ATOM     30  C   UNL     1      27.853 -23.524 -16.992  0.00  0.00    -0.101 C 
ATOM     31  C   UNL     1      28.115 -22.064 -15.090  0.00  0.00    -0.101 C 
ATOM     32  C   UNL     1      26.367 -21.649 -16.699  0.00  0.00    -0.101 C 
ATOM     33  H   UNL     1      30.282 -23.402 -15.890  0.00  0.00    -0.077 HD
ATOM     34  H   UNL     1      26.516 -23.260 -15.482  0.00  0.00    -0.080 HD
ENDBRANCH  25  26
ENDBRANCH   3  25
TORSDOF 3
ENDMDL
MODEL 4
REMARK VINA RESULT:     -11.2      2.285      6.591
REMARK  Name = 24780387
REMARK  3 active torsions:
REMARK  status: ('A' for Active; 'I' for Inactive)
REMARK    1  A    between atoms: N_3  and  C_25
REMARK    2  A    between atoms: C_18  and  O_23
REMARK    3  A    between atoms: C_25  and  N_26
REMARK                            x       y       z     vdW  Elec       q    Type
REMARK                         _______ _______ _______ _____ _____    ______ ____
ROOT
ATOM      1  O   UNL     1      32.694 -22.400 -18.841  0.00  0.00    -0.270 OA
ATOM      2  O   UNL     1      36.766 -22.786 -16.691  0.00  0.00    -0.270 OA
ATOM      3  N   UNL     1      34.927 -22.500 -18.111  0.00  0.00    -0.244 N 
ATOM      4  N   UNL     1      33.640 -23.910 -12.625  0.00  0.00    -0.353 N 
ATOM      5  C   UNL     1      32.111 -23.104 -15.946  0.00  0.00    -0.020 A 
ATOM      6  C   UNL     1      32.137 -23.450 -14.587  0.00  0.00    -0.010 A 
ATOM      7  C   UNL     1      33.295 -22.912 -16.604  0.00  0.00    +0.054 A 
ATOM      8  C   UNL     1      30.708 -23.050 -16.457  0.00  0.00    +0.027 C 
ATOM      9  C   UNL     1      30.741 -23.665 -14.072  0.00  0.00    +0.028 C 
ATOM     10  C   UNL     1      33.367 -23.580 -13.927  0.00  0.00    +0.052 A 
ATOM     11  C   UNL     1      34.517 -23.035 -15.942  0.00  0.00    +0.059 A 
ATOM     12  C   UNL     1      29.914 -22.947 -15.147  0.00  0.00    +0.009 C 
ATOM     13  C   UNL     1      34.597 -23.374 -14.578  0.00  0.00    +0.024 A 
ATOM     14  C   UNL     1      33.558 -22.570 -18.001  0.00  0.00    +0.253 C 
ATOM     15  C   UNL     1      35.572 -22.766 -16.921  0.00  0.00    +0.253 C 
ATOM     16  C   UNL     1      35.626 -23.587 -13.598  0.00  0.00    +0.051 A 
ATOM     17  C   UNL     1      34.994 -23.919 -12.396  0.00  0.00    +0.060 A 
ATOM     18  C   UNL     1      37.037 -23.535 -13.601  0.00  0.00    +0.140 C 
ATOM     19  C   UNL     1      35.693 -24.197 -11.214  0.00  0.00    +0.017 C 
ATOM     20  C   UNL     1      37.751 -23.810 -12.428  0.00  0.00    +0.037 C 
ATOM     21  C   UNL     1      37.086 -24.136 -11.251  0.00  0.00    +0.005 C 
ATOM     22  H   UNL     1      32.957 -24.114 -11.944  0.00  0.00    +0.166 HD
ENDROOT
BRANCH  18  23
ATOM     23  O   UNL     1      37.811 -23.219 -14.682  0.00  0.00    -0.471 OA
ATOM     24  C   UNL     1      38.872 -24.115 -14.999  0.00  0.00    +0.252 C 
ENDBRANCH  18  23
BRANCH   3  25
ATOM     25  C   UNL     1      35.631 -22.183 -19.339  0.00  0.00    +0.028 C 
BRANCH  25  26
ATOM     26  N   UNL     1      35.487 -20.757 -19.620  0.00  0.00    +0.396 N 
ATOM     27  N   UNL     1      35.671 -18.437 -21.335  0.00  0.00    +0.383 N 
ATOM     28  C   UNL     1      36.785 -20.157 -19.954  0.00  0.00    -0.098 C 
ATOM     29  C   UNL     1      34.524 -20.533 -20.706  0.00  0.00    -0.098 C 
ATOM     30  C   UNL     1      36.634 -18.660 -20.250  0.00  0.00    -0.101 C 
ATOM     31  C   UNL     1      34.373 -19.037 -21.001  0.00  0.00    -0.101 C 
ATOM     32  C   UNL     1      35.527 -17.009 -21.613  0.00  0.00    -0.101 C 
ATOM     33  H   UNL     1      35.132 -20.304 -18.777  0.00  0.00    -0.077 HD
ATOM     34  H   UNL     1      36.026 -18.887 -22.178  0.00  0.00    -0.080 HD
ENDBRANCH  25  26
ENDBRANCH   3  25
TORSDOF 3
ENDMDL
MODEL 5
REMARK VINA RESULT:     -10.4      1.424      1.754
REMARK  Name = 24780387
REMARK  3 active torsions:
REMARK  status: ('A' for Active; 'I' for Inactive)
REMARK    1  A    between atoms: N_3  and  C_25
REMARK    2  A    between atoms: C_18  and  O_23
REMARK    3  A    between atoms: C_25  and  N_26
REMARK                            x       y       z     vdW  Elec       q    Type
REMARK                         _______ _______ _______ _____ _____    ______ ____
ROOT
ATOM      1  O   UNL     1      31.710 -25.087 -12.403  0.00  0.00    -0.270 OA
ATOM      2  O   UNL     1      35.497 -23.807 -14.721  0.00  0.00    -0.270 OA
ATOM      3  N   UNL     1      33.842 -24.602 -13.269  0.00  0.00    -0.244 N 
ATOM      4  N   UNL     1      31.889 -22.030 -18.098  0.00  0.00    -0.353 N 
ATOM      5  C   UNL     1      30.778 -23.760 -14.969  0.00  0.00    -0.020 A 
ATOM      6  C   UNL     1      30.637 -23.093 -16.195  0.00  0.00    -0.010 A 
ATOM      7  C   UNL     1      32.036 -23.993 -14.482  0.00  0.00    +0.054 A 
ATOM      8  C   UNL     1      29.444 -24.068 -14.371  0.00  0.00    +0.027 C 
ATOM      9  C   UNL     1      29.183 -22.892 -16.520  0.00  0.00    +0.028 C 
ATOM     10  C   UNL     1      31.778 -22.691 -16.902  0.00  0.00    +0.052 A 
ATOM     11  C   UNL     1      33.170 -23.597 -15.192  0.00  0.00    +0.059 A 
ATOM     12  C   UNL     1      28.527 -23.925 -15.594  0.00  0.00    +0.009 C 
ATOM     13  C   UNL     1      33.082 -22.931 -16.429  0.00  0.00    +0.024 A 
ATOM     14  C   UNL     1      32.468 -24.637 -13.243  0.00  0.00    +0.253 C 
ATOM     15  C   UNL     1      34.337 -23.994 -14.405  0.00  0.00    +0.253 C 
ATOM     16  C   UNL     1      33.985 -22.390 -17.407  0.00  0.00    +0.051 A 
ATOM     17  C   UNL     1      33.208 -21.838 -18.431  0.00  0.00    +0.060 A 
ATOM     18  C   UNL     1      35.388 -22.308 -17.537  0.00  0.00    +0.140 C 
ATOM     19  C   UNL     1      33.757 -21.216 -19.559  0.00  0.00    +0.017 C 
ATOM     20  C   UNL     1      35.954 -21.690 -18.659  0.00  0.00    +0.037 C 
ATOM     21  C   UNL     1      35.147 -21.152 -19.657  0.00  0.00    +0.005 C 
ATOM     22  H   UNL     1      31.126 -21.733 -18.647  0.00  0.00    +0.166 HD
ENDROOT
BRANCH  18  23
ATOM     23  O   UNL     1      36.292 -22.802 -16.638  0.00  0.00    -0.471 OA
ATOM     24  C   UNL     1      37.509 -22.079 -16.485  0.00  0.00    +0.252 C 
ENDBRANCH  18  23
BRANCH   3  25
ATOM     25  C   UNL     1      34.692 -25.139 -12.223  0.00  0.00    +0.028 C 
BRANCH  25  26
ATOM     26  N   UNL     1      35.993 -24.477 -12.278  0.00  0.00    +0.396 N 
ATOM     27  N   UNL     1      38.576 -23.778 -11.183  0.00  0.00    +0.383 N 
ATOM     28  C   UNL     1      36.122 -23.489 -11.200  0.00  0.00    -0.098 C 
ATOM     29  C   UNL     1      37.082 -25.460 -12.205  0.00  0.00    -0.098 C 
ATOM     30  C   UNL     1      37.488 -22.796 -11.255  0.00  0.00    -0.101 C 
ATOM     31  C   UNL     1      38.447 -24.766 -12.262  0.00  0.00    -0.101 C 
ATOM     32  C   UNL     1      39.878 -23.115 -11.240  0.00  0.00    -0.101 C 
ATOM     33  H   UNL     1      36.061 -23.988 -13.171  0.00  0.00    -0.077 HD
ATOM     34  H   UNL     1      38.510 -24.266 -10.291  0.00  0.00    -0.080 HD
ENDBRANCH  25  26
ENDBRANCH   3  25
TORSDOF 3
ENDMDL
