MODEL 1
REMARK VINA RESULT:     -11.9      0.000      0.000
REMARK  Name = 5326929
REMARK  3 active torsions:
REMARK  status: ('A' for Active; 'I' for Inactive)
REMARK    1  A    between atoms: C_7  and  C_21
REMARK    2  A    between atoms: C_21  and  C_22
REMARK    3  A    between atoms: C_22  and  C_23
REMARK                            x       y       z     vdW  Elec       q    Type
REMARK                         _______ _______ _______ _____ _____    ______ ____
ROOT
ATOM      1  O   UNL     1      34.841 -24.899 -11.579  0.00  0.00    -0.209 OA
ATOM      2  N   UNL     1      34.712 -22.977 -15.090  0.00  0.00    -0.275 N 
ATOM      3  N   UNL     1      29.977 -25.300 -13.525  0.00  0.00    -0.315 N 
ATOM      4  N   UNL     1      29.937 -24.224 -15.469  0.00  0.00    -0.316 N 
ATOM      5  N   UNL     1      35.937 -23.674 -13.173  0.00  0.00    -0.302 NA
ATOM      6  N   UNL     1      36.925 -22.415 -14.883  0.00  0.00    -0.320 N 
ATOM      7  C   UNL     1      32.356 -23.519 -15.410  0.00  0.00    +0.007 C 
ATOM      8  C   UNL     1      33.533 -23.585 -14.648  0.00  0.00    +0.060 C 
ATOM      9  C   UNL     1      31.197 -24.147 -14.920  0.00  0.00    +0.056 C 
ATOM     10  C   UNL     1      31.247 -24.813 -13.700  0.00  0.00    +0.060 C 
ATOM     11  C   UNL     1      33.544 -24.267 -13.421  0.00  0.00    +0.109 C 
ATOM     12  C   UNL     1      32.398 -24.900 -12.916  0.00  0.00    +0.029 C 
ATOM     13  C   UNL     1      34.822 -24.306 -12.653  0.00  0.00    +0.208 C 
ATOM     14  C   UNL     1      29.232 -24.922 -14.608  0.00  0.00    +0.182 C 
ATOM     15  C   UNL     1      35.850 -23.058 -14.322  0.00  0.00    +0.248 C 
ATOM     16  H   UNL     1      34.727 -22.494 -15.947  0.00  0.00    +0.156 HD
ATOM     17  H   UNL     1      29.658 -25.827 -12.758  0.00  0.00    +0.148 HD
ATOM     18  H   UNL     1      29.631 -23.840 -16.322  0.00  0.00    +0.148 HD
ATOM     19  H   UNL     1      36.828 -21.959 -15.751  0.00  0.00    +0.146 HD
ATOM     20  H   UNL     1      37.793 -22.409 -14.419  0.00  0.00    +0.146 HD
ENDROOT
BRANCH   7  21
ATOM     21  C   UNL     1      32.336 -22.793 -16.718  0.00  0.00    +0.034 C 
BRANCH  21  22
ATOM     22  C   UNL     1      33.354 -23.328 -17.743  0.00  0.00    +0.031 C 
BRANCH  22  23
ATOM     23  C   UNL     1      33.940 -22.248 -18.619  0.00  0.00    -0.022 C 
ATOM     24  C   UNL     1      35.317 -22.102 -18.690  0.00  0.00    -0.005 C 
ATOM     25  C   UNL     1      33.092 -21.422 -19.339  0.00  0.00    -0.005 C 
ATOM     26  C   UNL     1      35.016 -20.265 -20.230  0.00  0.00    -0.022 C 
ATOM     27  C   UNL     1      35.858 -21.104 -19.500  0.00  0.00    -0.005 C 
ATOM     28  C   UNL     1      33.633 -20.424 -20.149  0.00  0.00    -0.005 C 
ATOM     29  C   UNL     1      35.595 -19.199 -21.097  0.00  0.00    +0.031 C 
ENDBRANCH  22  23
ENDBRANCH  21  22
ENDBRANCH   7  21
TORSDOF 3
ENDMDL
MODEL 2
REMARK VINA RESULT:     -11.6      1.821      4.332
REMARK  Name = 5326929
REMARK  3 active torsions:
REMARK  status: ('A' for Active; 'I' for Inactive)
REMARK    1  A    between atoms: C_7  and  C_21
REMARK    2  A    between atoms: C_21  and  C_22
REMARK    3  A    between atoms: C_22  and  C_23
REMARK                            x       y       z     vdW  Elec       q    Type
REMARK                         _______ _______ _______ _____ _____    ______ ____
ROOT
ATOM      1  O   UNL     1      28.625 -25.605 -13.605  0.00  0.00    -0.209 OA
ATOM      2  N   UNL     1      29.764 -23.151 -16.558  0.00  0.00    -0.275 N 
ATOM      3  N   UNL     1      33.822 -24.903 -13.283  0.00  0.00    -0.315 N 
ATOM      4  N   UNL     1      34.423 -23.541 -14.932  0.00  0.00    -0.316 N 
ATOM      5  N   UNL     1      28.042 -24.332 -15.417  0.00  0.00    -0.302 NA
ATOM      6  N   UNL     1      27.596 -22.993 -17.287  0.00  0.00    -0.320 N 
ATOM      7  C   UNL     1      32.101 -23.249 -15.868  0.00  0.00    +0.007 C 
ATOM      8  C   UNL     1      30.759 -23.624 -15.697  0.00  0.00    +0.060 C 
ATOM      9  C   UNL     1      33.064 -23.753 -14.976  0.00  0.00    +0.056 C 
ATOM     10  C   UNL     1      32.663 -24.605 -13.952  0.00  0.00    +0.060 C 
ATOM     11  C   UNL     1      30.393 -24.486 -14.652  0.00  0.00    +0.109 C 
ATOM     12  C   UNL     1      31.339 -24.999 -13.751  0.00  0.00    +0.029 C 
ATOM     13  C   UNL     1      28.954 -24.851 -14.516  0.00  0.00    +0.208 C 
ATOM     14  C   UNL     1      34.845 -24.243 -13.906  0.00  0.00    +0.182 C 
ATOM     15  C   UNL     1      28.457 -23.535 -16.366  0.00  0.00    +0.248 C 
ATOM     16  H   UNL     1      29.998 -22.545 -17.297  0.00  0.00    +0.156 HD
ATOM     17  H   UNL     1      33.903 -25.487 -12.495  0.00  0.00    +0.148 HD
ATOM     18  H   UNL     1      34.961 -22.982 -15.538  0.00  0.00    +0.148 HD
ATOM     19  H   UNL     1      27.939 -22.395 -17.991  0.00  0.00    +0.146 HD
ATOM     20  H   UNL     1      26.635 -23.200 -17.244  0.00  0.00    +0.146 HD
ENDROOT
BRANCH   7  21
ATOM     21  C   UNL     1      32.499 -22.331 -16.981  0.00  0.00    +0.034 C 
BRANCH  21  22
ATOM     22  C   UNL     1      33.508 -22.949 -17.968  0.00  0.00    +0.031 C 
BRANCH  22  23
ATOM     23  C   UNL     1      34.207 -21.923 -18.825  0.00  0.00    -0.022 C 
ATOM     24  C   UNL     1      33.453 -21.066 -19.613  0.00  0.00    -0.005 C 
ATOM     25  C   UNL     1      35.591 -21.854 -18.810  0.00  0.00    -0.005 C 
ATOM     26  C   UNL     1      35.493 -20.039 -20.401  0.00  0.00    -0.022 C 
ATOM     27  C   UNL     1      34.100 -20.118 -20.405  0.00  0.00    -0.005 C 
ATOM     28  C   UNL     1      36.238 -20.907 -19.603  0.00  0.00    -0.005 C 
ATOM     29  C   UNL     1      36.184 -19.025 -21.247  0.00  0.00    +0.031 C 
ENDBRANCH  22  23
ENDBRANCH  21  22
ENDBRANCH   7  21
TORSDOF 3
ENDMDL
MODEL 3
REMARK VINA RESULT:     -11.1      1.289      4.064
REMARK  Name = 5326929
REMARK  3 active torsions:
REMARK  status: ('A' for Active; 'I' for Inactive)
REMARK    1  A    between atoms: C_7  and  C_21
REMARK    2  A    between atoms: C_21  and  C_22
REMARK    3  A    between atoms: C_22  and  C_23
REMARK                            x       y       z     vdW  Elec       q    Type
REMARK                         _______ _______ _______ _____ _____    ______ ____
ROOT
ATOM      1  O   UNL     1      30.738 -24.307 -12.049  0.00  0.00    -0.209 OA
ATOM      2  N   UNL     1      30.928 -23.968 -16.035  0.00  0.00    -0.275 N 
ATOM      3  N   UNL     1      35.709 -23.279 -13.404  0.00  0.00    -0.315 N 
ATOM      4  N   UNL     1      35.782 -23.098 -15.617  0.00  0.00    -0.316 N 
ATOM      5  N   UNL     1      29.652 -24.355 -14.064  0.00  0.00    -0.302 NA
ATOM      6  N   UNL     1      28.676 -24.375 -16.194  0.00  0.00    -0.320 N 
ATOM      7  C   UNL     1      33.325 -23.525 -15.980  0.00  0.00    +0.007 C 
ATOM      8  C   UNL     1      32.117 -23.801 -15.320  0.00  0.00    +0.060 C 
ATOM      9  C   UNL     1      34.494 -23.367 -15.215  0.00  0.00    +0.056 C 
ATOM     10  C   UNL     1      34.422 -23.486 -13.831  0.00  0.00    +0.060 C 
ATOM     11  C   UNL     1      32.085 -23.913 -13.921  0.00  0.00    +0.109 C 
ATOM     12  C   UNL     1      33.240 -23.757 -13.140  0.00  0.00    +0.029 C 
ATOM     13  C   UNL     1      30.775 -24.206 -13.272  0.00  0.00    +0.208 C 
ATOM     14  C   UNL     1      36.483 -23.051 -14.508  0.00  0.00    +0.182 C 
ATOM     15  C   UNL     1      29.759 -24.237 -15.362  0.00  0.00    +0.248 C 
ATOM     16  H   UNL     1      30.927 -23.892 -17.016  0.00  0.00    +0.156 HD
ATOM     17  H   UNL     1      36.020 -23.291 -12.470  0.00  0.00    +0.148 HD
ATOM     18  H   UNL     1      36.107 -22.967 -16.537  0.00  0.00    +0.148 HD
ATOM     19  H   UNL     1      28.789 -24.280 -17.169  0.00  0.00    +0.146 HD
ATOM     20  H   UNL     1      27.788 -24.569 -15.819  0.00  0.00    +0.146 HD
ENDROOT
BRANCH   7  21
ATOM     21  C   UNL     1      33.367 -23.405 -17.471  0.00  0.00    +0.034 C 
BRANCH  21  22
ATOM     22  C   UNL     1      32.683 -22.136 -18.013  0.00  0.00    +0.031 C 
BRANCH  22  23
ATOM     23  C   UNL     1      33.530 -21.380 -19.007  0.00  0.00    -0.022 C 
ATOM     24  C   UNL     1      32.913 -20.590 -19.965  0.00  0.00    -0.005 C 
ATOM     25  C   UNL     1      34.910 -21.488 -18.944  0.00  0.00    -0.005 C 
ATOM     26  C   UNL     1      35.087 -19.992 -20.833  0.00  0.00    -0.022 C 
ATOM     27  C   UNL     1      33.697 -19.892 -20.883  0.00  0.00    -0.005 C 
ATOM     28  C   UNL     1      35.694 -20.790 -19.862  0.00  0.00    -0.005 C 
ATOM     29  C   UNL     1      35.924 -19.244 -21.813  0.00  0.00    +0.031 C 
ENDBRANCH  22  23
ENDBRANCH  21  22
ENDBRANCH   7  21
TORSDOF 3
ENDMDL
MODEL 4
REMARK VINA RESULT:     -10.2      2.924      5.936
REMARK  Name = 5326929
REMARK  3 active torsions:
REMARK  status: ('A' for Active; 'I' for Inactive)
REMARK    1  A    between atoms: C_7  and  C_21
REMARK    2  A    between atoms: C_21  and  C_22
REMARK    3  A    between atoms: C_22  and  C_23
REMARK                            x       y       z     vdW  Elec       q    Type
REMARK                         _______ _______ _______ _____ _____    ______ ____
ROOT
ATOM      1  O   UNL     1      37.496 -21.757 -16.693  0.00  0.00    -0.209 OA
ATOM      2  N   UNL     1      33.989 -23.579 -16.040  0.00  0.00    -0.275 N 
ATOM      3  N   UNL     1      37.408 -23.485 -11.732  0.00  0.00    -0.315 N 
ATOM      4  N   UNL     1      35.454 -24.488 -11.400  0.00  0.00    -0.316 N 
ATOM      5  N   UNL     1      35.457 -22.411 -17.505  0.00  0.00    -0.302 NA
ATOM      6  N   UNL     1      33.340 -23.140 -18.196  0.00  0.00    -0.320 N 
ATOM      7  C   UNL     1      34.578 -24.096 -13.731  0.00  0.00    +0.007 C 
ATOM      8  C   UNL     1      34.894 -23.529 -14.975  0.00  0.00    +0.060 C 
ATOM      9  C   UNL     1      35.522 -24.018 -12.692  0.00  0.00    +0.056 C 
ATOM     10  C   UNL     1      36.738 -23.385 -12.924  0.00  0.00    +0.060 C 
ATOM     11  C   UNL     1      36.132 -22.897 -15.171  0.00  0.00    +0.109 C 
ATOM     12  C   UNL     1      37.088 -22.810 -14.148  0.00  0.00    +0.029 C 
ATOM     13  C   UNL     1      36.416 -22.312 -16.513  0.00  0.00    +0.208 C 
ATOM     14  C   UNL     1      36.599 -24.152 -10.854  0.00  0.00    +0.182 C 
ATOM     15  C   UNL     1      34.326 -23.014 -17.249  0.00  0.00    +0.248 C 
ATOM     16  H   UNL     1      33.115 -24.017 -15.926  0.00  0.00    +0.156 HD
ATOM     17  H   UNL     1      38.310 -23.139 -11.542  0.00  0.00    +0.148 HD
ATOM     18  H   UNL     1      34.707 -24.971 -10.978  0.00  0.00    +0.148 HD
ATOM     19  H   UNL     1      32.498 -23.601 -17.972  0.00  0.00    +0.146 HD
ATOM     20  H   UNL     1      33.475 -22.772 -19.098  0.00  0.00    +0.146 HD
ENDROOT
BRANCH   7  21
ATOM     21  C   UNL     1      33.259 -24.770 -13.515  0.00  0.00    +0.034 C 
BRANCH  21  22
ATOM     22  C   UNL     1      32.130 -23.809 -13.099  0.00  0.00    +0.031 C 
BRANCH  22  23
ATOM     23  C   UNL     1      30.983 -23.778 -14.079  0.00  0.00    -0.022 C 
ATOM     24  C   UNL     1      30.917 -22.758 -15.016  0.00  0.00    -0.005 C 
ATOM     25  C   UNL     1      30.016 -24.769 -14.026  0.00  0.00    -0.005 C 
ATOM     26  C   UNL     1      28.875 -23.720 -15.879  0.00  0.00    -0.022 C 
ATOM     27  C   UNL     1      29.856 -22.730 -15.922  0.00  0.00    -0.005 C 
ATOM     28  C   UNL     1      28.956 -24.741 -14.932  0.00  0.00    -0.005 C 
ATOM     29  C   UNL     1      27.743 -23.691 -16.848  0.00  0.00    +0.031 C 
ENDBRANCH  22  23
ENDBRANCH  21  22
ENDBRANCH   7  21
TORSDOF 3
ENDMDL
MODEL 5
REMARK VINA RESULT:     -10.2      2.001      4.552
REMARK  Name = 5326929
REMARK  3 active torsions:
REMARK  status: ('A' for Active; 'I' for Inactive)
REMARK    1  A    between atoms: C_7  and  C_21
REMARK    2  A    between atoms: C_21  and  C_22
REMARK    3  A    between atoms: C_22  and  C_23
REMARK                            x       y       z     vdW  Elec       q    Type
REMARK                         _______ _______ _______ _____ _____    ______ ____
ROOT
ATOM      1  O   UNL     1      34.583 -25.283 -11.080  0.00  0.00    -0.209 OA
ATOM      2  N   UNL     1      34.206 -22.967 -14.326  0.00  0.00    -0.275 N 
ATOM      3  N   UNL     1      39.161 -25.261 -13.658  0.00  0.00    -0.315 N 
ATOM      4  N   UNL     1      38.920 -23.971 -15.451  0.00  0.00    -0.316 N 
ATOM      5  N   UNL     1      33.259 -23.927 -12.365  0.00  0.00    -0.302 NA
ATOM      6  N   UNL     1      32.024 -22.522 -13.776  0.00  0.00    -0.320 N 
ATOM      7  C   UNL     1      36.514 -23.372 -15.002  0.00  0.00    +0.007 C 
ATOM      8  C   UNL     1      35.448 -23.573 -14.111  0.00  0.00    +0.060 C 
ATOM      9  C   UNL     1      37.742 -24.006 -14.741  0.00  0.00    +0.056 C 
ATOM     10  C   UNL     1      37.867 -24.809 -13.613  0.00  0.00    +0.060 C 
ATOM     11  C   UNL     1      35.613 -24.391 -12.982  0.00  0.00    +0.109 C 
ATOM     12  C   UNL     1      36.831 -25.030 -12.704  0.00  0.00    +0.029 C 
ATOM     13  C   UNL     1      34.447 -24.569 -12.069  0.00  0.00    +0.208 C 
ATOM     14  C   UNL     1      39.749 -24.732 -14.774  0.00  0.00    +0.182 C 
ATOM     15  C   UNL     1      33.179 -23.181 -13.435  0.00  0.00    +0.248 C 
ATOM     16  H   UNL     1      34.068 -22.388 -15.110  0.00  0.00    +0.156 HD
ATOM     17  H   UNL     1      39.590 -25.858 -13.004  0.00  0.00    +0.148 HD
ATOM     18  H   UNL     1      39.103 -23.480 -16.284  0.00  0.00    +0.148 HD
ATOM     19  H   UNL     1      31.996 -21.966 -14.589  0.00  0.00    +0.146 HD
ATOM     20  H   UNL     1      31.225 -22.604 -13.209  0.00  0.00    +0.146 HD
ENDROOT
BRANCH   7  21
ATOM     21  C   UNL     1      36.344 -22.502 -16.207  0.00  0.00    +0.034 C 
BRANCH  21  22
ATOM     22  C   UNL     1      35.113 -22.856 -17.063  0.00  0.00    +0.031 C 
BRANCH  22  23
ATOM     23  C   UNL     1      34.957 -21.973 -18.276  0.00  0.00    -0.022 C 
ATOM     24  C   UNL     1      33.687 -21.706 -18.765  0.00  0.00    -0.005 C 
ATOM     25  C   UNL     1      36.086 -21.444 -18.881  0.00  0.00    -0.005 C 
ATOM     26  C   UNL     1      34.672 -20.351 -20.507  0.00  0.00    -0.022 C 
ATOM     27  C   UNL     1      33.544 -20.890 -19.887  0.00  0.00    -0.005 C 
ATOM     28  C   UNL     1      35.943 -20.628 -20.003  0.00  0.00    -0.005 C 
ATOM     29  C   UNL     1      34.518 -19.478 -21.705  0.00  0.00    +0.031 C 
ENDBRANCH  22  23
ENDBRANCH  21  22
ENDBRANCH   7  21
TORSDOF 3
ENDMDL
MODEL 6
REMARK VINA RESULT:     -10.1      1.421      4.112
REMARK  Name = 5326929
REMARK  3 active torsions:
REMARK  status: ('A' for Active; 'I' for Inactive)
REMARK    1  A    between atoms: C_7  and  C_21
REMARK    2  A    between atoms: C_21  and  C_22
REMARK    3  A    between atoms: C_22  and  C_23
REMARK                            x       y       z     vdW  Elec       q    Type
REMARK                         _______ _______ _______ _____ _____    ______ ____
ROOT
ATOM      1  O   UNL     1      34.207 -24.171 -11.626  0.00  0.00    -0.209 OA
ATOM      2  N   UNL     1      32.424 -24.286 -15.211  0.00  0.00    -0.275 N 
ATOM      3  N   UNL     1      37.512 -22.193 -15.199  0.00  0.00    -0.315 N 
ATOM      4  N   UNL     1      36.496 -22.271 -17.174  0.00  0.00    -0.316 N 
ATOM      5  N   UNL     1      32.363 -24.714 -12.871  0.00  0.00    -0.302 NA
ATOM      6  N   UNL     1      30.553 -25.219 -14.269  0.00  0.00    -0.320 N 
ATOM      7  C   UNL     1      34.361 -23.297 -16.313  0.00  0.00    +0.007 C 
ATOM      8  C   UNL     1      33.719 -23.762 -15.155  0.00  0.00    +0.060 C 
ATOM      9  C   UNL     1      35.665 -22.780 -16.203  0.00  0.00    +0.056 C 
ATOM     10  C   UNL     1      36.279 -22.743 -14.956  0.00  0.00    +0.060 C 
ATOM     11  C   UNL     1      34.372 -23.707 -13.913  0.00  0.00    +0.109 C 
ATOM     12  C   UNL     1      35.672 -23.194 -13.783  0.00  0.00    +0.029 C 
ATOM     13  C   UNL     1      33.643 -24.214 -12.715  0.00  0.00    +0.208 C 
ATOM     14  C   UNL     1      37.593 -21.929 -16.539  0.00  0.00    +0.182 C 
ATOM     15  C   UNL     1      31.819 -24.733 -14.059  0.00  0.00    +0.248 C 
ATOM     16  H   UNL     1      31.947 -24.333 -16.070  0.00  0.00    +0.156 HD
ATOM     17  H   UNL     1      38.212 -22.019 -14.530  0.00  0.00    +0.148 HD
ATOM     18  H   UNL     1      36.309 -22.182 -18.137  0.00  0.00    +0.148 HD
ATOM     19  H   UNL     1      30.170 -25.220 -15.178  0.00  0.00    +0.146 HD
ATOM     20  H   UNL     1      30.026 -25.566 -13.514  0.00  0.00    +0.146 HD
ENDROOT
BRANCH   7  21
ATOM     21  C   UNL     1      33.672 -23.353 -17.640  0.00  0.00    +0.034 C 
BRANCH  21  22
ATOM     22  C   UNL     1      32.893 -22.072 -17.991  0.00  0.00    +0.031 C 
BRANCH  22  23
ATOM     23  C   UNL     1      33.504 -21.297 -19.133  0.00  0.00    -0.022 C 
ATOM     24  C   UNL     1      32.675 -20.647 -20.035  0.00  0.00    -0.005 C 
ATOM     25  C   UNL     1      34.883 -21.248 -19.260  0.00  0.00    -0.005 C 
ATOM     26  C   UNL     1      34.627 -19.874 -21.231  0.00  0.00    -0.022 C 
ATOM     27  C   UNL     1      33.241 -19.931 -21.090  0.00  0.00    -0.005 C 
ATOM     28  C   UNL     1      35.449 -20.532 -20.315  0.00  0.00    -0.005 C 
ATOM     29  C   UNL     1      35.232 -19.108 -22.358  0.00  0.00    +0.031 C 
ENDBRANCH  22  23
ENDBRANCH  21  22
ENDBRANCH   7  21
TORSDOF 3
ENDMDL
MODEL 7
REMARK VINA RESULT:     -10.0      3.098      6.645
REMARK  Name = 5326929
REMARK  3 active torsions:
REMARK  status: ('A' for Active; 'I' for Inactive)
REMARK    1  A    between atoms: C_7  and  C_21
REMARK    2  A    between atoms: C_21  and  C_22
REMARK    3  A    between atoms: C_22  and  C_23
REMARK                            x       y       z     vdW  Elec       q    Type
REMARK                         _______ _______ _______ _____ _____    ______ ____
ROOT
ATOM      1  O   UNL     1      36.924 -20.201 -19.612  0.00  0.00    -0.209 OA
ATOM      2  N   UNL     1      33.628 -22.090 -18.341  0.00  0.00    -0.275 N 
ATOM      3  N   UNL     1      38.152 -23.022 -15.353  0.00  0.00    -0.315 N 
ATOM      4  N   UNL     1      36.306 -24.055 -14.672  0.00  0.00    -0.316 N 
ATOM      5  N   UNL     1      34.692 -20.631 -19.892  0.00  0.00    -0.302 NA
ATOM      6  N   UNL     1      32.416 -21.161 -20.053  0.00  0.00    -0.320 N 
ATOM      7  C   UNL     1      34.822 -23.130 -16.487  0.00  0.00    +0.007 C 
ATOM      8  C   UNL     1      34.805 -22.294 -17.615  0.00  0.00    +0.060 C 
ATOM      9  C   UNL     1      36.032 -23.301 -15.791  0.00  0.00    +0.056 C 
ATOM     10  C   UNL     1      37.173 -22.644 -16.236  0.00  0.00    +0.060 C 
ATOM     11  C   UNL     1      35.978 -21.647 -18.034  0.00  0.00    +0.109 C 
ATOM     12  C   UNL     1      37.195 -21.807 -17.353  0.00  0.00    +0.029 C 
ATOM     13  C   UNL     1      35.903 -20.772 -19.239  0.00  0.00    +0.208 C 
ATOM     14  C   UNL     1      37.584 -23.865 -14.438  0.00  0.00    +0.182 C 
ATOM     15  C   UNL     1      33.641 -21.266 -19.443  0.00  0.00    +0.248 C 
ATOM     16  H   UNL     1      32.794 -22.534 -18.066  0.00  0.00    +0.156 HD
ATOM     17  H   UNL     1      39.094 -22.738 -15.374  0.00  0.00    +0.148 HD
ATOM     18  H   UNL     1      35.680 -24.615 -14.159  0.00  0.00    +0.148 HD
ATOM     19  H   UNL     1      31.642 -21.652 -19.690  0.00  0.00    +0.146 HD
ATOM     20  H   UNL     1      32.310 -20.597 -20.852  0.00  0.00    +0.146 HD
ENDROOT
BRANCH   7  21
ATOM     21  C   UNL     1      33.575 -23.822 -16.034  0.00  0.00    +0.034 C 
BRANCH  21  22
ATOM     22  C   UNL     1      32.905 -23.162 -14.814  0.00  0.00    +0.031 C 
BRANCH  22  23
ATOM     23  C   UNL     1      31.412 -23.011 -14.964  0.00  0.00    -0.022 C 
ATOM     24  C   UNL     1      30.615 -22.955 -13.830  0.00  0.00    -0.005 C 
ATOM     25  C   UNL     1      30.861 -22.929 -16.233  0.00  0.00    -0.005 C 
ATOM     26  C   UNL     1      28.667 -22.733 -15.242  0.00  0.00    -0.022 C 
ATOM     27  C   UNL     1      29.235 -22.815 -13.971  0.00  0.00    -0.005 C 
ATOM     28  C   UNL     1      29.480 -22.789 -16.374  0.00  0.00    -0.005 C 
ATOM     29  C   UNL     1      27.192 -22.581 -15.391  0.00  0.00    +0.031 C 
ENDBRANCH  22  23
ENDBRANCH  21  22
ENDBRANCH   7  21
TORSDOF 3
ENDMDL
MODEL 8
REMARK VINA RESULT:      -9.7      2.889      5.723
REMARK  Name = 5326929
REMARK  3 active torsions:
REMARK  status: ('A' for Active; 'I' for Inactive)
REMARK    1  A    between atoms: C_7  and  C_21
REMARK    2  A    between atoms: C_21  and  C_22
REMARK    3  A    between atoms: C_22  and  C_23
REMARK                            x       y       z     vdW  Elec       q    Type
REMARK                         _______ _______ _______ _____ _____    ______ ____
ROOT
ATOM      1  O   UNL     1      38.679 -22.780 -11.277  0.00  0.00    -0.209 OA
ATOM      2  N   UNL     1      35.094 -24.563 -11.363  0.00  0.00    -0.275 N 
ATOM      3  N   UNL     1      36.662 -22.245 -16.099  0.00  0.00    -0.315 N 
ATOM      4  N   UNL     1      34.677 -23.244 -16.115  0.00  0.00    -0.316 N 
ATOM      5  N   UNL     1      37.059 -23.956 -10.166  0.00  0.00    -0.302 NA
ATOM      6  N   UNL     1      35.319 -25.160  -9.160  0.00  0.00    -0.320 N 
ATOM      7  C   UNL     1      34.752 -23.980 -13.706  0.00  0.00    +0.007 C 
ATOM      8  C   UNL     1      35.538 -23.958 -12.543  0.00  0.00    +0.060 C 
ATOM      9  C   UNL     1      35.245 -23.358 -14.867  0.00  0.00    +0.056 C 
ATOM     10  C   UNL     1      36.491 -22.740 -14.832  0.00  0.00    +0.060 C 
ATOM     11  C   UNL     1      36.791 -23.325 -12.547  0.00  0.00    +0.109 C 
ATOM     12  C   UNL     1      37.299 -22.697 -13.694  0.00  0.00    +0.029 C 
ATOM     13  C   UNL     1      37.583 -23.331 -11.283  0.00  0.00    +0.208 C 
ATOM     14  C   UNL     1      35.552 -22.571 -16.828  0.00  0.00    +0.182 C 
ATOM     15  C   UNL     1      35.885 -24.526 -10.238  0.00  0.00    +0.248 C 
ATOM     16  H   UNL     1      34.219 -25.012 -11.338  0.00  0.00    +0.156 HD
ATOM     17  H   UNL     1      37.443 -21.744 -16.426  0.00  0.00    +0.148 HD
ATOM     18  H   UNL     1      33.804 -23.590 -16.410  0.00  0.00    +0.148 HD
ATOM     19  H   UNL     1      34.432 -25.580  -9.246  0.00  0.00    +0.146 HD
ATOM     20  H   UNL     1      35.798 -25.194  -8.302  0.00  0.00    +0.146 HD
ENDROOT
BRANCH   7  21
ATOM     21  C   UNL     1      33.417 -24.654 -13.710  0.00  0.00    +0.034 C 
BRANCH  21  22
ATOM     22  C   UNL     1      32.264 -23.756 -13.226  0.00  0.00    +0.031 C 
BRANCH  22  23
ATOM     23  C   UNL     1      31.096 -23.719 -14.180  0.00  0.00    -0.022 C 
ATOM     24  C   UNL     1      31.130 -22.856 -15.265  0.00  0.00    -0.005 C 
ATOM     25  C   UNL     1      30.009 -24.549 -13.957  0.00  0.00    -0.005 C 
ATOM     26  C   UNL     1      28.949 -23.652 -15.933  0.00  0.00    -0.022 C 
ATOM     27  C   UNL     1      30.049 -22.822 -16.146  0.00  0.00    -0.005 C 
ATOM     28  C   UNL     1      28.929 -24.516 -14.838  0.00  0.00    -0.005 C 
ATOM     29  C   UNL     1      27.795 -23.617 -16.876  0.00  0.00    +0.031 C 
ENDBRANCH  22  23
ENDBRANCH  21  22
ENDBRANCH   7  21
TORSDOF 3
ENDMDL
MODEL 9
REMARK VINA RESULT:      -9.7      3.087      6.516
REMARK  Name = 5326929
REMARK  3 active torsions:
REMARK  status: ('A' for Active; 'I' for Inactive)
REMARK    1  A    between atoms: C_7  and  C_21
REMARK    2  A    between atoms: C_21  and  C_22
REMARK    3  A    between atoms: C_22  and  C_23
REMARK                            x       y       z     vdW  Elec       q    Type
REMARK                         _______ _______ _______ _____ _____    ______ ____
ROOT
ATOM      1  O   UNL     1      29.287 -22.862 -16.659  0.00  0.00    -0.209 OA
ATOM      2  N   UNL     1      32.049 -24.032 -14.006  0.00  0.00    -0.275 N 
ATOM      3  N   UNL     1      34.046 -21.907 -18.671  0.00  0.00    -0.315 N 
ATOM      4  N   UNL     1      35.554 -22.565 -17.177  0.00  0.00    -0.316 N 
ATOM      5  N   UNL     1      29.763 -23.780 -14.616  0.00  0.00    -0.302 NA
ATOM      6  N   UNL     1      30.400 -24.701 -12.559  0.00  0.00    -0.320 N 
ATOM      7  C   UNL     1      33.880 -23.355 -15.467  0.00  0.00    +0.007 C 
ATOM      8  C   UNL     1      32.506 -23.485 -15.208  0.00  0.00    +0.060 C 
ATOM      9  C   UNL     1      34.287 -22.797 -16.692  0.00  0.00    +0.056 C 
ATOM     10  C   UNL     1      33.324 -22.393 -17.610  0.00  0.00    +0.060 C 
ATOM     11  C   UNL     1      31.563 -23.065 -16.160  0.00  0.00    +0.109 C 
ATOM     12  C   UNL     1      31.951 -22.508 -17.388  0.00  0.00    +0.029 C 
ATOM     13  C   UNL     1      30.117 -23.227 -15.833  0.00  0.00    +0.208 C 
ATOM     14  C   UNL     1      35.373 -22.032 -18.364  0.00  0.00    +0.182 C 
ATOM     15  C   UNL     1      30.697 -24.148 -13.779  0.00  0.00    +0.248 C 
ATOM     16  H   UNL     1      32.692 -24.334 -13.325  0.00  0.00    +0.156 HD
ATOM     17  H   UNL     1      33.676 -21.536 -19.503  0.00  0.00    +0.148 HD
ATOM     18  H   UNL     1      36.410 -22.757 -16.732  0.00  0.00    +0.148 HD
ATOM     19  H   UNL     1      31.127 -24.969 -11.950  0.00  0.00    +0.146 HD
ATOM     20  H   UNL     1      29.463 -24.831 -12.292  0.00  0.00    +0.146 HD
ENDROOT
BRANCH   7  21
ATOM     21  C   UNL     1      34.890 -23.800 -14.457  0.00  0.00    +0.034 C 
BRANCH  21  22
ATOM     22  C   UNL     1      35.230 -25.300 -14.535  0.00  0.00    +0.031 C 
BRANCH  22  23
ATOM     23  C   UNL     1      36.692 -25.592 -14.307  0.00  0.00    -0.022 C 
ATOM     24  C   UNL     1      37.421 -24.787 -13.444  0.00  0.00    -0.005 C 
ATOM     25  C   UNL     1      37.282 -26.661 -14.962  0.00  0.00    -0.005 C 
ATOM     26  C   UNL     1      39.380 -26.130 -13.888  0.00  0.00    -0.022 C 
ATOM     27  C   UNL     1      38.772 -25.058 -13.233  0.00  0.00    -0.005 C 
ATOM     28  C   UNL     1      38.634 -26.932 -14.752  0.00  0.00    -0.005 C 
ATOM     29  C   UNL     1      40.824 -26.420 -13.661  0.00  0.00    +0.031 C 
ENDBRANCH  22  23
ENDBRANCH  21  22
ENDBRANCH   7  21
TORSDOF 3
ENDMDL
