MODEL 1
REMARK VINA RESULT:     -11.9      0.000      0.000
REMARK  Name = 446805
REMARK  6 active torsions:
REMARK  status: ('A' for Active; 'I' for Inactive)
REMARK    1  A    between atoms: C_4  and  C_22
REMARK    2  A    between atoms: C_7  and  N_11
REMARK    3  A    between atoms: N_11  and  S_13
REMARK    4  A    between atoms: S_13  and  C_16
REMARK    5  A    between atoms: C_22  and  C_23
REMARK    6  A    between atoms: C_28  and  C_31
REMARK                            x       y       z     vdW  Elec       q    Type
REMARK                         _______ _______ _______ _____ _____    ______ ____
ROOT
ATOM      1  N   UNL     1      34.004 -22.826 -16.942  0.00  0.00    -0.262 N 
ATOM      2  N   UNL     1      32.145 -22.172 -17.968  0.00  0.00    -0.394 NA
ATOM      3  C   UNL     1      34.422 -22.084 -18.016  0.00  0.00    +0.079 C 
ATOM      4  C   UNL     1      32.638 -22.850 -16.956  0.00  0.00    +0.168 C 
ATOM      5  C   UNL     1      33.243 -21.685 -18.640  0.00  0.00    +0.129 C 
ATOM      6  C   UNL     1      33.314 -20.893 -19.799  0.00  0.00    +0.103 C 
ATOM      7  C   UNL     1      34.578 -20.532 -20.284  0.00  0.00    +0.050 C 
ATOM      8  C   UNL     1      35.690 -21.734 -18.481  0.00  0.00    +0.018 C 
ATOM      9  C   UNL     1      34.861 -23.469 -15.971  0.00  0.00    +0.119 C 
ATOM     10  C   UNL     1      35.743 -20.945 -19.635  0.00  0.00    +0.013 C 
ENDROOT
BRANCH   7  11
ATOM     11  N   UNL     1      34.674 -19.728 -21.461  0.00  0.00    -0.219 N 
ATOM     12  H   UNL     1      34.127 -19.912 -22.259  0.00  0.00    +0.173 HD
BRANCH  11  13
ATOM     13  S   UNL     1      35.802 -18.407 -21.414  0.00  0.00    +0.073 S 
ATOM     14  O   UNL     1      37.077 -18.847 -21.947  0.00  0.00    -0.150 OA
ATOM     15  O   UNL     1      35.729 -17.763 -20.116  0.00  0.00    -0.150 OA
BRANCH  13  16
ATOM     16  C   UNL     1      35.091 -17.286 -22.583  0.00  0.00    +0.125 C 
ATOM     17  C   UNL     1      35.005 -15.942 -22.261  0.00  0.00    +0.020 C 
ATOM     18  C   UNL     1      34.635 -17.773 -23.794  0.00  0.00    +0.020 C 
ATOM     19  C   UNL     1      34.445 -15.058 -23.183  0.00  0.00    +0.001 C 
ATOM     20  C   UNL     1      34.075 -16.888 -24.716  0.00  0.00    +0.001 C 
ATOM     21  C   UNL     1      33.980 -15.531 -24.411  0.00  0.00    +0.000 C 
ENDBRANCH  13  16
ENDBRANCH  11  13
ENDBRANCH   7  11
BRANCH   4  22
ATOM     22  C   UNL     1      31.853 -23.569 -15.931  0.00  0.00    +0.101 C 
BRANCH  22  23
ATOM     23  C   UNL     1      30.382 -23.175 -15.891  0.00  0.00    -0.014 C 
ATOM     24  C   UNL     1      29.558 -23.573 -16.923  0.00  0.00    -0.004 C 
ATOM     25  C   UNL     1      29.921 -22.431 -14.825  0.00  0.00    -0.004 C 
ATOM     26  C   UNL     1      28.210 -23.212 -16.886  0.00  0.00    +0.002 C 
ATOM     27  C   UNL     1      28.575 -22.069 -14.788  0.00  0.00    +0.002 C 
ATOM     28  C   UNL     1      27.719 -22.460 -15.819  0.00  0.00    +0.031 C 
BRANCH  28  31
ATOM     29  N   UNL     1      25.731 -21.357 -16.818  0.00  0.00    -0.343 N 
ATOM     30  N   UNL     1      25.569 -22.427 -14.746  0.00  0.00    -0.285 NA
ATOM     31  C   UNL     1      26.315 -22.083 -15.781  0.00  0.00    +0.117 C 
ATOM     32  H   UNL     1      24.779 -21.112 -16.771  0.00  0.00    +0.144 HD
ATOM     33  H   UNL     1      26.271 -21.089 -17.597  0.00  0.00    +0.144 HD
ATOM     34  H   UNL     1      24.619 -22.172 -14.718  0.00  0.00    +0.188 HD
ENDBRANCH  28  31
ENDBRANCH  22  23
ENDBRANCH   4  22
TORSDOF 6
ENDMDL
MODEL 2
REMARK VINA RESULT:     -11.7      3.283      9.687
REMARK  Name = 446805
REMARK  6 active torsions:
REMARK  status: ('A' for Active; 'I' for Inactive)
REMARK    1  A    between atoms: C_4  and  C_22
REMARK    2  A    between atoms: C_7  and  N_11
REMARK    3  A    between atoms: N_11  and  S_13
REMARK    4  A    between atoms: S_13  and  C_16
REMARK    5  A    between atoms: C_22  and  C_23
REMARK    6  A    between atoms: C_28  and  C_31
REMARK                            x       y       z     vdW  Elec       q    Type
REMARK                         _______ _______ _______ _____ _____    ______ ____
ROOT
ATOM      1  N   UNL     1      35.830 -19.092 -21.895  0.00  0.00    -0.262 N 
ATOM      2  N   UNL     1      33.646 -19.175 -22.302  0.00  0.00    -0.394 NA
ATOM      3  C   UNL     1      35.303 -19.886 -20.908  0.00  0.00    +0.079 C 
ATOM      4  C   UNL     1      34.802 -18.692 -22.701  0.00  0.00    +0.168 C 
ATOM      5  C   UNL     1      33.940 -19.923 -21.185  0.00  0.00    +0.129 C 
ATOM      6  C   UNL     1      33.090 -20.666 -20.348  0.00  0.00    +0.103 C 
ATOM      7  C   UNL     1      33.652 -21.346 -19.260  0.00  0.00    +0.050 C 
ATOM      8  C   UNL     1      35.885 -20.556 -19.832  0.00  0.00    +0.018 C 
ATOM      9  C   UNL     1      37.224 -18.743 -22.049  0.00  0.00    +0.119 C 
ATOM     10  C   UNL     1      35.025 -21.291 -19.008  0.00  0.00    +0.013 C 
ENDROOT
BRANCH   7  11
ATOM     11  N   UNL     1      32.807 -22.107 -18.395  0.00  0.00    -0.219 N 
ATOM     12  H   UNL     1      31.831 -21.976 -18.380  0.00  0.00    +0.173 HD
BRANCH  11  13
ATOM     13  S   UNL     1      33.585 -23.276 -17.372  0.00  0.00    +0.073 S 
ATOM     14  O   UNL     1      34.864 -22.752 -16.933  0.00  0.00    -0.150 OA
ATOM     15  O   UNL     1      33.499 -24.584 -17.993  0.00  0.00    -0.150 OA
BRANCH  13  16
ATOM     16  C   UNL     1      32.507 -23.302 -15.971  0.00  0.00    +0.125 C 
ATOM     17  C   UNL     1      33.047 -23.474 -14.708  0.00  0.00    +0.020 C 
ATOM     18  C   UNL     1      31.146 -23.149 -16.164  0.00  0.00    +0.020 C 
ATOM     19  C   UNL     1      32.196 -23.493 -13.603  0.00  0.00    +0.001 C 
ATOM     20  C   UNL     1      30.295 -23.169 -15.059  0.00  0.00    +0.001 C 
ATOM     21  C   UNL     1      30.820 -23.341 -13.778  0.00  0.00    +0.000 C 
ENDBRANCH  13  16
ENDBRANCH  11  13
ENDBRANCH   7  11
BRANCH   4  22
ATOM     22  C   UNL     1      35.017 -17.818 -23.873  0.00  0.00    +0.101 C 
BRANCH  22  23
ATOM     23  C   UNL     1      34.600 -16.371 -23.648  0.00  0.00    -0.014 C 
ATOM     24  C   UNL     1      34.914 -15.766 -22.449  0.00  0.00    -0.004 C 
ATOM     25  C   UNL     1      33.922 -15.709 -24.651  0.00  0.00    -0.004 C 
ATOM     26  C   UNL     1      34.532 -14.440 -22.242  0.00  0.00    +0.002 C 
ATOM     27  C   UNL     1      33.540 -14.384 -24.445  0.00  0.00    +0.002 C 
ATOM     28  C   UNL     1      33.845 -13.749 -23.241  0.00  0.00    +0.031 C 
BRANCH  28  31
ATOM     29  N   UNL     1      34.156 -11.311 -23.594  0.00  0.00    -0.343 N 
ATOM     30  N   UNL     1      32.393 -12.095 -22.275  0.00  0.00    -0.285 NA
ATOM     31  C   UNL     1      33.446 -12.367 -23.025  0.00  0.00    +0.117 C 
ATOM     32  H   UNL     1      33.868 -10.383 -23.435  0.00  0.00    +0.144 HD
ATOM     33  H   UNL     1      34.945 -11.492 -24.154  0.00  0.00    +0.144 HD
ATOM     34  H   UNL     1      32.122 -11.161 -22.128  0.00  0.00    +0.188 HD
ENDBRANCH  28  31
ENDBRANCH  22  23
ENDBRANCH   4  22
TORSDOF 6
ENDMDL
MODEL 3
REMARK VINA RESULT:     -11.6      2.741      6.359
REMARK  Name = 446805
REMARK  6 active torsions:
REMARK  status: ('A' for Active; 'I' for Inactive)
REMARK    1  A    between atoms: C_4  and  C_22
REMARK    2  A    between atoms: C_7  and  N_11
REMARK    3  A    between atoms: N_11  and  S_13
REMARK    4  A    between atoms: S_13  and  C_16
REMARK    5  A    between atoms: C_22  and  C_23
REMARK    6  A    between atoms: C_28  and  C_31
REMARK                            x       y       z     vdW  Elec       q    Type
REMARK                         _______ _______ _______ _____ _____    ______ ____
ROOT
ATOM      1  N   UNL     1      33.204 -22.550 -17.157  0.00  0.00    -0.262 N 
ATOM      2  N   UNL     1      35.414 -22.623 -17.385  0.00  0.00    -0.394 NA
ATOM      3  C   UNL     1      33.475 -21.871 -18.317  0.00  0.00    +0.079 C 
ATOM      4  C   UNL     1      34.393 -22.979 -16.638  0.00  0.00    +0.168 C 
ATOM      5  C   UNL     1      34.860 -21.931 -18.438  0.00  0.00    +0.129 C 
ATOM      6  C   UNL     1      35.479 -21.319 -19.542  0.00  0.00    +0.103 C 
ATOM      7  C   UNL     1      34.672 -20.669 -20.484  0.00  0.00    +0.050 C 
ATOM      8  C   UNL     1      32.651 -21.230 -19.243  0.00  0.00    +0.018 C 
ATOM      9  C   UNL     1      31.894 -22.769 -16.587  0.00  0.00    +0.119 C 
ATOM     10  C   UNL     1      33.283 -20.627 -20.336  0.00  0.00    +0.013 C 
ENDROOT
BRANCH   7  11
ATOM     11  N   UNL     1      35.279 -20.040 -21.614  0.00  0.00    -0.219 N 
ATOM     12  H   UNL     1      35.277 -20.462 -22.504  0.00  0.00    +0.173 HD
BRANCH  11  13
ATOM     13  S   UNL     1      36.021 -18.493 -21.341  0.00  0.00    +0.073 S 
ATOM     14  O   UNL     1      37.431 -18.574 -21.668  0.00  0.00    -0.150 OA
ATOM     15  O   UNL     1      35.593 -17.979 -20.054  0.00  0.00    -0.150 OA
BRANCH  13  16
ATOM     16  C   UNL     1      35.240 -17.497 -22.576  0.00  0.00    +0.125 C 
ATOM     17  C   UNL     1      34.688 -18.111 -23.687  0.00  0.00    +0.020 C 
ATOM     18  C   UNL     1      35.196 -16.125 -22.408  0.00  0.00    +0.020 C 
ATOM     19  C   UNL     1      34.071 -17.325 -24.661  0.00  0.00    +0.001 C 
ATOM     20  C   UNL     1      34.579 -15.339 -23.381  0.00  0.00    +0.001 C 
ATOM     21  C   UNL     1      34.017 -15.939 -24.508  0.00  0.00    +0.000 C 
ENDBRANCH  13  16
ENDBRANCH  11  13
ENDBRANCH   7  11
BRANCH   4  22
ATOM     22  C   UNL     1      34.469 -23.751 -15.380  0.00  0.00    +0.101 C 
BRANCH  22  23
ATOM     23  C   UNL     1      35.858 -24.300 -15.076  0.00  0.00    -0.014 C 
ATOM     24  C   UNL     1      36.926 -23.428 -15.040  0.00  0.00    -0.004 C 
ATOM     25  C   UNL     1      36.003 -25.652 -14.845  0.00  0.00    -0.004 C 
ATOM     26  C   UNL     1      38.197 -23.931 -14.761  0.00  0.00    +0.002 C 
ATOM     27  C   UNL     1      37.274 -26.155 -14.568  0.00  0.00    +0.002 C 
ATOM     28  C   UNL     1      38.371 -25.294 -14.525  0.00  0.00    +0.031 C 
BRANCH  28  31
ATOM     29  N   UNL     1      39.998 -27.167 -14.419  0.00  0.00    -0.343 N 
ATOM     30  N   UNL     1      40.640 -25.011 -13.785  0.00  0.00    -0.285 NA
ATOM     31  C   UNL     1      39.696 -25.819 -14.236  0.00  0.00    +0.117 C 
ATOM     32  H   UNL     1      40.902 -27.500 -14.216  0.00  0.00    +0.144 HD
ATOM     33  H   UNL     1      39.308 -27.785 -14.751  0.00  0.00    +0.144 HD
ATOM     34  H   UNL     1      41.537 -25.363 -13.588  0.00  0.00    +0.188 HD
ENDBRANCH  28  31
ENDBRANCH  22  23
ENDBRANCH   4  22
TORSDOF 6
ENDMDL
MODEL 4
REMARK VINA RESULT:     -11.5      5.081      9.934
REMARK  Name = 446805
REMARK  6 active torsions:
REMARK  status: ('A' for Active; 'I' for Inactive)
REMARK    1  A    between atoms: C_4  and  C_22
REMARK    2  A    between atoms: C_7  and  N_11
REMARK    3  A    between atoms: N_11  and  S_13
REMARK    4  A    between atoms: S_13  and  C_16
REMARK    5  A    between atoms: C_22  and  C_23
REMARK    6  A    between atoms: C_28  and  C_31
REMARK                            x       y       z     vdW  Elec       q    Type
REMARK                         _______ _______ _______ _____ _____    ______ ____
ROOT
ATOM      1  N   UNL     1      33.145 -23.277 -16.117  0.00  0.00    -0.262 N 
ATOM      2  N   UNL     1      35.221 -22.736 -16.698  0.00  0.00    -0.394 NA
ATOM      3  C   UNL     1      33.891 -23.408 -14.974  0.00  0.00    +0.079 C 
ATOM      4  C   UNL     1      33.984 -22.874 -17.118  0.00  0.00    +0.168 C 
ATOM      5  C   UNL     1      35.182 -23.064 -15.362  0.00  0.00    +0.129 C 
ATOM      6  C   UNL     1      36.215 -23.094 -14.409  0.00  0.00    +0.103 C 
ATOM      7  C   UNL     1      35.903 -23.470 -13.097  0.00  0.00    +0.050 C 
ATOM      8  C   UNL     1      33.556 -23.784 -13.672  0.00  0.00    +0.018 C 
ATOM      9  C   UNL     1      31.726 -23.523 -16.237  0.00  0.00    +0.119 C 
ATOM     10  C   UNL     1      34.596 -23.808 -12.737  0.00  0.00    +0.013 C 
ENDROOT
BRANCH   7  11
ATOM     11  N   UNL     1      36.937 -23.508 -12.112  0.00  0.00    -0.219 N 
ATOM     12  H   UNL     1      37.358 -22.684 -11.773  0.00  0.00    +0.173 HD
BRANCH  11  13
ATOM     13  S   UNL     1      37.415 -25.077 -11.540  0.00  0.00    +0.073 S 
ATOM     14  O   UNL     1      36.236 -25.903 -11.369  0.00  0.00    -0.150 OA
ATOM     15  O   UNL     1      38.368 -24.920 -10.457  0.00  0.00    -0.150 OA
BRANCH  13  16
ATOM     16  C   UNL     1      38.314 -25.706 -12.927  0.00  0.00    +0.125 C 
ATOM     17  C   UNL     1      37.682 -26.569 -13.805  0.00  0.00    +0.020 C 
ATOM     18  C   UNL     1      39.631 -25.324 -13.106  0.00  0.00    +0.020 C 
ATOM     19  C   UNL     1      38.391 -27.064 -14.899  0.00  0.00    +0.001 C 
ATOM     20  C   UNL     1      40.341 -25.820 -14.200  0.00  0.00    +0.001 C 
ATOM     21  C   UNL     1      39.721 -26.690 -15.097  0.00  0.00    +0.000 C 
ENDBRANCH  13  16
ENDBRANCH  11  13
ENDBRANCH   7  11
BRANCH   4  22
ATOM     22  C   UNL     1      33.505 -22.635 -18.496  0.00  0.00    +0.101 C 
BRANCH  22  23
ATOM     23  C   UNL     1      34.319 -21.599 -19.260  0.00  0.00    -0.014 C 
ATOM     24  C   UNL     1      35.695 -21.640 -19.180  0.00  0.00    -0.004 C 
ATOM     25  C   UNL     1      33.653 -20.650 -20.009  0.00  0.00    -0.004 C 
ATOM     26  C   UNL     1      36.440 -20.691 -19.881  0.00  0.00    +0.002 C 
ATOM     27  C   UNL     1      34.397 -19.701 -20.709  0.00  0.00    +0.002 C 
ATOM     28  C   UNL     1      35.791 -19.721 -20.645  0.00  0.00    +0.031 C 
BRANCH  28  31
ATOM     29  N   UNL     1      35.955 -17.819 -22.232  0.00  0.00    -0.343 N 
ATOM     30  N   UNL     1      37.880 -18.688 -21.231  0.00  0.00    -0.285 NA
ATOM     31  C   UNL     1      36.567 -18.731 -21.374  0.00  0.00    +0.117 C 
ATOM     32  H   UNL     1      36.500 -17.157 -22.716  0.00  0.00    +0.144 HD
ATOM     33  H   UNL     1      34.978 -17.836 -22.354  0.00  0.00    +0.144 HD
ATOM     34  H   UNL     1      38.407 -18.019 -21.724  0.00  0.00    +0.188 HD
ENDBRANCH  28  31
ENDBRANCH  22  23
ENDBRANCH   4  22
TORSDOF 6
ENDMDL
MODEL 5
REMARK VINA RESULT:     -11.4      5.307     11.295
REMARK  Name = 446805
REMARK  6 active torsions:
REMARK  status: ('A' for Active; 'I' for Inactive)
REMARK    1  A    between atoms: C_4  and  C_22
REMARK    2  A    between atoms: C_7  and  N_11
REMARK    3  A    between atoms: N_11  and  S_13
REMARK    4  A    between atoms: S_13  and  C_16
REMARK    5  A    between atoms: C_22  and  C_23
REMARK    6  A    between atoms: C_28  and  C_31
REMARK                            x       y       z     vdW  Elec       q    Type
REMARK                         _______ _______ _______ _____ _____    ______ ____
ROOT
ATOM      1  N   UNL     1      33.639 -13.424 -24.777  0.00  0.00    -0.262 N 
ATOM      2  N   UNL     1      33.969 -12.635 -22.725  0.00  0.00    -0.394 NA
ATOM      3  C   UNL     1      34.049 -14.500 -24.032  0.00  0.00    +0.079 C 
ATOM      4  C   UNL     1      33.607 -12.335 -23.952  0.00  0.00    +0.168 C 
ATOM      5  C   UNL     1      34.248 -13.982 -22.756  0.00  0.00    +0.129 C 
ATOM      6  C   UNL     1      34.680 -14.838 -21.728  0.00  0.00    +0.103 C 
ATOM      7  C   UNL     1      34.895 -16.188 -22.030  0.00  0.00    +0.050 C 
ATOM      8  C   UNL     1      34.256 -15.842 -24.355  0.00  0.00    +0.018 C 
ATOM      9  C   UNL     1      33.303 -13.444 -26.182  0.00  0.00    +0.119 C 
ATOM     10  C   UNL     1      34.685 -16.680 -23.321  0.00  0.00    +0.013 C 
ENDROOT
BRANCH   7  11
ATOM     11  N   UNL     1      35.335 -17.076 -21.001  0.00  0.00    -0.219 N 
ATOM     12  H   UNL     1      35.185 -16.877 -20.048  0.00  0.00    +0.173 HD
BRANCH  11  13
ATOM     13  S   UNL     1      36.145 -18.525 -21.512  0.00  0.00    +0.073 S 
ATOM     14  O   UNL     1      37.525 -18.484 -21.069  0.00  0.00    -0.150 OA
ATOM     15  O   UNL     1      35.826 -18.784 -22.904  0.00  0.00    -0.150 OA
BRANCH  13  16
ATOM     16  C   UNL     1      35.312 -19.759 -20.558  0.00  0.00    +0.125 C 
ATOM     17  C   UNL     1      36.057 -20.610 -19.760  0.00  0.00    +0.020 C 
ATOM     18  C   UNL     1      33.934 -19.849 -20.627  0.00  0.00    +0.020 C 
ATOM     19  C   UNL     1      35.399 -21.583 -19.006  0.00  0.00    +0.001 C 
ATOM     20  C   UNL     1      33.276 -20.822 -19.874  0.00  0.00    +0.001 C 
ATOM     21  C   UNL     1      34.009 -21.689 -19.064  0.00  0.00    +0.000 C 
ENDBRANCH  13  16
ENDBRANCH  11  13
ENDBRANCH   7  11
BRANCH   4  22
ATOM     22  C   UNL     1      33.205 -10.997 -24.434  0.00  0.00    +0.101 C 
BRANCH  22  23
ATOM     23  C   UNL     1      33.056  -9.962 -23.326  0.00  0.00    -0.014 C 
ATOM     24  C   UNL     1      32.050 -10.121 -22.396  0.00  0.00    -0.004 C 
ATOM     25  C   UNL     1      33.933  -8.897 -23.288  0.00  0.00    -0.004 C 
ATOM     26  C   UNL     1      31.914  -9.172 -21.382  0.00  0.00    +0.002 C 
ATOM     27  C   UNL     1      33.797  -7.948 -22.275  0.00  0.00    +0.002 C 
ATOM     28  C   UNL     1      32.787  -8.087 -21.322  0.00  0.00    +0.031 C 
BRANCH  28  31
ATOM     29  N   UNL     1      31.760  -6.028 -20.387  0.00  0.00    -0.343 N 
ATOM     30  N   UNL     1      33.367  -7.203 -19.163  0.00  0.00    -0.285 NA
ATOM     31  C   UNL     1      32.645  -7.097 -20.265  0.00  0.00    +0.117 C 
ATOM     32  H   UNL     1      31.680  -5.370 -19.659  0.00  0.00    +0.144 HD
ATOM     33  H   UNL     1      31.214  -5.930 -21.200  0.00  0.00    +0.144 HD
ATOM     34  H   UNL     1      33.273  -6.535 -18.447  0.00  0.00    +0.188 HD
ENDBRANCH  28  31
ENDBRANCH  22  23
ENDBRANCH   4  22
TORSDOF 6
ENDMDL
MODEL 6
REMARK VINA RESULT:     -11.3      4.597      9.594
REMARK  Name = 446805
REMARK  6 active torsions:
REMARK  status: ('A' for Active; 'I' for Inactive)
REMARK    1  A    between atoms: C_4  and  C_22
REMARK    2  A    between atoms: C_7  and  N_11
REMARK    3  A    between atoms: N_11  and  S_13
REMARK    4  A    between atoms: S_13  and  C_16
REMARK    5  A    between atoms: C_22  and  C_23
REMARK    6  A    between atoms: C_28  and  C_31
REMARK                            x       y       z     vdW  Elec       q    Type
REMARK                         _______ _______ _______ _____ _____    ______ ____
ROOT
ATOM      1  N   UNL     1      32.378 -23.190 -16.076  0.00  0.00    -0.262 N 
ATOM      2  N   UNL     1      34.429 -23.775 -16.701  0.00  0.00    -0.394 NA
ATOM      3  C   UNL     1      32.992 -23.645 -14.937  0.00  0.00    +0.079 C 
ATOM      4  C   UNL     1      33.276 -23.288 -17.101  0.00  0.00    +0.168 C 
ATOM      5  C   UNL     1      34.271 -24.003 -15.353  0.00  0.00    +0.129 C 
ATOM      6  C   UNL     1      35.179 -24.518 -14.412  0.00  0.00    +0.103 C 
ATOM      7  C   UNL     1      34.758 -24.651 -13.083  0.00  0.00    +0.050 C 
ATOM      8  C   UNL     1      32.552 -23.768 -13.619  0.00  0.00    +0.018 C 
ATOM      9  C   UNL     1      31.022 -22.699 -16.170  0.00  0.00    +0.119 C 
ATOM     10  C   UNL     1      33.468 -24.282 -12.695  0.00  0.00    +0.013 C 
ENDROOT
BRANCH   7  11
ATOM     11  N   UNL     1      35.665 -25.173 -12.109  0.00  0.00    -0.219 N 
ATOM     12  H   UNL     1      35.522 -26.052 -11.689  0.00  0.00    +0.173 HD
BRANCH  11  13
ATOM     13  S   UNL     1      37.032 -24.181 -11.704  0.00  0.00    +0.073 S 
ATOM     14  O   UNL     1      37.543 -24.577 -10.406  0.00  0.00    -0.150 OA
ATOM     15  O   UNL     1      36.711 -22.792 -11.976  0.00  0.00    -0.150 OA
BRANCH  13  16
ATOM     16  C   UNL     1      38.213 -24.682 -12.921  0.00  0.00    +0.125 C 
ATOM     17  C   UNL     1      38.985 -25.808 -12.688  0.00  0.00    +0.020 C 
ATOM     18  C   UNL     1      38.342 -23.941 -14.081  0.00  0.00    +0.020 C 
ATOM     19  C   UNL     1      39.916 -26.203 -13.649  0.00  0.00    +0.001 C 
ATOM     20  C   UNL     1      39.273 -24.336 -15.042  0.00  0.00    +0.001 C 
ATOM     21  C   UNL     1      40.060 -25.468 -14.826  0.00  0.00    +0.000 C 
ENDBRANCH  13  16
ENDBRANCH  11  13
ENDBRANCH   7  11
BRANCH   4  22
ATOM     22  C   UNL     1      32.940 -22.881 -18.482  0.00  0.00    +0.101 C 
BRANCH  22  23
ATOM     23  C   UNL     1      33.914 -21.875 -19.082  0.00  0.00    -0.014 C 
ATOM     24  C   UNL     1      33.418 -20.847 -19.856  0.00  0.00    -0.004 C 
ATOM     25  C   UNL     1      35.263 -22.025 -18.833  0.00  0.00    -0.004 C 
ATOM     26  C   UNL     1      34.311 -19.926 -20.406  0.00  0.00    +0.002 C 
ATOM     27  C   UNL     1      36.156 -21.104 -19.383  0.00  0.00    +0.002 C 
ATOM     28  C   UNL     1      35.679 -20.055 -20.169  0.00  0.00    +0.031 C 
BRANCH  28  31
ATOM     29  N   UNL     1      37.700 -18.620 -20.017  0.00  0.00    -0.343 N 
ATOM     30  N   UNL     1      36.426 -18.656 -21.975  0.00  0.00    -0.285 NA
ATOM     31  C   UNL     1      36.609 -19.096 -20.743  0.00  0.00    +0.117 C 
ATOM     32  H   UNL     1      38.317 -17.970 -20.425  0.00  0.00    +0.144 HD
ATOM     33  H   UNL     1      37.853 -18.933 -19.096  0.00  0.00    +0.144 HD
ATOM     34  H   UNL     1      37.054 -18.007 -22.366  0.00  0.00    +0.188 HD
ENDBRANCH  28  31
ENDBRANCH  22  23
ENDBRANCH   4  22
TORSDOF 6
ENDMDL
MODEL 7
REMARK VINA RESULT:     -11.3      2.640      5.432
REMARK  Name = 446805
REMARK  6 active torsions:
REMARK  status: ('A' for Active; 'I' for Inactive)
REMARK    1  A    between atoms: C_4  and  C_22
REMARK    2  A    between atoms: C_7  and  N_11
REMARK    3  A    between atoms: N_11  and  S_13
REMARK    4  A    between atoms: S_13  and  C_16
REMARK    5  A    between atoms: C_22  and  C_23
REMARK    6  A    between atoms: C_28  and  C_31
REMARK                            x       y       z     vdW  Elec       q    Type
REMARK                         _______ _______ _______ _____ _____    ______ ____
ROOT
ATOM      1  N   UNL     1      32.794 -22.414 -17.502  0.00  0.00    -0.262 N 
ATOM      2  N   UNL     1      34.962 -22.903 -17.519  0.00  0.00    -0.394 NA
ATOM      3  C   UNL     1      33.315 -21.728 -18.569  0.00  0.00    +0.079 C 
ATOM      4  C   UNL     1      33.816 -23.100 -16.908  0.00  0.00    +0.168 C 
ATOM      5  C   UNL     1      34.669 -22.050 -18.559  0.00  0.00    +0.129 C 
ATOM      6  C   UNL     1      35.511 -21.503 -19.542  0.00  0.00    +0.103 C 
ATOM      7  C   UNL     1      34.952 -20.649 -20.501  0.00  0.00    +0.050 C 
ATOM      8  C   UNL     1      32.736 -20.881 -19.515  0.00  0.00    +0.018 C 
ATOM      9  C   UNL     1      31.410 -22.408 -17.084  0.00  0.00    +0.119 C 
ATOM     10  C   UNL     1      33.588 -20.345 -20.486  0.00  0.00    +0.013 C 
ENDROOT
BRANCH   7  11
ATOM     11  N   UNL     1      35.789 -20.081 -21.509  0.00  0.00    -0.219 N 
ATOM     12  H   UNL     1      36.054 -20.591 -22.309  0.00  0.00    +0.173 HD
BRANCH  11  13
ATOM     13  S   UNL     1      36.315 -18.445 -21.257  0.00  0.00    +0.073 S 
ATOM     14  O   UNL     1      37.725 -18.339 -21.579  0.00  0.00    -0.150 OA
ATOM     15  O   UNL     1      35.816 -17.975 -19.977  0.00  0.00    -0.150 OA
BRANCH  13  16
ATOM     16  C   UNL     1      35.412 -17.579 -22.507  0.00  0.00    +0.125 C 
ATOM     17  C   UNL     1      35.284 -16.204 -22.416  0.00  0.00    +0.020 C 
ATOM     18  C   UNL     1      34.853 -18.294 -23.551  0.00  0.00    +0.020 C 
ATOM     19  C   UNL     1      34.573 -15.522 -23.404  0.00  0.00    +0.001 C 
ATOM     20  C   UNL     1      34.141 -17.611 -24.538  0.00  0.00    +0.001 C 
ATOM     21  C   UNL     1      34.001 -16.225 -24.465  0.00  0.00    +0.000 C 
ENDBRANCH  13  16
ENDBRANCH  11  13
ENDBRANCH   7  11
BRANCH   4  22
ATOM     22  C   UNL     1      33.604 -23.950 -15.717  0.00  0.00    +0.101 C 
BRANCH  22  23
ATOM     23  C   UNL     1      34.662 -23.771 -14.636  0.00  0.00    -0.014 C 
ATOM     24  C   UNL     1      35.910 -23.306 -14.995  0.00  0.00    -0.004 C 
ATOM     25  C   UNL     1      34.339 -24.080 -13.331  0.00  0.00    -0.004 C 
ATOM     26  C   UNL     1      36.879 -23.142 -14.004  0.00  0.00    +0.002 C 
ATOM     27  C   UNL     1      35.307 -23.917 -12.340  0.00  0.00    +0.002 C 
ATOM     28  C   UNL     1      36.577 -23.448 -12.677  0.00  0.00    +0.031 C 
BRANCH  28  31
ATOM     29  N   UNL     1      38.087 -24.368 -10.934  0.00  0.00    -0.343 N 
ATOM     30  N   UNL     1      38.045 -22.071 -11.364  0.00  0.00    -0.285 NA
ATOM     31  C   UNL     1      37.587 -23.278 -11.645  0.00  0.00    +0.117 C 
ATOM     32  H   UNL     1      38.771 -24.229 -10.238  0.00  0.00    +0.144 HD
ATOM     33  H   UNL     1      37.757 -25.275 -11.126  0.00  0.00    +0.144 HD
ATOM     34  H   UNL     1      38.728 -21.953 -10.665  0.00  0.00    +0.188 HD
ENDBRANCH  28  31
ENDBRANCH  22  23
ENDBRANCH   4  22
TORSDOF 6
ENDMDL
MODEL 8
REMARK VINA RESULT:     -11.1      4.175      7.764
REMARK  Name = 446805
REMARK  6 active torsions:
REMARK  status: ('A' for Active; 'I' for Inactive)
REMARK    1  A    between atoms: C_4  and  C_22
REMARK    2  A    between atoms: C_7  and  N_11
REMARK    3  A    between atoms: N_11  and  S_13
REMARK    4  A    between atoms: S_13  and  C_16
REMARK    5  A    between atoms: C_22  and  C_23
REMARK    6  A    between atoms: C_28  and  C_31
REMARK                            x       y       z     vdW  Elec       q    Type
REMARK                         _______ _______ _______ _____ _____    ______ ____
ROOT
ATOM      1  N   UNL     1      34.982 -17.730 -23.201  0.00  0.00    -0.262 N 
ATOM      2  N   UNL     1      35.559 -16.854 -21.241  0.00  0.00    -0.394 NA
ATOM      3  C   UNL     1      34.492 -16.449 -23.214  0.00  0.00    +0.079 C 
ATOM      4  C   UNL     1      35.610 -17.924 -22.003  0.00  0.00    +0.168 C 
ATOM      5  C   UNL     1      34.866 -15.923 -21.981  0.00  0.00    +0.129 C 
ATOM      6  C   UNL     1      34.514 -14.600 -21.664  0.00  0.00    +0.103 C 
ATOM      7  C   UNL     1      33.795 -13.856 -22.609  0.00  0.00    +0.050 C 
ATOM      8  C   UNL     1      33.778 -15.726 -24.170  0.00  0.00    +0.018 C 
ATOM      9  C   UNL     1      34.853 -18.699 -24.266  0.00  0.00    +0.119 C 
ATOM     10  C   UNL     1      33.435 -14.411 -23.839  0.00  0.00    +0.013 C 
ENDROOT
BRANCH   7  11
ATOM     11  N   UNL     1      33.426 -12.510 -22.308  0.00  0.00    -0.219 N 
ATOM     12  H   UNL     1      33.984 -11.746 -22.585  0.00  0.00    +0.173 HD
BRANCH  11  13
ATOM     13  S   UNL     1      31.944 -12.283 -21.431  0.00  0.00    +0.073 S 
ATOM     14  O   UNL     1      31.987 -13.061 -20.208  0.00  0.00    -0.150 OA
ATOM     15  O   UNL     1      30.824 -12.411 -22.345  0.00  0.00    -0.150 OA
BRANCH  13  16
ATOM     16  C   UNL     1      32.048 -10.575 -20.984  0.00  0.00    +0.125 C 
ATOM     17  C   UNL     1      31.877 -10.214 -19.659  0.00  0.00    +0.020 C 
ATOM     18  C   UNL     1      32.297  -9.635 -21.967  0.00  0.00    +0.020 C 
ATOM     19  C   UNL     1      31.960  -8.866 -19.307  0.00  0.00    +0.001 C 
ATOM     20  C   UNL     1      32.380  -8.287 -21.615  0.00  0.00    +0.001 C 
ATOM     21  C   UNL     1      32.211  -7.903 -20.285  0.00  0.00    +0.000 C 
ENDBRANCH  13  16
ENDBRANCH  11  13
ENDBRANCH   7  11
BRANCH   4  22
ATOM     22  C   UNL     1      36.255 -19.207 -21.652  0.00  0.00    +0.101 C 
BRANCH  22  23
ATOM     23  C   UNL     1      35.445 -20.062 -20.687  0.00  0.00    -0.014 C 
ATOM     24  C   UNL     1      36.112 -20.848 -19.771  0.00  0.00    -0.004 C 
ATOM     25  C   UNL     1      34.067 -20.023 -20.759  0.00  0.00    -0.004 C 
ATOM     26  C   UNL     1      35.369 -21.631 -18.887  0.00  0.00    +0.002 C 
ATOM     27  C   UNL     1      33.325 -20.806 -19.875  0.00  0.00    +0.002 C 
ATOM     28  C   UNL     1      33.976 -21.610 -18.939  0.00  0.00    +0.031 C 
BRANCH  28  31
ATOM     29  N   UNL     1      31.867 -22.136 -17.738  0.00  0.00    -0.343 N 
ATOM     30  N   UNL     1      33.765 -23.465 -17.426  0.00  0.00    -0.285 NA
ATOM     31  C   UNL     1      33.201 -22.426 -18.018  0.00  0.00    +0.117 C 
ATOM     32  H   UNL     1      31.362 -22.703 -17.111  0.00  0.00    +0.144 HD
ATOM     33  H   UNL     1      31.430 -21.366 -18.167  0.00  0.00    +0.144 HD
ATOM     34  H   UNL     1      33.243 -24.019 -16.802  0.00  0.00    +0.188 HD
ENDBRANCH  28  31
ENDBRANCH  22  23
ENDBRANCH   4  22
TORSDOF 6
ENDMDL
MODEL 9
REMARK VINA RESULT:     -10.9      3.608      6.820
REMARK  Name = 446805
REMARK  6 active torsions:
REMARK  status: ('A' for Active; 'I' for Inactive)
REMARK    1  A    between atoms: C_4  and  C_22
REMARK    2  A    between atoms: C_7  and  N_11
REMARK    3  A    between atoms: N_11  and  S_13
REMARK    4  A    between atoms: S_13  and  C_16
REMARK    5  A    between atoms: C_22  and  C_23
REMARK    6  A    between atoms: C_28  and  C_31
REMARK                            x       y       z     vdW  Elec       q    Type
REMARK                         _______ _______ _______ _____ _____    ______ ____
ROOT
ATOM      1  N   UNL     1      35.324 -18.819 -22.606  0.00  0.00    -0.262 N 
ATOM      2  N   UNL     1      35.819 -17.823 -20.682  0.00  0.00    -0.394 NA
ATOM      3  C   UNL     1      34.995 -17.500 -22.782  0.00  0.00    +0.079 C 
ATOM      4  C   UNL     1      35.811 -18.962 -21.337  0.00  0.00    +0.168 C 
ATOM      5  C   UNL     1      35.314 -16.898 -21.568  0.00  0.00    +0.129 C 
ATOM      6  C   UNL     1      35.096 -15.519 -21.407  0.00  0.00    +0.103 C 
ATOM      7  C   UNL     1      34.563 -14.798 -22.483  0.00  0.00    +0.050 C 
ATOM      8  C   UNL     1      34.464 -16.801 -23.867  0.00  0.00    +0.018 C 
ATOM      9  C   UNL     1      35.177 -19.869 -23.589  0.00  0.00    +0.119 C 
ATOM     10  C   UNL     1      34.253 -15.429 -23.690  0.00  0.00    +0.013 C 
ENDROOT
BRANCH   7  11
ATOM     11  N   UNL     1      34.332 -13.395 -22.342  0.00  0.00    -0.219 N 
ATOM     12  H   UNL     1      34.910 -12.831 -21.778  0.00  0.00    +0.173 HD
BRANCH  11  13
ATOM     13  S   UNL     1      32.984 -12.734 -23.214  0.00  0.00    +0.073 S 
ATOM     14  O   UNL     1      31.814 -12.730 -22.357  0.00  0.00    -0.150 OA
ATOM     15  O   UNL     1      32.928 -13.336 -24.533  0.00  0.00    -0.150 OA
BRANCH  13  16
ATOM     16  C   UNL     1      33.490 -11.054 -23.439  0.00  0.00    +0.125 C 
ATOM     17  C   UNL     1      34.551 -10.777 -24.283  0.00  0.00    +0.020 C 
ATOM     18  C   UNL     1      32.815 -10.051 -22.767  0.00  0.00    +0.020 C 
ATOM     19  C   UNL     1      34.950  -9.452 -24.461  0.00  0.00    +0.001 C 
ATOM     20  C   UNL     1      33.214  -8.726 -22.945  0.00  0.00    +0.001 C 
ATOM     21  C   UNL     1      34.281  -8.426 -23.791  0.00  0.00    +0.000 C 
ENDBRANCH  13  16
ENDBRANCH  11  13
ENDBRANCH   7  11
BRANCH   4  22
ATOM     22  C   UNL     1      36.262 -20.267 -20.810  0.00  0.00    +0.101 C 
BRANCH  22  23
ATOM     23  C   UNL     1      35.278 -20.917 -19.847  0.00  0.00    -0.014 C 
ATOM     24  C   UNL     1      35.765 -21.725 -18.841  0.00  0.00    -0.004 C 
ATOM     25  C   UNL     1      33.929 -20.677 -20.011  0.00  0.00    -0.004 C 
ATOM     26  C   UNL     1      34.863 -22.321 -17.958  0.00  0.00    +0.002 C 
ATOM     27  C   UNL     1      33.027 -21.273 -19.129  0.00  0.00    +0.002 C 
ATOM     28  C   UNL     1      33.494 -22.094 -18.103  0.00  0.00    +0.031 C 
BRANCH  28  31
ATOM     29  N   UNL     1      31.192 -22.423 -17.232  0.00  0.00    -0.343 N 
ATOM     30  N   UNL     1      32.988 -23.574 -16.278  0.00  0.00    -0.285 NA
ATOM     31  C   UNL     1      32.554 -22.715 -17.184  0.00  0.00    +0.117 C 
ATOM     32  H   UNL     1      30.573 -22.855 -16.600  0.00  0.00    +0.144 HD
ATOM     33  H   UNL     1      30.849 -21.784 -17.898  0.00  0.00    +0.144 HD
ATOM     34  H   UNL     1      32.354 -23.995 -15.654  0.00  0.00    +0.188 HD
ENDBRANCH  28  31
ENDBRANCH  22  23
ENDBRANCH   4  22
TORSDOF 6
ENDMDL
