MODEL 1
REMARK VINA RESULT:     -11.2      0.000      0.000
REMARK  Name = 42627755
REMARK  2 active torsions:
REMARK  status: ('A' for Active; 'I' for Inactive)
REMARK    1  A    between atoms: N_5  and  C_20
REMARK    2  A    between atoms: C_7  and  C_28
REMARK                            x       y       z     vdW  Elec       q    Type
REMARK                         _______ _______ _______ _____ _____    ______ ____
ROOT
ATOM      1  N   UNL     1      35.429 -21.585 -18.842  0.00  0.00    -0.239 N 
ATOM      2  N   UNL     1      34.671 -22.188 -17.910  0.00  0.00    -0.166 NA
ATOM      3  N   UNL     1      32.247 -22.285 -17.638  0.00  0.00    -0.271 N 
ATOM      4  N   UNL     1      33.068 -23.561 -15.803  0.00  0.00    -0.322 NA
ATOM      5  N   UNL     1      33.831 -24.823 -13.984  0.00  0.00    -0.247 N 
ATOM      6  N   UNL     1      31.519 -24.559 -14.250  0.00  0.00    -0.170 NA
ATOM      7  C   UNL     1      34.710 -20.915 -19.788  0.00  0.00    +0.045 C 
ATOM      8  C   UNL     1      33.390 -21.095 -19.452  0.00  0.00    +0.048 C 
ATOM      9  C   UNL     1      33.426 -21.885 -18.288  0.00  0.00    +0.152 C 
ATOM     10  C   UNL     1      32.011 -23.063 -16.479  0.00  0.00    +0.199 C 
ATOM     11  C   UNL     1      30.699 -23.268 -16.107  0.00  0.00    +0.070 C 
ATOM     12  C   UNL     1      32.754 -24.289 -14.714  0.00  0.00    +0.150 C 
ATOM     13  C   UNL     1      30.510 -24.030 -14.973  0.00  0.00    +0.116 C 
ATOM     14  H   UNL     1      36.413 -21.622 -18.842  0.00  0.00    +0.174 HD
ATOM     15  H   UNL     1      31.426 -21.961 -18.073  0.00  0.00    +0.156 HD
ATOM     16  H   UNL     1      33.555 -25.347 -13.198  0.00  0.00    +0.165 HD
ENDROOT
BRANCH   5  20
ATOM     17  N   UNL     1      38.305 -26.705 -14.912  0.00  0.00    -0.315 N 
ATOM     18  N   UNL     1      39.346 -24.752 -14.709  0.00  0.00    -0.315 N 
ATOM     19  C   UNL     1      37.322 -25.795 -14.621  0.00  0.00    +0.060 C 
ATOM     20  C   UNL     1      35.232 -24.755 -14.160  0.00  0.00    +0.059 C 
ATOM     21  C   UNL     1      37.997 -24.584 -14.499  0.00  0.00    +0.059 C 
ATOM     22  C   UNL     1      35.942 -25.923 -14.459  0.00  0.00    +0.031 C 
ATOM     23  C   UNL     1      35.880 -23.525 -14.032  0.00  0.00    +0.017 C 
ATOM     24  C   UNL     1      37.267 -23.420 -14.199  0.00  0.00    +0.017 C 
ATOM     25  C   UNL     1      39.496 -26.034 -14.953  0.00  0.00    +0.182 C 
ATOM     26  H   UNL     1      38.177 -27.669 -15.063  0.00  0.00    +0.148 HD
ATOM     27  H   UNL     1      40.047 -24.061 -14.683  0.00  0.00    +0.148 HD
ENDBRANCH   5  20
BRANCH   7  28
ATOM     28  C   UNL     1      35.265 -20.132 -20.970  0.00  0.00    +0.037 C 
ATOM     29  C   UNL     1      36.543 -19.368 -20.792  0.00  0.00    +0.006 C 
ATOM     30  C   UNL     1      35.241 -18.632 -20.916  0.00  0.00    +0.006 C 
ENDBRANCH   7  28
TORSDOF 2
ENDMDL
MODEL 2
REMARK VINA RESULT:     -10.7      1.591      1.925
REMARK  Name = 42627755
REMARK  2 active torsions:
REMARK  status: ('A' for Active; 'I' for Inactive)
REMARK    1  A    between atoms: N_5  and  C_20
REMARK    2  A    between atoms: C_7  and  C_28
REMARK                            x       y       z     vdW  Elec       q    Type
REMARK                         _______ _______ _______ _____ _____    ______ ____
ROOT
ATOM      1  N   UNL     1      35.299 -22.179 -18.013  0.00  0.00    -0.239 N 
ATOM      2  N   UNL     1      34.381 -22.644 -17.150  0.00  0.00    -0.166 NA
ATOM      3  N   UNL     1      31.942 -22.665 -17.267  0.00  0.00    -0.271 N 
ATOM      4  N   UNL     1      32.412 -23.705 -15.177  0.00  0.00    -0.322 NA
ATOM      5  N   UNL     1      32.827 -24.733 -13.114  0.00  0.00    -0.247 N 
ATOM      6  N   UNL     1      30.599 -24.468 -13.784  0.00  0.00    -0.170 NA
ATOM      7  C   UNL     1      34.765 -21.626 -19.141  0.00  0.00    +0.045 C 
ATOM      8  C   UNL     1      33.403 -21.739 -19.004  0.00  0.00    +0.048 C 
ATOM      9  C   UNL     1      33.224 -22.372 -17.761  0.00  0.00    +0.152 C 
ATOM     10  C   UNL     1      31.496 -23.282 -16.073  0.00  0.00    +0.199 C 
ATOM     11  C   UNL     1      30.134 -23.416 -15.898  0.00  0.00    +0.070 C 
ATOM     12  C   UNL     1      31.901 -24.281 -14.071  0.00  0.00    +0.150 C 
ATOM     13  C   UNL     1      29.739 -24.021 -14.723  0.00  0.00    +0.116 C 
ATOM     14  H   UNL     1      36.268 -22.232 -17.848  0.00  0.00    +0.174 HD
ATOM     15  H   UNL     1      31.213 -22.387 -17.866  0.00  0.00    +0.156 HD
ATOM     16  H   UNL     1      32.410 -25.147 -12.324  0.00  0.00    +0.165 HD
ENDROOT
BRANCH   5  20
ATOM     17  N   UNL     1      37.205 -24.023 -10.934  0.00  0.00    -0.315 N 
ATOM     18  N   UNL     1      38.376 -24.585 -12.738  0.00  0.00    -0.315 N 
ATOM     19  C   UNL     1      36.275 -24.330 -11.893  0.00  0.00    +0.060 C 
ATOM     20  C   UNL     1      34.240 -24.711 -13.067  0.00  0.00    +0.059 C 
ATOM     21  C   UNL     1      37.030 -24.678 -13.009  0.00  0.00    +0.059 C 
ATOM     22  C   UNL     1      34.880 -24.334 -11.881  0.00  0.00    +0.031 C 
ATOM     23  C   UNL     1      34.970 -25.065 -14.202  0.00  0.00    +0.017 C 
ATOM     24  C   UNL     1      36.371 -25.055 -14.192  0.00  0.00    +0.017 C 
ATOM     25  C   UNL     1      38.445 -24.190 -11.487  0.00  0.00    +0.182 C 
ATOM     26  H   UNL     1      37.015 -23.734 -10.013  0.00  0.00    +0.148 HD
ATOM     27  H   UNL     1      39.125 -24.774 -13.349  0.00  0.00    +0.148 HD
ENDBRANCH   5  20
BRANCH   7  28
ATOM     28  C   UNL     1      35.531 -21.012 -20.305  0.00  0.00    +0.037 C 
ATOM     29  C   UNL     1      36.601 -20.003 -20.012  0.00  0.00    +0.006 C 
ATOM     30  C   UNL     1      35.306 -19.564 -20.631  0.00  0.00    +0.006 C 
ENDBRANCH   7  28
TORSDOF 2
ENDMDL
MODEL 3
REMARK VINA RESULT:     -10.7      1.904      6.964
REMARK  Name = 42627755
REMARK  2 active torsions:
REMARK  status: ('A' for Active; 'I' for Inactive)
REMARK    1  A    between atoms: N_5  and  C_20
REMARK    2  A    between atoms: C_7  and  C_28
REMARK                            x       y       z     vdW  Elec       q    Type
REMARK                         _______ _______ _______ _____ _____    ______ ____
ROOT
ATOM      1  N   UNL     1      30.901 -22.950 -16.626  0.00  0.00    -0.239 N 
ATOM      2  N   UNL     1      32.223 -22.976 -16.390  0.00  0.00    -0.166 NA
ATOM      3  N   UNL     1      33.499 -23.939 -14.544  0.00  0.00    -0.271 N 
ATOM      4  N   UNL     1      35.173 -22.989 -15.947  0.00  0.00    -0.322 NA
ATOM      5  N   UNL     1      36.852 -22.070 -17.295  0.00  0.00    -0.247 N 
ATOM      6  N   UNL     1      37.494 -23.158 -15.324  0.00  0.00    -0.170 NA
ATOM      7  C   UNL     1      30.157 -23.567 -15.663  0.00  0.00    +0.045 C 
ATOM      8  C   UNL     1      31.056 -24.031 -14.734  0.00  0.00    +0.048 C 
ATOM      9  C   UNL     1      32.312 -23.637 -15.232  0.00  0.00    +0.152 C 
ATOM     10  C   UNL     1      34.860 -23.666 -14.822  0.00  0.00    +0.199 C 
ATOM     11  C   UNL     1      35.796 -24.114 -13.913  0.00  0.00    +0.070 C 
ATOM     12  C   UNL     1      36.489 -22.773 -16.133  0.00  0.00    +0.150 C 
ATOM     13  C   UNL     1      37.111 -23.829 -14.218  0.00  0.00    +0.116 C 
ATOM     14  H   UNL     1      30.504 -22.524 -17.420  0.00  0.00    +0.174 HD
ATOM     15  H   UNL     1      33.356 -24.436 -13.707  0.00  0.00    +0.156 HD
ATOM     16  H   UNL     1      37.822 -21.935 -17.390  0.00  0.00    +0.165 HD
ENDROOT
BRANCH   5  20
ATOM     17  N   UNL     1      36.157 -19.207 -21.263  0.00  0.00    -0.315 N 
ATOM     18  N   UNL     1      34.030 -19.799 -21.519  0.00  0.00    -0.315 N 
ATOM     19  C   UNL     1      35.902 -20.097 -20.253  0.00  0.00    +0.060 C 
ATOM     20  C   UNL     1      36.094 -21.519 -18.355  0.00  0.00    +0.059 C 
ATOM     21  C   UNL     1      34.568 -20.453 -20.434  0.00  0.00    +0.059 C 
ATOM     22  C   UNL     1      36.698 -20.607 -19.227  0.00  0.00    +0.031 C 
ATOM     23  C   UNL     1      34.759 -21.896 -18.510  0.00  0.00    +0.017 C 
ATOM     24  C   UNL     1      33.978 -21.371 -19.548  0.00  0.00    +0.017 C 
ATOM     25  C   UNL     1      35.009 -19.061 -21.992  0.00  0.00    +0.182 C 
ATOM     26  H   UNL     1      37.013 -18.752 -21.434  0.00  0.00    +0.148 HD
ATOM     27  H   UNL     1      33.112 -19.870 -21.866  0.00  0.00    +0.148 HD
ENDBRANCH   5  20
BRANCH   7  28
ATOM     28  C   UNL     1      28.641 -23.709 -15.634  0.00  0.00    +0.037 C 
ATOM     29  C   UNL     1      27.827 -22.953 -16.642  0.00  0.00    +0.006 C 
ATOM     30  C   UNL     1      27.816 -22.532 -15.202  0.00  0.00    +0.006 C 
ENDBRANCH   7  28
TORSDOF 2
ENDMDL
MODEL 4
REMARK VINA RESULT:     -10.7      1.968      5.434
REMARK  Name = 42627755
REMARK  2 active torsions:
REMARK  status: ('A' for Active; 'I' for Inactive)
REMARK    1  A    between atoms: N_5  and  C_20
REMARK    2  A    between atoms: C_7  and  C_28
REMARK                            x       y       z     vdW  Elec       q    Type
REMARK                         _______ _______ _______ _____ _____    ______ ____
ROOT
ATOM      1  N   UNL     1      34.252 -22.119 -18.263  0.00  0.00    -0.239 N 
ATOM      2  N   UNL     1      34.522 -22.603 -17.040  0.00  0.00    -0.166 NA
ATOM      3  N   UNL     1      36.624 -22.746 -15.806  0.00  0.00    -0.271 N 
ATOM      4  N   UNL     1      35.032 -23.696 -14.312  0.00  0.00    -0.322 NA
ATOM      5  N   UNL     1      33.501 -24.637 -12.811  0.00  0.00    -0.247 N 
ATOM      6  N   UNL     1      35.745 -24.502 -12.155  0.00  0.00    -0.170 NA
ATOM      7  C   UNL     1      35.345 -21.630 -18.917  0.00  0.00    +0.045 C 
ATOM      8  C   UNL     1      36.404 -21.806 -18.059  0.00  0.00    +0.048 C 
ATOM      9  C   UNL     1      35.839 -22.409 -16.920  0.00  0.00    +0.152 C 
ATOM     10  C   UNL     1      36.311 -23.347 -14.563  0.00  0.00    +0.199 C 
ATOM     11  C   UNL     1      37.347 -23.541 -13.672  0.00  0.00    +0.070 C 
ATOM     12  C   UNL     1      34.823 -24.260 -13.106  0.00  0.00    +0.150 C 
ATOM     13  C   UNL     1      37.002 -24.129 -12.472  0.00  0.00    +0.116 C 
ATOM     14  H   UNL     1      33.348 -22.117 -18.654  0.00  0.00    +0.174 HD
ATOM     15  H   UNL     1      37.577 -22.522 -15.910  0.00  0.00    +0.156 HD
ATOM     16  H   UNL     1      33.395 -25.044 -11.921  0.00  0.00    +0.165 HD
ENDROOT
BRANCH   5  20
ATOM     17  N   UNL     1      30.491 -22.704 -16.220  0.00  0.00    -0.315 N 
ATOM     18  N   UNL     1      28.830 -24.116 -15.788  0.00  0.00    -0.315 N 
ATOM     19  C   UNL     1      30.952 -23.515 -15.217  0.00  0.00    +0.060 C 
ATOM     20  C   UNL     1      32.294 -24.544 -13.542  0.00  0.00    +0.059 C 
ATOM     21  C   UNL     1      29.898 -24.388 -14.964  0.00  0.00    +0.059 C 
ATOM     22  C   UNL     1      32.165 -23.560 -14.528  0.00  0.00    +0.031 C 
ATOM     23  C   UNL     1      31.254 -25.433 -13.266  0.00  0.00    +0.017 C 
ATOM     24  C   UNL     1      30.045 -25.371 -13.970  0.00  0.00    +0.017 C 
ATOM     25  C   UNL     1      29.218 -23.102 -16.527  0.00  0.00    +0.182 C 
ATOM     26  H   UNL     1      30.986 -21.967 -16.645  0.00  0.00    +0.148 HD
ATOM     27  H   UNL     1      27.962 -24.582 -15.817  0.00  0.00    +0.148 HD
ENDBRANCH   5  20
BRANCH   7  28
ATOM     28  C   UNL     1      35.375 -21.018 -20.311  0.00  0.00    +0.037 C 
ATOM     29  C   UNL     1      36.072 -19.704 -20.506  0.00  0.00    +0.006 C 
ATOM     30  C   UNL     1      34.574 -19.776 -20.569  0.00  0.00    +0.006 C 
ENDBRANCH   7  28
TORSDOF 2
ENDMDL
MODEL 5
REMARK VINA RESULT:     -10.6      1.356      6.521
REMARK  Name = 42627755
REMARK  2 active torsions:
REMARK  status: ('A' for Active; 'I' for Inactive)
REMARK    1  A    between atoms: N_5  and  C_20
REMARK    2  A    between atoms: C_7  and  C_28
REMARK                            x       y       z     vdW  Elec       q    Type
REMARK                         _______ _______ _______ _____ _____    ______ ____
ROOT
ATOM      1  N   UNL     1      37.307 -24.059 -15.169  0.00  0.00    -0.239 N 
ATOM      2  N   UNL     1      35.976 -23.943 -15.306  0.00  0.00    -0.166 NA
ATOM      3  N   UNL     1      34.147 -24.806 -13.939  0.00  0.00    -0.271 N 
ATOM      4  N   UNL     1      33.034 -23.633 -15.687  0.00  0.00    -0.322 NA
ATOM      5  N   UNL     1      31.898 -22.491 -17.386  0.00  0.00    -0.247 N 
ATOM      6  N   UNL     1      30.626 -23.554 -15.733  0.00  0.00    -0.170 NA
ATOM      7  C   UNL     1      37.688 -24.785 -14.079  0.00  0.00    +0.045 C 
ATOM      8  C   UNL     1      36.524 -25.170 -13.460  0.00  0.00    +0.048 C 
ATOM      9  C   UNL     1      35.502 -24.624 -14.259  0.00  0.00    +0.152 C 
ATOM     10  C   UNL     1      32.951 -24.373 -14.561  0.00  0.00    +0.199 C 
ATOM     11  C   UNL     1      31.759 -24.738 -13.971  0.00  0.00    +0.070 C 
ATOM     12  C   UNL     1      31.850 -23.263 -16.212  0.00  0.00    +0.150 C 
ATOM     13  C   UNL     1      30.617 -24.297 -14.606  0.00  0.00    +0.116 C 
ATOM     14  H   UNL     1      37.950 -23.656 -15.797  0.00  0.00    +0.174 HD
ATOM     15  H   UNL     1      34.000 -25.339 -13.125  0.00  0.00    +0.156 HD
ATOM     16  H   UNL     1      31.011 -22.243 -17.734  0.00  0.00    +0.165 HD
ENDROOT
BRANCH   5  20
ATOM     17  N   UNL     1      33.921 -19.779 -20.988  0.00  0.00    -0.315 N 
ATOM     18  N   UNL     1      35.993 -20.452 -20.553  0.00  0.00    -0.315 N 
ATOM     19  C   UNL     1      33.809 -20.645 -19.933  0.00  0.00    +0.060 C 
ATOM     20  C   UNL     1      32.972 -21.999 -18.164  0.00  0.00    +0.059 C 
ATOM     21  C   UNL     1      35.116 -21.052 -19.679  0.00  0.00    +0.059 C 
ATOM     22  C   UNL     1      32.711 -21.095 -19.199  0.00  0.00    +0.031 C 
ATOM     23  C   UNL     1      34.272 -22.426 -17.885  0.00  0.00    +0.017 C 
ATOM     24  C   UNL     1      35.360 -21.961 -18.635  0.00  0.00    +0.017 C 
ATOM     25  C   UNL     1      35.244 -19.696 -21.323  0.00  0.00    +0.182 C 
ATOM     26  H   UNL     1      33.181 -19.301 -21.428  0.00  0.00    +0.148 HD
ATOM     27  H   UNL     1      36.971 -20.564 -20.591  0.00  0.00    +0.148 HD
ENDBRANCH   5  20
BRANCH   7  28
ATOM     28  C   UNL     1      39.114 -25.100 -13.646  0.00  0.00    +0.037 C 
ATOM     29  C   UNL     1      40.196 -25.116 -14.685  0.00  0.00    +0.006 C 
ATOM     30  C   UNL     1      39.725 -26.403 -14.072  0.00  0.00    +0.006 C 
ENDBRANCH   7  28
TORSDOF 2
ENDMDL
MODEL 6
REMARK VINA RESULT:     -10.4      1.839      5.346
REMARK  Name = 42627755
REMARK  2 active torsions:
REMARK  status: ('A' for Active; 'I' for Inactive)
REMARK    1  A    between atoms: N_5  and  C_20
REMARK    2  A    between atoms: C_7  and  C_28
REMARK                            x       y       z     vdW  Elec       q    Type
REMARK                         _______ _______ _______ _____ _____    ______ ____
ROOT
ATOM      1  N   UNL     1      34.627 -21.833 -18.405  0.00  0.00    -0.239 N 
ATOM      2  N   UNL     1      34.973 -22.403 -17.239  0.00  0.00    -0.166 NA
ATOM      3  N   UNL     1      37.162 -22.738 -16.211  0.00  0.00    -0.271 N 
ATOM      4  N   UNL     1      35.651 -23.684 -14.632  0.00  0.00    -0.322 NA
ATOM      5  N   UNL     1      34.202 -24.625 -13.051  0.00  0.00    -0.247 N 
ATOM      6  N   UNL     1      36.499 -24.656 -12.596  0.00  0.00    -0.170 NA
ATOM      7  C   UNL     1      35.686 -21.368 -19.128  0.00  0.00    +0.045 C 
ATOM      8  C   UNL     1      36.803 -21.654 -18.380  0.00  0.00    +0.048 C 
ATOM      9  C   UNL     1      36.304 -22.291 -17.229  0.00  0.00    +0.152 C 
ATOM     10  C   UNL     1      36.923 -23.393 -14.979  0.00  0.00    +0.199 C 
ATOM     11  C   UNL     1      38.018 -23.698 -14.198  0.00  0.00    +0.070 C 
ATOM     12  C   UNL     1      35.514 -24.306 -13.445  0.00  0.00    +0.150 C 
ATOM     13  C   UNL     1      37.745 -24.336 -13.006  0.00  0.00    +0.116 C 
ATOM     14  H   UNL     1      33.693 -21.757 -18.710  0.00  0.00    +0.174 HD
ATOM     15  H   UNL     1      38.113 -22.561 -16.388  0.00  0.00    +0.156 HD
ATOM     16  H   UNL     1      34.150 -25.078 -12.179  0.00  0.00    +0.165 HD
ENDROOT
BRANCH   5  20
ATOM     17  N   UNL     1      29.445 -25.646 -13.915  0.00  0.00    -0.315 N 
ATOM     18  N   UNL     1      29.183 -23.979 -15.361  0.00  0.00    -0.315 N 
ATOM     19  C   UNL     1      30.665 -25.027 -13.984  0.00  0.00    +0.060 C 
ATOM     20  C   UNL     1      32.944 -24.421 -13.664  0.00  0.00    +0.059 C 
ATOM     21  C   UNL     1      30.476 -23.990 -14.893  0.00  0.00    +0.059 C 
ATOM     22  C   UNL     1      31.882 -25.276 -13.349  0.00  0.00    +0.031 C 
ATOM     23  C   UNL     1      32.786 -23.373 -14.571  0.00  0.00    +0.017 C 
ATOM     24  C   UNL     1      31.554 -23.141 -15.197  0.00  0.00    +0.017 C 
ATOM     25  C   UNL     1      28.593 -24.985 -14.755  0.00  0.00    +0.182 C 
ATOM     26  H   UNL     1      29.221 -26.428 -13.360  0.00  0.00    +0.148 HD
ATOM     27  H   UNL     1      28.785 -23.354 -16.009  0.00  0.00    +0.148 HD
ENDBRANCH   5  20
BRANCH   7  28
ATOM     28  C   UNL     1      35.632 -20.677 -20.483  0.00  0.00    +0.037 C 
ATOM     29  C   UNL     1      36.321 -19.355 -20.646  0.00  0.00    +0.006 C 
ATOM     30  C   UNL     1      34.822 -19.420 -20.618  0.00  0.00    +0.006 C 
ENDBRANCH   7  28
TORSDOF 2
ENDMDL
MODEL 7
REMARK VINA RESULT:     -10.0      1.923      5.476
REMARK  Name = 42627755
REMARK  2 active torsions:
REMARK  status: ('A' for Active; 'I' for Inactive)
REMARK    1  A    between atoms: N_5  and  C_20
REMARK    2  A    between atoms: C_7  and  C_28
REMARK                            x       y       z     vdW  Elec       q    Type
REMARK                         _______ _______ _______ _____ _____    ______ ____
ROOT
ATOM      1  N   UNL     1      31.865 -23.988 -14.832  0.00  0.00    -0.239 N 
ATOM      2  N   UNL     1      32.930 -23.532 -15.511  0.00  0.00    -0.166 NA
ATOM      3  N   UNL     1      33.088 -22.420 -17.678  0.00  0.00    -0.271 N 
ATOM      4  N   UNL     1      35.351 -22.548 -16.949  0.00  0.00    -0.322 NA
ATOM      5  N   UNL     1      37.590 -22.652 -16.271  0.00  0.00    -0.247 N 
ATOM      6  N   UNL     1      37.109 -21.659 -18.336  0.00  0.00    -0.170 NA
ATOM      7  C   UNL     1      30.677 -23.792 -15.473  0.00  0.00    +0.045 C 
ATOM      8  C   UNL     1      30.988 -23.162 -16.653  0.00  0.00    +0.048 C 
ATOM      9  C   UNL     1      32.389 -23.029 -16.624  0.00  0.00    +0.152 C 
ATOM     10  C   UNL     1      34.465 -22.166 -17.892  0.00  0.00    +0.199 C 
ATOM     11  C   UNL     1      34.820 -21.534 -19.066  0.00  0.00    +0.070 C 
ATOM     12  C   UNL     1      36.638 -22.267 -17.232  0.00  0.00    +0.150 C 
ATOM     13  C   UNL     1      36.169 -21.305 -19.237  0.00  0.00    +0.116 C 
ATOM     14  H   UNL     1      31.934 -24.425 -13.951  0.00  0.00    +0.174 HD
ATOM     15  H   UNL     1      32.509 -22.110 -18.411  0.00  0.00    +0.156 HD
ATOM     16  H   UNL     1      38.516 -22.427 -16.519  0.00  0.00    +0.165 HD
ENDROOT
BRANCH   5  20
ATOM     17  N   UNL     1      35.532 -23.490 -11.857  0.00  0.00    -0.315 N 
ATOM     18  N   UNL     1      36.987 -25.075 -11.300  0.00  0.00    -0.315 N 
ATOM     19  C   UNL     1      36.386 -23.594 -12.924  0.00  0.00    +0.060 C 
ATOM     20  C   UNL     1      37.477 -23.297 -15.018  0.00  0.00    +0.059 C 
ATOM     21  C   UNL     1      37.284 -24.590 -12.552  0.00  0.00    +0.059 C 
ATOM     22  C   UNL     1      36.448 -22.924 -14.146  0.00  0.00    +0.031 C 
ATOM     23  C   UNL     1      38.393 -24.292 -14.673  0.00  0.00    +0.017 C 
ATOM     24  C   UNL     1      38.312 -24.952 -13.441  0.00  0.00    +0.017 C 
ATOM     25  C   UNL     1      35.932 -24.394 -10.912  0.00  0.00    +0.182 C 
ATOM     26  H   UNL     1      34.768 -22.874 -11.783  0.00  0.00    +0.148 HD
ATOM     27  H   UNL     1      37.461 -25.780 -10.802  0.00  0.00    +0.148 HD
ENDBRANCH   5  20
BRANCH   7  28
ATOM     28  C   UNL     1      29.295 -24.192 -14.974  0.00  0.00    +0.037 C 
ATOM     29  C   UNL     1      28.181 -24.328 -15.969  0.00  0.00    +0.006 C 
ATOM     30  C   UNL     1      28.193 -23.173 -15.011  0.00  0.00    +0.006 C 
ENDBRANCH   7  28
TORSDOF 2
ENDMDL
MODEL 8
REMARK VINA RESULT:      -9.9      1.814      6.777
REMARK  Name = 42627755
REMARK  2 active torsions:
REMARK  status: ('A' for Active; 'I' for Inactive)
REMARK    1  A    between atoms: N_5  and  C_20
REMARK    2  A    between atoms: C_7  and  C_28
REMARK                            x       y       z     vdW  Elec       q    Type
REMARK                         _______ _______ _______ _____ _____    ______ ____
ROOT
ATOM      1  N   UNL     1      36.317 -24.193 -13.876  0.00  0.00    -0.239 N 
ATOM      2  N   UNL     1      35.725 -23.632 -14.944  0.00  0.00    -0.166 NA
ATOM      3  N   UNL     1      36.677 -22.515 -16.895  0.00  0.00    -0.271 N 
ATOM      4  N   UNL     1      34.329 -22.412 -17.280  0.00  0.00    -0.322 NA
ATOM      5  N   UNL     1      32.029 -22.287 -17.699  0.00  0.00    -0.247 N 
ATOM      6  N   UNL     1      33.488 -21.353 -19.275  0.00  0.00    -0.170 NA
ATOM      7  C   UNL     1      37.679 -24.118 -13.897  0.00  0.00    +0.045 C 
ATOM      8  C   UNL     1      37.999 -23.463 -15.061  0.00  0.00    +0.048 C 
ATOM      9  C   UNL     1      36.759 -23.187 -15.665  0.00  0.00    +0.152 C 
ATOM     10  C   UNL     1      35.579 -22.123 -17.699  0.00  0.00    +0.199 C 
ATOM     11  C   UNL     1      35.858 -21.462 -18.878  0.00  0.00    +0.070 C 
ATOM     12  C   UNL     1      33.345 -22.003 -18.105  0.00  0.00    +0.150 C 
ATOM     13  C   UNL     1      34.763 -21.097 -19.633  0.00  0.00    +0.116 C 
ATOM     14  H   UNL     1      35.814 -24.620 -13.145  0.00  0.00    +0.174 HD
ATOM     15  H   UNL     1      37.552 -22.269 -17.271  0.00  0.00    +0.156 HD
ATOM     16  H   UNL     1      31.343 -21.971 -18.332  0.00  0.00    +0.165 HD
ENDROOT
BRANCH   5  20
ATOM     17  N   UNL     1      32.312 -24.974 -13.562  0.00  0.00    -0.315 N 
ATOM     18  N   UNL     1      30.125 -24.906 -13.175  0.00  0.00    -0.315 N 
ATOM     19  C   UNL     1      31.782 -24.240 -14.590  0.00  0.00    +0.060 C 
ATOM     20  C   UNL     1      31.498 -22.937 -16.561  0.00  0.00    +0.059 C 
ATOM     21  C   UNL     1      30.416 -24.211 -14.327  0.00  0.00    +0.059 C 
ATOM     22  C   UNL     1      32.362 -23.617 -15.696  0.00  0.00    +0.031 C 
ATOM     23  C   UNL     1      30.123 -22.891 -16.324  0.00  0.00    +0.017 C 
ATOM     24  C   UNL     1      29.563 -23.524 -15.207  0.00  0.00    +0.017 C 
ATOM     25  C   UNL     1      31.284 -25.350 -12.744  0.00  0.00    +0.182 C 
ATOM     26  H   UNL     1      33.264 -25.193 -13.435  0.00  0.00    +0.148 HD
ATOM     27  H   UNL     1      29.240 -25.041 -12.764  0.00  0.00    +0.148 HD
ENDBRANCH   5  20
BRANCH   7  28
ATOM     28  C   UNL     1      38.637 -24.653 -12.843  0.00  0.00    +0.037 C 
ATOM     29  C   UNL     1      39.575 -25.762 -13.217  0.00  0.00    +0.006 C 
ATOM     30  C   UNL     1      38.416 -26.037 -12.304  0.00  0.00    +0.006 C 
ENDBRANCH   7  28
TORSDOF 2
ENDMDL
MODEL 9
REMARK VINA RESULT:      -9.8      2.162      6.351
REMARK  Name = 42627755
REMARK  2 active torsions:
REMARK  status: ('A' for Active; 'I' for Inactive)
REMARK    1  A    between atoms: N_5  and  C_20
REMARK    2  A    between atoms: C_7  and  C_28
REMARK                            x       y       z     vdW  Elec       q    Type
REMARK                         _______ _______ _______ _____ _____    ______ ____
ROOT
ATOM      1  N   UNL     1      31.093 -23.660 -15.493  0.00  0.00    -0.239 N 
ATOM      2  N   UNL     1      32.318 -23.706 -14.945  0.00  0.00    -0.166 NA
ATOM      3  N   UNL     1      33.070 -24.554 -12.782  0.00  0.00    -0.271 N 
ATOM      4  N   UNL     1      35.074 -23.772 -13.804  0.00  0.00    -0.322 NA
ATOM      5  N   UNL     1      37.068 -23.016 -14.771  0.00  0.00    -0.247 N 
ATOM      6  N   UNL     1      37.170 -23.959 -12.630  0.00  0.00    -0.170 NA
ATOM      7  C   UNL     1      30.112 -24.174 -14.697  0.00  0.00    +0.045 C 
ATOM      8  C   UNL     1      30.742 -24.587 -13.548  0.00  0.00    +0.048 C 
ATOM      9  C   UNL     1      32.097 -24.274 -13.755  0.00  0.00    +0.152 C 
ATOM     10  C   UNL     1      34.470 -24.345 -12.742  0.00  0.00    +0.199 C 
ATOM     11  C   UNL     1      35.140 -24.747 -11.605  0.00  0.00    +0.070 C 
ATOM     12  C   UNL     1      36.406 -23.611 -13.682  0.00  0.00    +0.150 C 
ATOM     13  C   UNL     1      36.502 -24.526 -11.604  0.00  0.00    +0.116 C 
ATOM     14  H   UNL     1      30.918 -23.288 -16.389  0.00  0.00    +0.174 HD
ATOM     15  H   UNL     1      32.708 -24.977 -11.971  0.00  0.00    +0.156 HD
ATOM     16  H   UNL     1      38.039 -22.919 -14.638  0.00  0.00    +0.165 HD
ENDROOT
BRANCH   5  20
ATOM     17  N   UNL     1      33.715 -22.344 -18.337  0.00  0.00    -0.315 N 
ATOM     18  N   UNL     1      35.096 -21.191 -19.642  0.00  0.00    -0.315 N 
ATOM     19  C   UNL     1      34.900 -22.284 -17.653  0.00  0.00    +0.060 C 
ATOM     20  C   UNL     1      36.612 -22.531 -16.018  0.00  0.00    +0.059 C 
ATOM     21  C   UNL     1      35.746 -21.560 -18.487  0.00  0.00    +0.059 C 
ATOM     22  C   UNL     1      35.294 -22.787 -16.412  0.00  0.00    +0.031 C 
ATOM     23  C   UNL     1      37.484 -21.808 -16.833  0.00  0.00    +0.017 C 
ATOM     24  C   UNL     1      37.067 -21.312 -18.076  0.00  0.00    +0.017 C 
ATOM     25  C   UNL     1      33.882 -21.677 -19.520  0.00  0.00    +0.182 C 
ATOM     26  H   UNL     1      32.890 -22.787 -18.034  0.00  0.00    +0.148 HD
ATOM     27  H   UNL     1      35.462 -20.674 -20.397  0.00  0.00    +0.148 HD
ENDBRANCH   5  20
BRANCH   7  28
ATOM     28  C   UNL     1      28.628 -24.267 -15.024  0.00  0.00    +0.037 C 
ATOM     29  C   UNL     1      28.173 -23.926 -16.412  0.00  0.00    +0.006 C 
ATOM     30  C   UNL     1      27.865 -22.999 -15.273  0.00  0.00    +0.006 C 
ENDBRANCH   7  28
TORSDOF 2
ENDMDL
