MODEL 1
REMARK VINA RESULT:     -12.2      0.000      0.000
REMARK  Name = 11952989
REMARK  5 active torsions:
REMARK  status: ('A' for Active; 'I' for Inactive)
REMARK    1  A    between atoms: C_4  and  C_21
REMARK    2  A    between atoms: C_6  and  C_11
REMARK    3  A    between atoms: C_24  and  C_27
REMARK    4  A    between atoms: C_27  and  C_29
REMARK    5  A    between atoms: C_29  and  O_30
REMARK                            x       y       z     vdW  Elec       q    Type
REMARK                         _______ _______ _______ _____ _____    ______ ____
ROOT
ATOM      1  N   UNL     1      32.956 -25.310 -13.321  0.00  0.00    -0.297 N 
ATOM      2  N   UNL     1      34.952 -24.640 -14.493  0.00  0.00    -0.229 NA
ATOM      3  C   UNL     1      32.680 -23.877 -15.010  0.00  0.00    +0.033 C 
ATOM      4  C   UNL     1      31.412 -24.161 -14.436  0.00  0.00    +0.017 C 
ATOM      5  C   UNL     1      33.621 -24.608 -14.292  0.00  0.00    +0.132 C 
ATOM      6  C   UNL     1      34.520 -23.074 -16.315  0.00  0.00    +0.019 C 
ATOM      7  C   UNL     1      33.150 -23.077 -16.064  0.00  0.00    +0.004 C 
ATOM      8  C   UNL     1      31.614 -25.046 -13.399  0.00  0.00    +0.063 C 
ATOM      9  C   UNL     1      35.349 -23.853 -15.519  0.00  0.00    +0.100 C 
ATOM     10  H   UNL     1      33.379 -25.912 -12.666  0.00  0.00    +0.154 HD
ENDROOT
BRANCH   6  11
ATOM     11  C   UNL     1      35.069 -22.272 -17.387  0.00  0.00    +0.001 C 
ATOM     12  C   UNL     1      34.745 -20.986 -19.426  0.00  0.00    +0.000 C 
ATOM     13  C   UNL     1      34.228 -21.766 -18.378  0.00  0.00    +0.000 C 
ATOM     14  C   UNL     1      36.134 -20.716 -19.468  0.00  0.00    +0.000 C 
ATOM     15  C   UNL     1      36.435 -22.007 -17.428  0.00  0.00    +0.000 C 
ATOM     16  C   UNL     1      36.965 -21.234 -18.461  0.00  0.00    +0.000 C 
ATOM     17  C   UNL     1      33.914 -20.468 -20.433  0.00  0.00    +0.000 C 
ATOM     18  C   UNL     1      36.650 -19.937 -20.516  0.00  0.00    +0.000 C 
ATOM     19  C   UNL     1      34.445 -19.696 -21.466  0.00  0.00    +0.000 C 
ATOM     20  C   UNL     1      35.810 -19.430 -21.508  0.00  0.00    +0.000 C 
ENDBRANCH   6  11
BRANCH   4  21
ATOM     21  C   UNL     1      30.110 -23.676 -14.791  0.00  0.00    +0.001 C 
ATOM     22  C   UNL     1      29.640 -22.476 -14.254  0.00  0.00    -0.000 C 
ATOM     23  C   UNL     1      29.310 -24.401 -15.676  0.00  0.00    -0.000 C 
ATOM     24  C   UNL     1      27.576 -22.731 -15.484  0.00  0.00    -0.011 C 
ATOM     25  C   UNL     1      28.374 -22.005 -14.600  0.00  0.00    -0.004 C 
ATOM     26  C   UNL     1      28.045 -23.930 -16.022  0.00  0.00    -0.004 C 
BRANCH  24  27
ATOM     27  C   UNL     1      26.223 -22.225 -15.855  0.00  0.00    +0.136 C 
BRANCH  27  29
ATOM     28  O   UNL     1      26.237 -22.338 -18.288  0.00  0.00    -0.250 OA
ATOM     29  C   UNL     1      26.150 -21.672 -17.265  0.00  0.00    +0.318 C 
BRANCH  29  30
ATOM     30  O   UNL     1      25.974 -20.324 -17.272  0.00  0.00    -0.480 OA
ATOM     31  H   UNL     1      26.654 -19.761 -16.956  0.00  0.00    +0.295 HD
ENDBRANCH  29  30
ENDBRANCH  27  29
ENDBRANCH  24  27
ENDBRANCH   4  21
TORSDOF 5
ENDMDL
MODEL 2
REMARK VINA RESULT:     -11.9      4.812      7.385
REMARK  Name = 11952989
REMARK  5 active torsions:
REMARK  status: ('A' for Active; 'I' for Inactive)
REMARK    1  A    between atoms: C_4  and  C_21
REMARK    2  A    between atoms: C_6  and  C_11
REMARK    3  A    between atoms: C_24  and  C_27
REMARK    4  A    between atoms: C_27  and  C_29
REMARK    5  A    between atoms: C_29  and  O_30
REMARK                            x       y       z     vdW  Elec       q    Type
REMARK                         _______ _______ _______ _____ _____    ______ ____
ROOT
ATOM      1  N   UNL     1      32.356 -24.369 -14.605  0.00  0.00    -0.297 N 
ATOM      2  N   UNL     1      31.600 -22.983 -16.424  0.00  0.00    -0.229 NA
ATOM      3  C   UNL     1      33.939 -23.540 -15.943  0.00  0.00    +0.033 C 
ATOM      4  C   UNL     1      34.556 -24.328 -14.934  0.00  0.00    +0.017 C 
ATOM      5  C   UNL     1      32.568 -23.587 -15.710  0.00  0.00    +0.132 C 
ATOM      6  C   UNL     1      33.421 -22.138 -17.814  0.00  0.00    +0.019 C 
ATOM      7  C   UNL     1      34.382 -22.785 -17.041  0.00  0.00    +0.004 C 
ATOM      8  C   UNL     1      33.556 -24.825 -14.126  0.00  0.00    +0.063 C 
ATOM      9  C   UNL     1      32.083 -22.270 -17.468  0.00  0.00    +0.100 C 
ATOM     10  H   UNL     1      31.475 -24.574 -14.214  0.00  0.00    +0.154 HD
ENDROOT
BRANCH   6  11
ATOM     11  C   UNL     1      33.811 -21.343 -18.958  0.00  0.00    +0.001 C 
ATOM     12  C   UNL     1      35.538 -20.179 -20.216  0.00  0.00    +0.000 C 
ATOM     13  C   UNL     1      35.141 -20.951 -19.112  0.00  0.00    +0.000 C 
ATOM     14  C   UNL     1      34.570 -19.800 -21.178  0.00  0.00    +0.000 C 
ATOM     15  C   UNL     1      32.860 -20.970 -19.903  0.00  0.00    +0.000 C 
ATOM     16  C   UNL     1      33.236 -20.204 -21.007  0.00  0.00    +0.000 C 
ATOM     17  C   UNL     1      36.872 -19.775 -20.388  0.00  0.00    +0.000 C 
ATOM     18  C   UNL     1      34.966 -19.028 -22.282  0.00  0.00    +0.000 C 
ATOM     19  C   UNL     1      37.246 -19.008 -21.492  0.00  0.00    +0.000 C 
ATOM     20  C   UNL     1      36.296 -18.635 -22.437  0.00  0.00    +0.000 C 
ENDBRANCH   6  11
BRANCH   4  21
ATOM     21  C   UNL     1      35.943 -24.615 -14.708  0.00  0.00    +0.001 C 
ATOM     22  C   UNL     1      36.903 -23.623 -14.910  0.00  0.00    -0.000 C 
ATOM     23  C   UNL     1      36.334 -25.886 -14.286  0.00  0.00    -0.000 C 
ATOM     24  C   UNL     1      38.641 -25.173 -14.267  0.00  0.00    -0.011 C 
ATOM     25  C   UNL     1      38.252 -23.902 -14.689  0.00  0.00    -0.004 C 
ATOM     26  C   UNL     1      37.682 -26.165 -14.065  0.00  0.00    -0.004 C 
BRANCH  24  27
ATOM     27  C   UNL     1      40.084 -25.470 -14.029  0.00  0.00    +0.136 C 
BRANCH  27  29
ATOM     28  O   UNL     1      41.164 -27.623 -14.383  0.00  0.00    -0.250 OA
ATOM     29  C   UNL     1      40.603 -26.638 -14.843  0.00  0.00    +0.318 C 
BRANCH  29  30
ATOM     30  O   UNL     1      40.373 -26.470 -16.173  0.00  0.00    -0.480 OA
ATOM     31  H   UNL     1      41.094 -26.365 -16.763  0.00  0.00    +0.295 HD
ENDBRANCH  29  30
ENDBRANCH  27  29
ENDBRANCH  24  27
ENDBRANCH   4  21
TORSDOF 5
ENDMDL
MODEL 3
REMARK VINA RESULT:     -11.6      1.439      2.717
REMARK  Name = 11952989
REMARK  5 active torsions:
REMARK  status: ('A' for Active; 'I' for Inactive)
REMARK    1  A    between atoms: C_4  and  C_21
REMARK    2  A    between atoms: C_6  and  C_11
REMARK    3  A    between atoms: C_24  and  C_27
REMARK    4  A    between atoms: C_27  and  C_29
REMARK    5  A    between atoms: C_29  and  O_30
REMARK                            x       y       z     vdW  Elec       q    Type
REMARK                         _______ _______ _______ _____ _____    ______ ____
ROOT
ATOM      1  N   UNL     1      36.298 -24.098 -14.232  0.00  0.00    -0.297 N 
ATOM      2  N   UNL     1      37.630 -22.930 -15.864  0.00  0.00    -0.229 NA
ATOM      3  C   UNL     1      35.179 -23.005 -15.825  0.00  0.00    +0.033 C 
ATOM      4  C   UNL     1      34.246 -23.630 -14.955  0.00  0.00    +0.017 C 
ATOM      5  C   UNL     1      36.449 -23.315 -15.346  0.00  0.00    +0.132 C 
ATOM      6  C   UNL     1      36.295 -21.775 -17.550  0.00  0.00    +0.019 C 
ATOM      7  C   UNL     1      35.100 -22.201 -16.974  0.00  0.00    +0.004 C 
ATOM      8  C   UNL     1      34.964 -24.296 -13.985  0.00  0.00    +0.063 C 
ATOM      9  C   UNL     1      37.494 -22.159 -16.968  0.00  0.00    +0.100 C 
ATOM     10  H   UNL     1      37.036 -24.463 -13.690  0.00  0.00    +0.154 HD
ENDROOT
BRANCH   6  11
ATOM     11  C   UNL     1      36.283 -20.945 -18.736  0.00  0.00    +0.001 C 
ATOM     12  C   UNL     1      35.135 -20.137 -20.723  0.00  0.00    +0.000 C 
ATOM     13  C   UNL     1      35.163 -20.936 -19.568  0.00  0.00    +0.000 C 
ATOM     14  C   UNL     1      36.260 -19.336 -21.037  0.00  0.00    +0.000 C 
ATOM     15  C   UNL     1      37.388 -20.158 -19.045  0.00  0.00    +0.000 C 
ATOM     16  C   UNL     1      37.378 -19.358 -20.187  0.00  0.00    +0.000 C 
ATOM     17  C   UNL     1      34.017 -20.115 -21.573  0.00  0.00    +0.000 C 
ATOM     18  C   UNL     1      36.232 -18.537 -22.192  0.00  0.00    +0.000 C 
ATOM     19  C   UNL     1      34.008 -19.315 -22.716  0.00  0.00    +0.000 C 
ATOM     20  C   UNL     1      35.113 -18.527 -23.025  0.00  0.00    +0.000 C 
ENDBRANCH   6  11
BRANCH   4  21
ATOM     21  C   UNL     1      32.813 -23.634 -14.990  0.00  0.00    +0.001 C 
ATOM     22  C   UNL     1      32.088 -24.087 -13.887  0.00  0.00    -0.000 C 
ATOM     23  C   UNL     1      32.140 -23.184 -16.127  0.00  0.00    -0.000 C 
ATOM     24  C   UNL     1      30.023 -23.640 -15.057  0.00  0.00    -0.011 C 
ATOM     25  C   UNL     1      30.694 -24.090 -13.921  0.00  0.00    -0.004 C 
ATOM     26  C   UNL     1      30.746 -23.187 -16.161  0.00  0.00    -0.004 C 
BRANCH  24  27
ATOM     27  C   UNL     1      28.531 -23.641 -15.092  0.00  0.00    +0.136 C 
BRANCH  27  29
ATOM     28  O   UNL     1      27.762 -21.971 -16.687  0.00  0.00    -0.250 OA
ATOM     29  C   UNL     1      27.956 -23.145 -16.403  0.00  0.00    +0.318 C 
BRANCH  29  30
ATOM     30  O   UNL     1      27.673 -24.168 -17.252  0.00  0.00    -0.480 OA
ATOM     31  H   UNL     1      27.750 -24.043 -18.178  0.00  0.00    +0.295 HD
ENDBRANCH  29  30
ENDBRANCH  27  29
ENDBRANCH  24  27
ENDBRANCH   4  21
TORSDOF 5
ENDMDL
MODEL 4
REMARK VINA RESULT:     -11.0      1.759      3.119
REMARK  Name = 11952989
REMARK  5 active torsions:
REMARK  status: ('A' for Active; 'I' for Inactive)
REMARK    1  A    between atoms: C_4  and  C_21
REMARK    2  A    between atoms: C_6  and  C_11
REMARK    3  A    between atoms: C_24  and  C_27
REMARK    4  A    between atoms: C_27  and  C_29
REMARK    5  A    between atoms: C_29  and  O_30
REMARK                            x       y       z     vdW  Elec       q    Type
REMARK                         _______ _______ _______ _____ _____    ______ ____
ROOT
ATOM      1  N   UNL     1      36.499 -24.055 -13.972  0.00  0.00    -0.297 N 
ATOM      2  N   UNL     1      37.530 -22.809 -15.757  0.00  0.00    -0.229 NA
ATOM      3  C   UNL     1      35.130 -23.266 -15.549  0.00  0.00    +0.033 C 
ATOM      4  C   UNL     1      34.361 -23.968 -14.583  0.00  0.00    +0.017 C 
ATOM      5  C   UNL     1      36.458 -23.338 -15.139  0.00  0.00    +0.132 C 
ATOM      6  C   UNL     1      35.932 -22.000 -17.416  0.00  0.00    +0.019 C 
ATOM      7  C   UNL     1      34.857 -22.567 -16.736  0.00  0.00    +0.004 C 
ATOM      8  C   UNL     1      35.231 -24.443 -13.624  0.00  0.00    +0.063 C 
ATOM      9  C   UNL     1      37.210 -22.148 -16.894  0.00  0.00    +0.100 C 
ATOM     10  H   UNL     1      37.315 -24.260 -13.460  0.00  0.00    +0.154 HD
ENDROOT
BRANCH   6  11
ATOM     11  C   UNL     1      35.720 -21.268 -18.646  0.00  0.00    +0.001 C 
ATOM     12  C   UNL     1      36.566 -19.792 -20.385  0.00  0.00    +0.000 C 
ATOM     13  C   UNL     1      36.755 -20.509 -19.193  0.00  0.00    +0.000 C 
ATOM     14  C   UNL     1      35.308 -19.845 -21.032  0.00  0.00    +0.000 C 
ATOM     15  C   UNL     1      34.483 -21.320 -19.282  0.00  0.00    +0.000 C 
ATOM     16  C   UNL     1      34.277 -20.615 -20.468  0.00  0.00    +0.000 C 
ATOM     17  C   UNL     1      37.597 -19.022 -20.950  0.00  0.00    +0.000 C 
ATOM     18  C   UNL     1      35.119 -19.128 -22.225  0.00  0.00    +0.000 C 
ATOM     19  C   UNL     1      37.389 -18.316 -22.135  0.00  0.00    +0.000 C 
ATOM     20  C   UNL     1      36.153 -18.369 -22.772  0.00  0.00    +0.000 C 
ENDBRANCH   6  11
BRANCH   4  21
ATOM     21  C   UNL     1      32.947 -24.200 -14.521  0.00  0.00    +0.001 C 
ATOM     22  C   UNL     1      32.098 -23.591 -15.446  0.00  0.00    -0.000 C 
ATOM     23  C   UNL     1      32.418 -25.036 -13.536  0.00  0.00    -0.000 C 
ATOM     24  C   UNL     1      30.196 -24.653 -14.401  0.00  0.00    -0.011 C 
ATOM     25  C   UNL     1      30.724 -23.818 -15.386  0.00  0.00    -0.004 C 
ATOM     26  C   UNL     1      31.044 -25.262 -13.476  0.00  0.00    -0.004 C 
BRANCH  24  27
ATOM     27  C   UNL     1      28.725 -24.897 -14.339  0.00  0.00    +0.136 C 
BRANCH  27  29
ATOM     28  O   UNL     1      27.840 -24.668 -16.596  0.00  0.00    -0.250 OA
ATOM     29  C   UNL     1      27.955 -24.228 -15.460  0.00  0.00    +0.318 C 
BRANCH  29  30
ATOM     30  O   UNL     1      27.390 -23.058 -15.059  0.00  0.00    -0.480 OA
ATOM     31  H   UNL     1      27.933 -22.326 -14.842  0.00  0.00    +0.295 HD
ENDBRANCH  29  30
ENDBRANCH  27  29
ENDBRANCH  24  27
ENDBRANCH   4  21
TORSDOF 5
ENDMDL
MODEL 5
REMARK VINA RESULT:     -11.0      7.273     10.927
REMARK  Name = 11952989
REMARK  5 active torsions:
REMARK  status: ('A' for Active; 'I' for Inactive)
REMARK    1  A    between atoms: C_4  and  C_21
REMARK    2  A    between atoms: C_6  and  C_11
REMARK    3  A    between atoms: C_24  and  C_27
REMARK    4  A    between atoms: C_27  and  C_29
REMARK    5  A    between atoms: C_29  and  O_30
REMARK                            x       y       z     vdW  Elec       q    Type
REMARK                         _______ _______ _______ _____ _____    ______ ____
ROOT
ATOM      1  N   UNL     1      33.742 -14.464 -25.552  0.00  0.00    -0.297 N 
ATOM      2  N   UNL     1      34.771 -16.611 -25.186  0.00  0.00    -0.229 NA
ATOM      3  C   UNL     1      33.922 -15.128 -23.428  0.00  0.00    +0.033 C 
ATOM      4  C   UNL     1      33.297 -13.853 -23.459  0.00  0.00    +0.017 C 
ATOM      5  C   UNL     1      34.186 -15.481 -24.748  0.00  0.00    +0.132 C 
ATOM      6  C   UNL     1      34.909 -17.225 -22.828  0.00  0.00    +0.019 C 
ATOM      7  C   UNL     1      34.299 -16.039 -22.428  0.00  0.00    +0.004 C 
ATOM      8  C   UNL     1      33.200 -13.470 -24.780  0.00  0.00    +0.063 C 
ATOM      9  C   UNL     1      35.113 -17.451 -24.182  0.00  0.00    +0.100 C 
ATOM     10  H   UNL     1      33.802 -14.450 -26.535  0.00  0.00    +0.154 HD
ENDROOT
BRANCH   6  11
ATOM     11  C   UNL     1      35.323 -18.205 -21.847  0.00  0.00    +0.001 C 
ATOM     12  C   UNL     1      34.769 -20.040 -20.348  0.00  0.00    +0.000 C 
ATOM     13  C   UNL     1      34.385 -19.083 -21.301  0.00  0.00    +0.000 C 
ATOM     14  C   UNL     1      36.124 -20.107 -19.942  0.00  0.00    +0.000 C 
ATOM     15  C   UNL     1      36.655 -18.271 -21.449  0.00  0.00    +0.000 C 
ATOM     16  C   UNL     1      37.054 -19.216 -20.503  0.00  0.00    +0.000 C 
ATOM     17  C   UNL     1      33.840 -20.931 -19.787  0.00  0.00    +0.000 C 
ATOM     18  C   UNL     1      36.509 -21.064 -18.989  0.00  0.00    +0.000 C 
ATOM     19  C   UNL     1      34.240 -21.875 -18.841  0.00  0.00    +0.000 C 
ATOM     20  C   UNL     1      35.572 -21.942 -18.442  0.00  0.00    +0.000 C 
ENDBRANCH   6  11
BRANCH   4  21
ATOM     21  C   UNL     1      32.821 -13.033 -22.384  0.00  0.00    +0.001 C 
ATOM     22  C   UNL     1      32.455 -11.708 -22.624  0.00  0.00    -0.000 C 
ATOM     23  C   UNL     1      32.722 -13.558 -21.095  0.00  0.00    -0.000 C 
ATOM     24  C   UNL     1      31.894 -11.437 -20.290  0.00  0.00    -0.011 C 
ATOM     25  C   UNL     1      31.992 -10.911 -21.578  0.00  0.00    -0.004 C 
ATOM     26  C   UNL     1      32.259 -12.762 -20.048  0.00  0.00    -0.004 C 
BRANCH  24  27
ATOM     27  C   UNL     1      31.396 -10.584 -19.172  0.00  0.00    +0.136 C 
BRANCH  27  29
ATOM     28  O   UNL     1      32.183  -8.288 -19.361  0.00  0.00    -0.250 OA
ATOM     29  C   UNL     1      32.294  -9.402 -18.867  0.00  0.00    +0.318 C 
BRANCH  29  30
ATOM     30  O   UNL     1      33.260  -9.718 -17.965  0.00  0.00    -0.480 OA
ATOM     31  H   UNL     1      33.183  -9.429 -17.076  0.00  0.00    +0.295 HD
ENDBRANCH  29  30
ENDBRANCH  27  29
ENDBRANCH  24  27
ENDBRANCH   4  21
TORSDOF 5
ENDMDL
MODEL 6
REMARK VINA RESULT:     -10.8      4.099      7.410
REMARK  Name = 11952989
REMARK  5 active torsions:
REMARK  status: ('A' for Active; 'I' for Inactive)
REMARK    1  A    between atoms: C_4  and  C_21
REMARK    2  A    between atoms: C_6  and  C_11
REMARK    3  A    between atoms: C_24  and  C_27
REMARK    4  A    between atoms: C_27  and  C_29
REMARK    5  A    between atoms: C_29  and  O_30
REMARK                            x       y       z     vdW  Elec       q    Type
REMARK                         _______ _______ _______ _____ _____    ______ ____
ROOT
ATOM      1  N   UNL     1      31.220 -23.331 -15.753  0.00  0.00    -0.297 N 
ATOM      2  N   UNL     1      32.585 -24.493 -14.145  0.00  0.00    -0.229 NA
ATOM      3  C   UNL     1      33.424 -23.282 -16.104  0.00  0.00    +0.033 C 
ATOM      4  C   UNL     1      32.777 -22.552 -17.138  0.00  0.00    +0.017 C 
ATOM      5  C   UNL     1      32.425 -23.753 -15.258  0.00  0.00    +0.132 C 
ATOM      6  C   UNL     1      34.973 -24.367 -14.637  0.00  0.00    +0.019 C 
ATOM      7  C   UNL     1      34.752 -23.602 -15.779  0.00  0.00    +0.004 C 
ATOM      8  C   UNL     1      31.421 -22.600 -16.895  0.00  0.00    +0.063 C 
ATOM      9  C   UNL     1      33.883 -24.772 -13.879  0.00  0.00    +0.100 C 
ATOM     10  H   UNL     1      30.341 -23.522 -15.349  0.00  0.00    +0.154 HD
ENDROOT
BRANCH   6  11
ATOM     11  C   UNL     1      36.317 -24.733 -14.246  0.00  0.00    +0.001 C 
ATOM     12  C   UNL     1      38.297 -26.110 -14.567  0.00  0.00    +0.000 C 
ATOM     13  C   UNL     1      36.992 -25.743 -14.933  0.00  0.00    +0.000 C 
ATOM     14  C   UNL     1      38.927 -25.443 -13.489  0.00  0.00    +0.000 C 
ATOM     15  C   UNL     1      36.936 -24.077 -13.186  0.00  0.00    +0.000 C 
ATOM     16  C   UNL     1      38.233 -24.428 -12.809  0.00  0.00    +0.000 C 
ATOM     17  C   UNL     1      38.991 -27.125 -15.246  0.00  0.00    +0.000 C 
ATOM     18  C   UNL     1      40.232 -25.811 -13.123  0.00  0.00    +0.000 C 
ATOM     19  C   UNL     1      40.287 -27.476 -14.868  0.00  0.00    +0.000 C 
ATOM     20  C   UNL     1      40.907 -26.821 -13.809  0.00  0.00    +0.000 C 
ENDBRANCH   6  11
BRANCH   4  21
ATOM     21  C   UNL     1      33.333 -21.862 -18.266  0.00  0.00    +0.001 C 
ATOM     22  C   UNL     1      32.498 -21.163 -19.138  0.00  0.00    -0.000 C 
ATOM     23  C   UNL     1      34.710 -21.888 -18.492  0.00  0.00    -0.000 C 
ATOM     24  C   UNL     1      34.415 -20.518 -20.459  0.00  0.00    -0.011 C 
ATOM     25  C   UNL     1      33.039 -20.492 -20.234  0.00  0.00    -0.004 C 
ATOM     26  C   UNL     1      35.251 -21.216 -19.588  0.00  0.00    -0.004 C 
BRANCH  24  27
ATOM     27  C   UNL     1      34.993 -19.797 -21.630  0.00  0.00    +0.136 C 
BRANCH  27  29
ATOM     28  O   UNL     1      35.571 -17.803 -20.358  0.00  0.00    -0.250 OA
ATOM     29  C   UNL     1      35.840 -18.600 -21.246  0.00  0.00    +0.318 C 
BRANCH  29  30
ATOM     30  O   UNL     1      36.959 -18.505 -22.012  0.00  0.00    -0.480 OA
ATOM     31  H   UNL     1      37.543 -17.780 -21.899  0.00  0.00    +0.295 HD
ENDBRANCH  29  30
ENDBRANCH  27  29
ENDBRANCH  24  27
ENDBRANCH   4  21
TORSDOF 5
ENDMDL
MODEL 7
REMARK VINA RESULT:     -10.2     12.715     15.992
REMARK  Name = 11952989
REMARK  5 active torsions:
REMARK  status: ('A' for Active; 'I' for Inactive)
REMARK    1  A    between atoms: C_4  and  C_21
REMARK    2  A    between atoms: C_6  and  C_11
REMARK    3  A    between atoms: C_24  and  C_27
REMARK    4  A    between atoms: C_27  and  C_29
REMARK    5  A    between atoms: C_29  and  O_30
REMARK                            x       y       z     vdW  Elec       q    Type
REMARK                         _______ _______ _______ _____ _____    ______ ____
ROOT
ATOM      1  N   UNL     1      31.791  -9.401 -18.816  0.00  0.00    -0.297 N 
ATOM      2  N   UNL     1      31.914  -7.067 -19.398  0.00  0.00    -0.229 NA
ATOM      3  C   UNL     1      32.348  -8.934 -20.926  0.00  0.00    +0.033 C 
ATOM      4  C   UNL     1      32.322 -10.345 -20.759  0.00  0.00    +0.017 C 
ATOM      5  C   UNL     1      32.012  -8.376 -19.697  0.00  0.00    +0.132 C 
ATOM      6  C   UNL     1      32.530  -6.686 -21.729  0.00  0.00    +0.019 C 
ATOM      7  C   UNL     1      32.617  -8.052 -21.985  0.00  0.00    +0.004 C 
ATOM      8  C   UNL     1      31.976 -10.602 -19.450  0.00  0.00    +0.063 C 
ATOM      9  C   UNL     1      32.184  -6.264 -20.453  0.00  0.00    +0.100 C 
ATOM     10  H   UNL     1      31.537  -9.293 -17.870  0.00  0.00    +0.154 HD
ENDROOT
BRANCH   6  11
ATOM     11  C   UNL     1      32.796  -5.723 -22.776  0.00  0.00    +0.001 C 
ATOM     12  C   UNL     1      34.115  -5.018 -24.695  0.00  0.00    +0.000 C 
ATOM     13  C   UNL     1      33.842  -5.942 -23.673  0.00  0.00    +0.000 C 
ATOM     14  C   UNL     1      33.314  -3.856 -24.809  0.00  0.00    +0.000 C 
ATOM     15  C   UNL     1      32.010  -4.581 -22.887  0.00  0.00    +0.000 C 
ATOM     16  C   UNL     1      32.265  -3.653 -23.897  0.00  0.00    +0.000 C 
ATOM     17  C   UNL     1      35.163  -5.221 -25.607  0.00  0.00    +0.000 C 
ATOM     18  C   UNL     1      33.587  -2.932 -25.831  0.00  0.00    +0.000 C 
ATOM     19  C   UNL     1      35.419  -4.292 -26.616  0.00  0.00    +0.000 C 
ATOM     20  C   UNL     1      34.632  -3.150 -26.728  0.00  0.00    +0.000 C 
ENDBRANCH   6  11
BRANCH   4  21
ATOM     21  C   UNL     1      32.589 -11.390 -21.704  0.00  0.00    +0.001 C 
ATOM     22  C   UNL     1      32.254 -12.710 -21.400  0.00  0.00    -0.000 C 
ATOM     23  C   UNL     1      33.185 -11.089 -22.930  0.00  0.00    -0.000 C 
ATOM     24  C   UNL     1      33.109 -13.424 -23.544  0.00  0.00    -0.011 C 
ATOM     25  C   UNL     1      32.513 -13.726 -22.319  0.00  0.00    -0.004 C 
ATOM     26  C   UNL     1      33.445 -12.105 -23.849  0.00  0.00    -0.004 C 
BRANCH  24  27
ATOM     27  C   UNL     1      33.384 -14.511 -24.527  0.00  0.00    +0.136 C 
BRANCH  27  29
ATOM     28  O   UNL     1      35.202 -15.299 -23.112  0.00  0.00    -0.250 OA
ATOM     29  C   UNL     1      34.484 -15.458 -24.090  0.00  0.00    +0.318 C 
BRANCH  29  30
ATOM     30  O   UNL     1      34.590 -16.529 -24.920  0.00  0.00    -0.480 OA
ATOM     31  H   UNL     1      33.822 -16.894 -25.314  0.00  0.00    +0.295 HD
ENDBRANCH  29  30
ENDBRANCH  27  29
ENDBRANCH  24  27
ENDBRANCH   4  21
TORSDOF 5
ENDMDL
MODEL 8
REMARK VINA RESULT:     -10.2      1.317      2.682
REMARK  Name = 11952989
REMARK  5 active torsions:
REMARK  status: ('A' for Active; 'I' for Inactive)
REMARK    1  A    between atoms: C_4  and  C_21
REMARK    2  A    between atoms: C_6  and  C_11
REMARK    3  A    between atoms: C_24  and  C_27
REMARK    4  A    between atoms: C_27  and  C_29
REMARK    5  A    between atoms: C_29  and  O_30
REMARK                            x       y       z     vdW  Elec       q    Type
REMARK                         _______ _______ _______ _____ _____    ______ ____
ROOT
ATOM      1  N   UNL     1      35.579 -24.207 -14.203  0.00  0.00    -0.297 N 
ATOM      2  N   UNL     1      36.816 -23.110 -15.954  0.00  0.00    -0.229 NA
ATOM      3  C   UNL     1      34.372 -23.179 -15.774  0.00  0.00    +0.033 C 
ATOM      4  C   UNL     1      33.490 -23.767 -14.828  0.00  0.00    +0.017 C 
ATOM      5  C   UNL     1      35.666 -23.472 -15.355  0.00  0.00    +0.132 C 
ATOM      6  C   UNL     1      35.388 -22.023 -17.609  0.00  0.00    +0.019 C 
ATOM      7  C   UNL     1      34.228 -22.423 -16.949  0.00  0.00    +0.004 C 
ATOM      8  C   UNL     1      34.262 -24.393 -13.873  0.00  0.00    +0.063 C 
ATOM      9  C   UNL     1      36.619 -22.385 -17.079  0.00  0.00    +0.100 C 
ATOM     10  H   UNL     1      36.346 -24.551 -13.688  0.00  0.00    +0.154 HD
ENDROOT
BRANCH   6  11
ATOM     11  C   UNL     1      35.309 -21.243 -18.825  0.00  0.00    +0.001 C 
ATOM     12  C   UNL     1      36.381 -19.818 -20.479  0.00  0.00    +0.000 C 
ATOM     13  C   UNL     1      36.440 -20.579 -19.301  0.00  0.00    +0.000 C 
ATOM     14  C   UNL     1      35.157 -19.729 -21.185  0.00  0.00    +0.000 C 
ATOM     15  C   UNL     1      34.106 -21.156 -19.518  0.00  0.00    +0.000 C 
ATOM     16  C   UNL     1      34.029 -20.404 -20.691  0.00  0.00    +0.000 C 
ATOM     17  C   UNL     1      37.509 -19.142 -20.973  0.00  0.00    +0.000 C 
ATOM     18  C   UNL     1      35.098 -18.967 -22.363  0.00  0.00    +0.000 C 
ATOM     19  C   UNL     1      37.431 -18.390 -22.146  0.00  0.00    +0.000 C 
ATOM     20  C   UNL     1      36.229 -18.303 -22.840  0.00  0.00    +0.000 C 
ENDBRANCH   6  11
BRANCH   4  21
ATOM     21  C   UNL     1      32.056 -23.770 -14.782  0.00  0.00    +0.001 C 
ATOM     22  C   UNL     1      31.339 -24.778 -15.427  0.00  0.00    -0.000 C 
ATOM     23  C   UNL     1      31.377 -22.765 -14.092  0.00  0.00    -0.000 C 
ATOM     24  C   UNL     1      29.267 -23.776 -14.692  0.00  0.00    -0.011 C 
ATOM     25  C   UNL     1      29.945 -24.780 -15.382  0.00  0.00    -0.004 C 
ATOM     26  C   UNL     1      29.983 -22.768 -14.047  0.00  0.00    -0.004 C 
BRANCH  24  27
ATOM     27  C   UNL     1      27.776 -23.782 -14.642  0.00  0.00    +0.136 C 
BRANCH  27  29
ATOM     28  O   UNL     1      25.977 -22.308 -15.364  0.00  0.00    -0.250 OA
ATOM     29  C   UNL     1      27.140 -22.677 -15.461  0.00  0.00    +0.318 C 
BRANCH  29  30
ATOM     30  O   UNL     1      28.020 -22.125 -16.338  0.00  0.00    -0.480 OA
ATOM     31  H   UNL     1      27.723 -21.495 -16.966  0.00  0.00    +0.295 HD
ENDBRANCH  29  30
ENDBRANCH  27  29
ENDBRANCH  24  27
ENDBRANCH   4  21
TORSDOF 5
ENDMDL
MODEL 9
REMARK VINA RESULT:     -10.1      3.221      7.945
REMARK  Name = 11952989
REMARK  5 active torsions:
REMARK  status: ('A' for Active; 'I' for Inactive)
REMARK    1  A    between atoms: C_4  and  C_21
REMARK    2  A    between atoms: C_6  and  C_11
REMARK    3  A    between atoms: C_24  and  C_27
REMARK    4  A    between atoms: C_27  and  C_29
REMARK    5  A    between atoms: C_29  and  O_30
REMARK                            x       y       z     vdW  Elec       q    Type
REMARK                         _______ _______ _______ _____ _____    ______ ____
ROOT
ATOM      1  N   UNL     1      38.192 -22.743 -15.761  0.00  0.00    -0.297 N 
ATOM      2  N   UNL     1      36.605 -23.847 -14.324  0.00  0.00    -0.229 NA
ATOM      3  C   UNL     1      36.047 -22.611 -16.367  0.00  0.00    +0.033 C 
ATOM      4  C   UNL     1      36.837 -21.912 -17.319  0.00  0.00    +0.017 C 
ATOM      5  C   UNL     1      36.922 -23.117 -15.410  0.00  0.00    +0.132 C 
ATOM      6  C   UNL     1      34.298 -23.632 -15.090  0.00  0.00    +0.019 C 
ATOM      7  C   UNL     1      34.679 -22.881 -16.199  0.00  0.00    +0.004 C 
ATOM      8  C   UNL     1      38.153 -22.011 -16.919  0.00  0.00    +0.063 C 
ATOM      9  C   UNL     1      35.276 -24.076 -14.212  0.00  0.00    +0.100 C 
ATOM     10  H   UNL     1      39.010 -22.967 -15.259  0.00  0.00    +0.154 HD
ENDROOT
BRANCH   6  11
ATOM     11  C   UNL     1      32.904 -23.944 -14.859  0.00  0.00    +0.001 C 
ATOM     12  C   UNL     1      30.559 -23.630 -15.426  0.00  0.00    +0.000 C 
ATOM     13  C   UNL     1      31.916 -23.339 -15.638  0.00  0.00    +0.000 C 
ATOM     14  C   UNL     1      30.198 -24.548 -14.410  0.00  0.00    +0.000 C 
ATOM     15  C   UNL     1      32.549 -24.846 -13.860  0.00  0.00    +0.000 C 
ATOM     16  C   UNL     1      31.206 -25.147 -13.637  0.00  0.00    +0.000 C 
ATOM     17  C   UNL     1      29.551 -23.031 -16.200  0.00  0.00    +0.000 C 
ATOM     18  C   UNL     1      28.840 -24.839 -14.199  0.00  0.00    +0.000 C 
ATOM     19  C   UNL     1      28.208 -23.333 -15.975  0.00  0.00    +0.000 C 
ATOM     20  C   UNL     1      27.853 -24.235 -14.977  0.00  0.00    +0.000 C 
ENDBRANCH   6  11
BRANCH   4  21
ATOM     21  C   UNL     1      36.443 -21.205 -18.502  0.00  0.00    +0.001 C 
ATOM     22  C   UNL     1      35.171 -21.399 -19.042  0.00  0.00    -0.000 C 
ATOM     23  C   UNL     1      37.331 -20.319 -19.115  0.00  0.00    -0.000 C 
ATOM     24  C   UNL     1      35.676 -19.826 -20.804  0.00  0.00    -0.011 C 
ATOM     25  C   UNL     1      34.788 -20.710 -20.192  0.00  0.00    -0.004 C 
ATOM     26  C   UNL     1      36.948 -19.630 -20.265  0.00  0.00    -0.004 C 
BRANCH  24  27
ATOM     27  C   UNL     1      35.265 -19.087 -22.033  0.00  0.00    +0.136 C 
BRANCH  27  29
ATOM     28  O   UNL     1      35.300 -16.941 -20.884  0.00  0.00    -0.250 OA
ATOM     29  C   UNL     1      35.424 -17.584 -21.917  0.00  0.00    +0.318 C 
BRANCH  29  30
ATOM     30  O   UNL     1      35.726 -17.013 -23.113  0.00  0.00    -0.480 OA
ATOM     31  H   UNL     1      35.047 -16.628 -23.633  0.00  0.00    +0.295 HD
ENDBRANCH  29  30
ENDBRANCH  27  29
ENDBRANCH  24  27
ENDBRANCH   4  21
TORSDOF 5
ENDMDL
