MODEL 1
REMARK VINA RESULT:     -11.8      0.000      0.000
REMARK  Name = 60795
REMARK  7 active torsions:
REMARK  status: ('A' for Active; 'I' for Inactive)
REMARK    1  A    between atoms: C_1  and  N_2
REMARK    2  A    between atoms: C_1  and  C_17
REMARK    3  A    between atoms: N_3  and  C_11
REMARK    4  A    between atoms: C_17  and  C_18
REMARK    5  A    between atoms: C_18  and  C_19
REMARK    6  A    between atoms: C_19  and  O_20
REMARK    7  A    between atoms: O_20  and  C_26
REMARK                            x       y       z     vdW  Elec       q    Type
REMARK                         _______ _______ _______ _____ _____    ______ ____
ROOT
ATOM      1  C   UNL     1      34.623 -16.175 -24.264  0.00  0.00    -0.077 C 
ENDROOT
BRANCH   1   2
ATOM      2  N   UNL     1      35.158 -17.249 -23.428  0.00  0.00    +0.389 N 
ATOM      3  N   UNL     1      35.118 -19.184 -21.326  0.00  0.00    -0.311 N 
ATOM      4  C   UNL     1      35.228 -16.823 -22.025  0.00  0.00    -0.055 C 
ATOM      5  C   UNL     1      34.327 -18.454 -23.543  0.00  0.00    -0.055 C 
ATOM      6  C   UNL     1      35.840 -17.917 -21.148  0.00  0.00    +0.068 C 
ATOM      7  C   UNL     1      34.908 -19.604 -22.715  0.00  0.00    +0.068 C 
ATOM      8  H   UNL     1      36.099 -17.467 -23.754  0.00  0.00    -0.080 HD
BRANCH   3  11
ATOM      9 CL   UNL     1      32.526 -20.383 -20.376  0.00  0.00    -0.080 Cl
ATOM     10 CL   UNL     1      32.890 -22.578 -18.062  0.00  0.00    -0.081 Cl
ATOM     11  C   UNL     1      35.223 -20.148 -20.318  0.00  0.00    +0.059 C 
ATOM     12  C   UNL     1      34.098 -20.800 -19.767  0.00  0.00    +0.081 C 
ATOM     13  C   UNL     1      36.495 -20.496 -19.818  0.00  0.00    +0.015 C 
ATOM     14  C   UNL     1      34.241 -21.757 -18.761  0.00  0.00    +0.069 C 
ATOM     15  C   UNL     1      36.637 -21.453 -18.814  0.00  0.00    +0.002 C 
ATOM     16  C   UNL     1      35.511 -22.083 -18.285  0.00  0.00    +0.012 C 
ENDBRANCH   3  11
ENDBRANCH   1   2
BRANCH   1  17
ATOM     17  C   UNL     1      34.410 -14.912 -23.433  0.00  0.00    -0.019 C 
BRANCH  17  18
ATOM     18  C   UNL     1      33.378 -13.990 -24.082  0.00  0.00    +0.045 C 
BRANCH  18  19
ATOM     19  C   UNL     1      33.836 -12.538 -24.074  0.00  0.00    +0.205 C 
BRANCH  19  20
ATOM     20  O   UNL     1      33.006 -11.774 -23.201  0.00  0.00    -0.475 OA
BRANCH  20  26
ATOM     21  O   UNL     1      30.404  -5.295 -21.896  0.00  0.00    -0.275 OA
ATOM     22  N   UNL     1      31.237  -7.382 -22.371  0.00  0.00    -0.284 N 
ATOM     23  C   UNL     1      33.474  -7.641 -23.288  0.00  0.00    -0.008 C 
ATOM     24  C   UNL     1      33.579  -6.148 -23.408  0.00  0.00    +0.037 C 
ATOM     25  C   UNL     1      32.286  -8.209 -22.808  0.00  0.00    +0.049 C 
ATOM     26  C   UNL     1      33.157 -10.421 -23.229  0.00  0.00    +0.140 C 
ATOM     27  C   UNL     1      32.757  -5.458 -22.330  0.00  0.00    +0.090 C 
ATOM     28  C   UNL     1      32.123  -9.597 -22.787  0.00  0.00    +0.051 C 
ATOM     29  C   UNL     1      34.500  -8.477 -23.741  0.00  0.00    +0.000 C 
ATOM     30  C   UNL     1      34.344  -9.864 -23.701  0.00  0.00    +0.037 C 
ATOM     31  C   UNL     1      31.351  -6.015 -22.210  0.00  0.00    +0.226 C 
ATOM     32  H   UNL     1      30.369  -7.802 -22.168  0.00  0.00    +0.155 HD
ENDBRANCH  20  26
ENDBRANCH  19  20
ENDBRANCH  18  19
ENDBRANCH  17  18
ENDBRANCH   1  17
TORSDOF 7
ENDMDL
MODEL 2
REMARK VINA RESULT:     -11.4      4.927     12.002
REMARK  Name = 60795
REMARK  7 active torsions:
REMARK  status: ('A' for Active; 'I' for Inactive)
REMARK    1  A    between atoms: C_1  and  N_2
REMARK    2  A    between atoms: C_1  and  C_17
REMARK    3  A    between atoms: N_3  and  C_11
REMARK    4  A    between atoms: C_17  and  C_18
REMARK    5  A    between atoms: C_18  and  C_19
REMARK    6  A    between atoms: C_19  and  O_20
REMARK    7  A    between atoms: O_20  and  C_26
REMARK                            x       y       z     vdW  Elec       q    Type
REMARK                         _______ _______ _______ _____ _____    ______ ____
ROOT
ATOM      1  C   UNL     1      34.579 -16.379 -24.481  0.00  0.00    -0.077 C 
ENDROOT
BRANCH   1   2
ATOM      2  N   UNL     1      33.837 -15.195 -24.049  0.00  0.00    +0.389 N 
ATOM      3  N   UNL     1      33.457 -12.423 -23.471  0.00  0.00    -0.311 N 
ATOM      4  C   UNL     1      34.478 -14.586 -22.876  0.00  0.00    -0.055 C 
ATOM      5  C   UNL     1      33.753 -14.214 -25.137  0.00  0.00    -0.055 C 
ATOM      6  C   UNL     1      33.679 -13.380 -22.379  0.00  0.00    +0.068 C 
ATOM      7  C   UNL     1      32.931 -12.993 -24.716  0.00  0.00    +0.068 C 
ATOM      8  H   UNL     1      32.894 -15.486 -23.795  0.00  0.00    -0.080 HD
BRANCH   3  11
ATOM      9 CL   UNL     1      35.081 -10.312 -24.873  0.00  0.00    -0.080 Cl
ATOM     10 CL   UNL     1      34.315  -7.314 -24.021  0.00  0.00    -0.081 Cl
ATOM     11  C   UNL     1      33.160 -11.098 -23.135  0.00  0.00    +0.059 C 
ATOM     12  C   UNL     1      33.835  -9.997 -23.706  0.00  0.00    +0.081 C 
ATOM     13  C   UNL     1      32.148 -10.831 -22.190  0.00  0.00    +0.015 C 
ATOM     14  C   UNL     1      33.512  -8.688 -23.345  0.00  0.00    +0.069 C 
ATOM     15  C   UNL     1      31.824  -9.523 -21.831  0.00  0.00    +0.002 C 
ATOM     16  C   UNL     1      32.506  -8.451 -22.408  0.00  0.00    +0.012 C 
ENDBRANCH   3  11
ENDBRANCH   1   2
BRANCH   1  17
ATOM     17  C   UNL     1      35.067 -17.171 -23.270  0.00  0.00    -0.019 C 
BRANCH  17  18
ATOM     18  C   UNL     1      34.594 -18.623 -23.331  0.00  0.00    +0.045 C 
BRANCH  18  19
ATOM     19  C   UNL     1      35.018 -19.406 -22.096  0.00  0.00    +0.205 C 
BRANCH  19  20
ATOM     20  O   UNL     1      33.864 -19.870 -21.398  0.00  0.00    -0.475 OA
BRANCH  20  26
ATOM     21  O   UNL     1      31.253 -23.548 -15.911  0.00  0.00    -0.275 OA
ATOM     22  N   UNL     1      32.110 -22.319 -17.651  0.00  0.00    -0.284 N 
ATOM     23  C   UNL     1      34.515 -22.137 -17.971  0.00  0.00    -0.008 C 
ATOM     24  C   UNL     1      34.724 -22.866 -16.675  0.00  0.00    +0.037 C 
ATOM     25  C   UNL     1      33.209 -21.853 -18.395  0.00  0.00    +0.049 C 
ATOM     26  C   UNL     1      34.074 -20.612 -20.276  0.00  0.00    +0.140 C 
ATOM     27  C   UNL     1      33.583 -23.835 -16.407  0.00  0.00    +0.090 C 
ATOM     28  C   UNL     1      32.988 -21.084 -19.540  0.00  0.00    +0.051 C 
ATOM     29  C   UNL     1      35.597 -21.648 -18.709  0.00  0.00    +0.000 C 
ATOM     30  C   UNL     1      35.376 -20.895 -19.864  0.00  0.00    +0.037 C 
ATOM     31  C   UNL     1      32.216 -23.206 -16.598  0.00  0.00    +0.226 C 
ATOM     32  H   UNL     1      31.214 -21.992 -17.896  0.00  0.00    +0.155 HD
ENDBRANCH  20  26
ENDBRANCH  19  20
ENDBRANCH  18  19
ENDBRANCH  17  18
ENDBRANCH   1  17
TORSDOF 7
ENDMDL
MODEL 3
REMARK VINA RESULT:     -11.2      5.122     12.195
REMARK  Name = 60795
REMARK  7 active torsions:
REMARK  status: ('A' for Active; 'I' for Inactive)
REMARK    1  A    between atoms: C_1  and  N_2
REMARK    2  A    between atoms: C_1  and  C_17
REMARK    3  A    between atoms: N_3  and  C_11
REMARK    4  A    between atoms: C_17  and  C_18
REMARK    5  A    between atoms: C_18  and  C_19
REMARK    6  A    between atoms: C_19  and  O_20
REMARK    7  A    between atoms: O_20  and  C_26
REMARK                            x       y       z     vdW  Elec       q    Type
REMARK                         _______ _______ _______ _____ _____    ______ ____
ROOT
ATOM      1  C   UNL     1      34.965 -17.313 -23.842  0.00  0.00    -0.077 C 
ENDROOT
BRANCH   1   2
ATOM      2  N   UNL     1      34.758 -15.878 -23.656  0.00  0.00    +0.389 N 
ATOM      3  N   UNL     1      33.362 -13.532 -22.810  0.00  0.00    -0.311 N 
ATOM      4  C   UNL     1      33.550 -15.435 -24.365  0.00  0.00    -0.055 C 
ATOM      5  C   UNL     1      34.645 -15.554 -22.229  0.00  0.00    -0.055 C 
ATOM      6  C   UNL     1      33.353 -13.925 -24.225  0.00  0.00    +0.068 C 
ATOM      7  C   UNL     1      34.483 -14.046 -22.016  0.00  0.00    +0.068 C 
ATOM      8  H   UNL     1      35.564 -15.387 -24.041  0.00  0.00    -0.080 HD
BRANCH   3  11
ATOM      9 CL   UNL     1      34.240 -11.129 -24.395  0.00  0.00    -0.080 Cl
ATOM     10 CL   UNL     1      32.807  -8.398 -23.502  0.00  0.00    -0.081 Cl
ATOM     11  C   UNL     1      32.765 -12.317 -22.460  0.00  0.00    +0.059 C 
ATOM     12  C   UNL     1      33.073 -11.101 -23.109  0.00  0.00    +0.081 C 
ATOM     13  C   UNL     1      31.814 -12.283 -21.419  0.00  0.00    +0.015 C 
ATOM     14  C   UNL     1      32.458  -9.907 -22.732  0.00  0.00    +0.069 C 
ATOM     15  C   UNL     1      31.199 -11.090 -21.043  0.00  0.00    +0.002 C 
ATOM     16  C   UNL     1      31.521  -9.901 -21.699  0.00  0.00    +0.012 C 
ENDBRANCH   3  11
ENDBRANCH   1   2
BRANCH   1  17
ATOM     17  C   UNL     1      35.394 -17.962 -22.528  0.00  0.00    -0.019 C 
BRANCH  17  18
ATOM     18  C   UNL     1      34.813 -19.369 -22.390  0.00  0.00    +0.045 C 
BRANCH  18  19
ATOM     19  C   UNL     1      34.566 -19.735 -20.933  0.00  0.00    +0.205 C 
BRANCH  19  20
ATOM     20  O   UNL     1      35.535 -20.688 -20.503  0.00  0.00    -0.475 OA
BRANCH  20  26
ATOM     21  O   UNL     1      37.832 -23.089 -14.224  0.00  0.00    -0.275 OA
ATOM     22  N   UNL     1      37.090 -22.364 -16.273  0.00  0.00    -0.284 N 
ATOM     23  C   UNL     1      34.770 -22.682 -16.932  0.00  0.00    -0.008 C 
ATOM     24  C   UNL     1      34.546 -23.489 -15.686  0.00  0.00    +0.037 C 
ATOM     25  C   UNL     1      36.050 -22.179 -17.202  0.00  0.00    +0.049 C 
ATOM     26  C   UNL     1      35.287 -21.341 -19.334  0.00  0.00    +0.140 C 
ATOM     27  C   UNL     1      35.458 -23.019 -14.563  0.00  0.00    +0.090 C 
ATOM     28  C   UNL     1      36.312 -21.518 -18.405  0.00  0.00    +0.051 C 
ATOM     29  C   UNL     1      33.753 -22.510 -17.876  0.00  0.00    +0.000 C 
ATOM     30  C   UNL     1      34.010 -21.833 -19.069  0.00  0.00    +0.037 C 
ATOM     31  C   UNL     1      36.903 -22.866 -15.000  0.00  0.00    +0.226 C 
ATOM     32  H   UNL     1      38.004 -22.121 -16.547  0.00  0.00    +0.155 HD
ENDBRANCH  20  26
ENDBRANCH  19  20
ENDBRANCH  18  19
ENDBRANCH  17  18
ENDBRANCH   1  17
TORSDOF 7
ENDMDL
MODEL 4
REMARK VINA RESULT:     -11.1      4.639     12.046
REMARK  Name = 60795
REMARK  7 active torsions:
REMARK  status: ('A' for Active; 'I' for Inactive)
REMARK    1  A    between atoms: C_1  and  N_2
REMARK    2  A    between atoms: C_1  and  C_17
REMARK    3  A    between atoms: N_3  and  C_11
REMARK    4  A    between atoms: C_17  and  C_18
REMARK    5  A    between atoms: C_18  and  C_19
REMARK    6  A    between atoms: C_19  and  O_20
REMARK    7  A    between atoms: O_20  and  C_26
REMARK                            x       y       z     vdW  Elec       q    Type
REMARK                         _______ _______ _______ _____ _____    ______ ____
ROOT
ATOM      1  C   UNL     1      34.847 -17.396 -23.957  0.00  0.00    -0.077 C 
ENDROOT
BRANCH   1   2
ATOM      2  N   UNL     1      34.750 -15.943 -23.823  0.00  0.00    +0.389 N 
ATOM      3  N   UNL     1      33.534 -13.468 -23.077  0.00  0.00    -0.311 N 
ATOM      4  C   UNL     1      33.588 -15.434 -24.562  0.00  0.00    -0.055 C 
ATOM      5  C   UNL     1      34.649 -15.562 -22.410  0.00  0.00    -0.055 C 
ATOM      6  C   UNL     1      33.508 -13.909 -24.478  0.00  0.00    +0.068 C 
ATOM      7  C   UNL     1      34.603 -14.039 -22.252  0.00  0.00    +0.068 C 
ATOM      8  H   UNL     1      35.596 -15.531 -24.215  0.00  0.00    -0.080 HD
BRANCH   3  11
ATOM      9 CL   UNL     1      32.098 -13.207 -20.444  0.00  0.00    -0.080 Cl
ATOM     10 CL   UNL     1      30.983 -10.253 -19.867  0.00  0.00    -0.081 Cl
ATOM     11  C   UNL     1      33.030 -12.198 -22.777  0.00  0.00    +0.059 C 
ATOM     12  C   UNL     1      32.332 -11.917 -21.583  0.00  0.00    +0.081 C 
ATOM     13  C   UNL     1      33.216 -11.142 -23.694  0.00  0.00    +0.015 C 
ATOM     14  C   UNL     1      31.842 -10.637 -21.318  0.00  0.00    +0.069 C 
ATOM     15  C   UNL     1      32.727  -9.863 -23.429  0.00  0.00    +0.002 C 
ATOM     16  C   UNL     1      32.040  -9.611 -22.241  0.00  0.00    +0.012 C 
ENDBRANCH   3  11
ENDBRANCH   1   2
BRANCH   1  17
ATOM     17  C   UNL     1      35.391 -18.013 -22.670  0.00  0.00    -0.019 C 
BRANCH  17  18
ATOM     18  C   UNL     1      34.843 -19.424 -22.458  0.00  0.00    +0.045 C 
BRANCH  18  19
ATOM     19  C   UNL     1      34.628 -19.728 -20.981  0.00  0.00    +0.205 C 
BRANCH  19  20
ATOM     20  O   UNL     1      35.604 -20.667 -20.534  0.00  0.00    -0.475 OA
BRANCH  20  26
ATOM     21  O   UNL     1      37.864 -23.147 -14.274  0.00  0.00    -0.275 OA
ATOM     22  N   UNL     1      37.133 -22.396 -16.317  0.00  0.00    -0.284 N 
ATOM     23  C   UNL     1      34.807 -22.669 -16.975  0.00  0.00    -0.008 C 
ATOM     24  C   UNL     1      34.570 -23.479 -15.733  0.00  0.00    +0.037 C 
ATOM     25  C   UNL     1      36.096 -22.187 -17.243  0.00  0.00    +0.049 C 
ATOM     26  C   UNL     1      35.345 -21.322 -19.369  0.00  0.00    +0.140 C 
ATOM     27  C   UNL     1      35.492 -23.032 -14.609  0.00  0.00    +0.090 C 
ATOM     28  C   UNL     1      36.368 -21.524 -18.443  0.00  0.00    +0.051 C 
ATOM     29  C   UNL     1      33.792 -22.473 -17.917  0.00  0.00    +0.000 C 
ATOM     30  C   UNL     1      34.060 -21.792 -19.106  0.00  0.00    +0.037 C 
ATOM     31  C   UNL     1      36.938 -22.903 -15.047  0.00  0.00    +0.226 C 
ATOM     32  H   UNL     1      38.051 -22.168 -16.590  0.00  0.00    +0.155 HD
ENDBRANCH  20  26
ENDBRANCH  19  20
ENDBRANCH  18  19
ENDBRANCH  17  18
ENDBRANCH   1  17
TORSDOF 7
ENDMDL
MODEL 5
REMARK VINA RESULT:     -11.1      4.677     11.755
REMARK  Name = 60795
REMARK  7 active torsions:
REMARK  status: ('A' for Active; 'I' for Inactive)
REMARK    1  A    between atoms: C_1  and  N_2
REMARK    2  A    between atoms: C_1  and  C_17
REMARK    3  A    between atoms: N_3  and  C_11
REMARK    4  A    between atoms: C_17  and  C_18
REMARK    5  A    between atoms: C_18  and  C_19
REMARK    6  A    between atoms: C_19  and  O_20
REMARK    7  A    between atoms: O_20  and  C_26
REMARK                            x       y       z     vdW  Elec       q    Type
REMARK                         _______ _______ _______ _____ _____    ______ ____
ROOT
ATOM      1  C   UNL     1      33.455 -14.544 -22.595  0.00  0.00    -0.077 C 
ENDROOT
BRANCH   1   2
ATOM      2  N   UNL     1      32.927 -13.228 -22.952  0.00  0.00    +0.389 N 
ATOM      3  N   UNL     1      32.836 -10.372 -22.974  0.00  0.00    -0.311 N 
ATOM      4  C   UNL     1      32.531 -12.488 -21.747  0.00  0.00    -0.055 C 
ATOM      5  C   UNL     1      33.925 -12.459 -23.705  0.00  0.00    -0.055 C 
ATOM      6  C   UNL     1      31.923 -11.132 -22.111  0.00  0.00    +0.068 C 
ATOM      7  C   UNL     1      33.365 -11.099 -24.133  0.00  0.00    +0.068 C 
ATOM      8  H   UNL     1      32.105 -13.364 -23.540  0.00  0.00    -0.080 HD
BRANCH   3  11
ATOM      9 CL   UNL     1      35.196  -8.825 -24.022  0.00  0.00    -0.080 Cl
ATOM     10 CL   UNL     1      34.719  -5.653 -24.124  0.00  0.00    -0.081 Cl
ATOM     11  C   UNL     1      32.678  -8.984 -23.040  0.00  0.00    +0.059 C 
ATOM     12  C   UNL     1      33.694  -8.122 -23.508  0.00  0.00    +0.081 C 
ATOM     13  C   UNL     1      31.461  -8.402 -22.627  0.00  0.00    +0.015 C 
ATOM     14  C   UNL     1      33.501  -6.741 -23.558  0.00  0.00    +0.069 C 
ATOM     15  C   UNL     1      31.268  -7.022 -22.679  0.00  0.00    +0.002 C 
ATOM     16  C   UNL     1      32.287  -6.191 -23.144  0.00  0.00    +0.012 C 
ENDBRANCH   3  11
ENDBRANCH   1   2
BRANCH   1  17
ATOM     17  C   UNL     1      34.578 -14.942 -23.550  0.00  0.00    -0.019 C 
BRANCH  17  18
ATOM     18  C   UNL     1      34.134 -16.064 -24.488  0.00  0.00    +0.045 C 
BRANCH  18  19
ATOM     19  C   UNL     1      34.518 -17.435 -23.946  0.00  0.00    +0.205 C 
BRANCH  19  20
ATOM     20  O   UNL     1      35.627 -17.311 -23.058  0.00  0.00    -0.475 OA
BRANCH  20  26
ATOM     21  O   UNL     1      32.642 -22.141 -18.790  0.00  0.00    -0.275 OA
ATOM     22  N   UNL     1      33.613 -20.546 -20.127  0.00  0.00    -0.284 N 
ATOM     23  C   UNL     1      36.021 -20.206 -20.096  0.00  0.00    -0.008 C 
ATOM     24  C   UNL     1      36.126 -21.176 -18.955  0.00  0.00    +0.037 C 
ATOM     25  C   UNL     1      34.759 -19.894 -20.618  0.00  0.00    +0.049 C 
ATOM     26  C   UNL     1      35.754 -18.258 -22.089  0.00  0.00    +0.140 C 
ATOM     27  C   UNL     1      35.027 -22.225 -19.033  0.00  0.00    +0.090 C 
ATOM     28  C   UNL     1      34.622 -18.914 -21.605  0.00  0.00    +0.051 C 
ATOM     29  C   UNL     1      37.148 -19.532 -20.579  0.00  0.00    +0.000 C 
ATOM     30  C   UNL     1      37.014 -18.567 -21.579  0.00  0.00    +0.037 C 
ATOM     31  C   UNL     1      33.653 -21.626 -19.267  0.00  0.00    +0.226 C 
ATOM     32  H   UNL     1      32.732 -20.213 -20.414  0.00  0.00    +0.155 HD
ENDBRANCH  20  26
ENDBRANCH  19  20
ENDBRANCH  18  19
ENDBRANCH  17  18
ENDBRANCH   1  17
TORSDOF 7
ENDMDL
MODEL 6
REMARK VINA RESULT:     -11.0      4.778     12.022
REMARK  Name = 60795
REMARK  7 active torsions:
REMARK  status: ('A' for Active; 'I' for Inactive)
REMARK    1  A    between atoms: C_1  and  N_2
REMARK    2  A    between atoms: C_1  and  C_17
REMARK    3  A    between atoms: N_3  and  C_11
REMARK    4  A    between atoms: C_17  and  C_18
REMARK    5  A    between atoms: C_18  and  C_19
REMARK    6  A    between atoms: C_19  and  O_20
REMARK    7  A    between atoms: O_20  and  C_26
REMARK                            x       y       z     vdW  Elec       q    Type
REMARK                         _______ _______ _______ _____ _____    ______ ____
ROOT
ATOM      1  C   UNL     1      33.037 -13.785 -23.150  0.00  0.00    -0.077 C 
ENDROOT
BRANCH   1   2
ATOM      2  N   UNL     1      33.472 -12.399 -22.989  0.00  0.00    +0.389 N 
ATOM      3  N   UNL     1      33.395  -9.575 -23.415  0.00  0.00    -0.311 N 
ATOM      4  C   UNL     1      33.873 -11.832 -24.282  0.00  0.00    -0.055 C 
ATOM      5  C   UNL     1      32.401 -11.588 -22.398  0.00  0.00    -0.055 C 
ATOM      6  C   UNL     1      34.386 -10.400 -24.119  0.00  0.00    +0.068 C 
ATOM      7  C   UNL     1      32.863 -10.145 -22.173  0.00  0.00    +0.068 C 
ATOM      8  H   UNL     1      34.276 -12.389 -22.362  0.00  0.00    -0.080 HD
BRANCH   3  11
ATOM      9 CL   UNL     1      30.770  -8.103 -23.376  0.00  0.00    -0.080 Cl
ATOM     10 CL   UNL     1      31.064  -4.926 -23.730  0.00  0.00    -0.081 Cl
ATOM     11  C   UNL     1      33.469  -8.186 -23.564  0.00  0.00    +0.059 C 
ATOM     12  C   UNL     1      32.326  -7.358 -23.568  0.00  0.00    +0.081 C 
ATOM     13  C   UNL     1      34.728  -7.570 -23.719  0.00  0.00    +0.015 C 
ATOM     14  C   UNL     1      32.439  -5.975 -23.720  0.00  0.00    +0.069 C 
ATOM     15  C   UNL     1      34.841  -6.188 -23.870  0.00  0.00    +0.002 C 
ATOM     16  C   UNL     1      33.696  -5.390 -23.871  0.00  0.00    +0.012 C 
ENDBRANCH   3  11
ENDBRANCH   1   2
BRANCH   1  17
ATOM     17  C   UNL     1      34.237 -14.728 -23.099  0.00  0.00    -0.019 C 
BRANCH  17  18
ATOM     18  C   UNL     1      34.202 -15.732 -24.251  0.00  0.00    +0.045 C 
BRANCH  18  19
ATOM     19  C   UNL     1      34.297 -17.167 -23.750  0.00  0.00    +0.205 C 
BRANCH  19  20
ATOM     20  O   UNL     1      35.611 -17.422 -23.260  0.00  0.00    -0.475 OA
BRANCH  20  26
ATOM     21  O   UNL     1      32.594 -22.062 -18.807  0.00  0.00    -0.275 OA
ATOM     22  N   UNL     1      33.575 -20.527 -20.205  0.00  0.00    -0.284 N 
ATOM     23  C   UNL     1      35.982 -20.179 -20.165  0.00  0.00    -0.008 C 
ATOM     24  C   UNL     1      36.077 -21.096 -18.980  0.00  0.00    +0.037 C 
ATOM     25  C   UNL     1      34.724 -19.894 -20.713  0.00  0.00    +0.049 C 
ATOM     26  C   UNL     1      35.730 -18.325 -22.247  0.00  0.00    +0.140 C 
ATOM     27  C   UNL     1      34.981 -22.151 -19.021  0.00  0.00    +0.090 C 
ATOM     28  C   UNL     1      34.595 -18.962 -21.746  0.00  0.00    +0.051 C 
ATOM     29  C   UNL     1      37.111 -19.524 -20.666  0.00  0.00    +0.000 C 
ATOM     30  C   UNL     1      36.986 -18.607 -21.711  0.00  0.00    +0.037 C 
ATOM     31  C   UNL     1      33.609 -21.567 -19.297  0.00  0.00    +0.226 C 
ATOM     32  H   UNL     1      32.696 -20.210 -20.516  0.00  0.00    +0.155 HD
ENDBRANCH  20  26
ENDBRANCH  19  20
ENDBRANCH  18  19
ENDBRANCH  17  18
ENDBRANCH   1  17
TORSDOF 7
ENDMDL
MODEL 7
REMARK VINA RESULT:     -10.9      6.517     12.332
REMARK  Name = 60795
REMARK  7 active torsions:
REMARK  status: ('A' for Active; 'I' for Inactive)
REMARK    1  A    between atoms: C_1  and  N_2
REMARK    2  A    between atoms: C_1  and  C_17
REMARK    3  A    between atoms: N_3  and  C_11
REMARK    4  A    between atoms: C_17  and  C_18
REMARK    5  A    between atoms: C_18  and  C_19
REMARK    6  A    between atoms: C_19  and  O_20
REMARK    7  A    between atoms: O_20  and  C_26
REMARK                            x       y       z     vdW  Elec       q    Type
REMARK                         _______ _______ _______ _____ _____    ______ ____
ROOT
ATOM      1  C   UNL     1      36.092 -21.823 -18.781  0.00  0.00    -0.077 C 
ENDROOT
BRANCH   1   2
ATOM      2  N   UNL     1      35.967 -20.980 -19.969  0.00  0.00    +0.389 N 
ATOM      3  N   UNL     1      35.371 -18.593 -21.422  0.00  0.00    -0.311 N 
ATOM      4  C   UNL     1      34.575 -20.548 -20.151  0.00  0.00    -0.055 C 
ATOM      5  C   UNL     1      36.843 -19.807 -19.863  0.00  0.00    -0.055 C 
ATOM      6  C   UNL     1      34.421 -19.713 -21.422  0.00  0.00    +0.068 C 
ATOM      7  C   UNL     1      36.764 -18.944 -21.125  0.00  0.00    +0.068 C 
ATOM      8  H   UNL     1      36.250 -21.529 -20.780  0.00  0.00    -0.080 HD
BRANCH   3  11
ATOM      9 CL   UNL     1      34.905 -15.980 -20.003  0.00  0.00    -0.080 Cl
ATOM     10 CL   UNL     1      34.272 -13.531 -21.979  0.00  0.00    -0.081 Cl
ATOM     11  C   UNL     1      35.093 -17.493 -22.240  0.00  0.00    +0.059 C 
ATOM     12  C   UNL     1      34.850 -16.201 -21.724  0.00  0.00    +0.081 C 
ATOM     13  C   UNL     1      35.048 -17.661 -23.640  0.00  0.00    +0.015 C 
ATOM     14  C   UNL     1      34.574 -15.127 -22.571  0.00  0.00    +0.069 C 
ATOM     15  C   UNL     1      34.773 -16.587 -24.486  0.00  0.00    +0.002 C 
ATOM     16  C   UNL     1      34.536 -15.320 -23.952  0.00  0.00    +0.012 C 
ENDBRANCH   3  11
ENDBRANCH   1   2
BRANCH   1  17
ATOM     17  C   UNL     1      36.935 -21.121 -17.718  0.00  0.00    -0.019 C 
BRANCH  17  18
ATOM     18  C   UNL     1      37.515 -22.124 -16.721  0.00  0.00    +0.045 C 
BRANCH  18  19
ATOM     19  C   UNL     1      36.552 -22.398 -15.574  0.00  0.00    +0.205 C 
BRANCH  19  20
ATOM     20  O   UNL     1      35.734 -23.523 -15.888  0.00  0.00    -0.475 OA
BRANCH  20  26
ATOM     21  O   UNL     1      28.750 -22.600 -16.799  0.00  0.00    -0.275 OA
ATOM     22  N   UNL     1      31.010 -22.851 -16.477  0.00  0.00    -0.284 N 
ATOM     23  C   UNL     1      31.881 -23.558 -14.319  0.00  0.00    -0.008 C 
ATOM     24  C   UNL     1      30.495 -23.460 -13.748  0.00  0.00    +0.037 C 
ATOM     25  C   UNL     1      32.096 -23.210 -15.659  0.00  0.00    +0.049 C 
ATOM     26  C   UNL     1      34.472 -23.534 -15.377  0.00  0.00    +0.140 C 
ATOM     27  C   UNL     1      29.449 -23.750 -14.813  0.00  0.00    +0.090 C 
ATOM     28  C   UNL     1      33.391 -23.188 -16.186  0.00  0.00    +0.051 C 
ATOM     29  C   UNL     1      32.974 -23.890 -13.513  0.00  0.00    +0.000 C 
ATOM     30  C   UNL     1      34.265 -23.887 -14.044  0.00  0.00    +0.037 C 
ATOM     31  C   UNL     1      29.688 -22.985 -16.101  0.00  0.00    +0.226 C 
ATOM     32  H   UNL     1      31.204 -22.484 -17.370  0.00  0.00    +0.155 HD
ENDBRANCH  20  26
ENDBRANCH  19  20
ENDBRANCH  18  19
ENDBRANCH  17  18
ENDBRANCH   1  17
TORSDOF 7
ENDMDL
MODEL 8
REMARK VINA RESULT:     -10.9      4.652     11.777
REMARK  Name = 60795
REMARK  7 active torsions:
REMARK  status: ('A' for Active; 'I' for Inactive)
REMARK    1  A    between atoms: C_1  and  N_2
REMARK    2  A    between atoms: C_1  and  C_17
REMARK    3  A    between atoms: N_3  and  C_11
REMARK    4  A    between atoms: C_17  and  C_18
REMARK    5  A    between atoms: C_18  and  C_19
REMARK    6  A    between atoms: C_19  and  O_20
REMARK    7  A    between atoms: O_20  and  C_26
REMARK                            x       y       z     vdW  Elec       q    Type
REMARK                         _______ _______ _______ _____ _____    ______ ____
ROOT
ATOM      1  C   UNL     1      34.815 -17.354 -23.967  0.00  0.00    -0.077 C 
ENDROOT
BRANCH   1   2
ATOM      2  N   UNL     1      34.720 -15.901 -23.834  0.00  0.00    +0.389 N 
ATOM      3  N   UNL     1      33.519 -13.425 -23.067  0.00  0.00    -0.311 N 
ATOM      4  C   UNL     1      33.542 -15.394 -24.548  0.00  0.00    -0.055 C 
ATOM      5  C   UNL     1      34.651 -15.517 -22.420  0.00  0.00    -0.055 C 
ATOM      6  C   UNL     1      33.463 -13.869 -24.465  0.00  0.00    +0.068 C 
ATOM      7  C   UNL     1      34.607 -13.994 -22.264  0.00  0.00    +0.068 C 
ATOM      8  H   UNL     1      35.557 -15.489 -24.246  0.00  0.00    -0.080 HD
BRANCH   3  11
ATOM      9 CL   UNL     1      32.082 -13.176 -20.434  0.00  0.00    -0.080 Cl
ATOM     10 CL   UNL     1      30.982 -10.220 -19.837  0.00  0.00    -0.081 Cl
ATOM     11  C   UNL     1      33.022 -12.155 -22.758  0.00  0.00    +0.059 C 
ATOM     12  C   UNL     1      32.324 -11.879 -21.562  0.00  0.00    +0.081 C 
ATOM     13  C   UNL     1      33.215 -11.093 -23.667  0.00  0.00    +0.015 C 
ATOM     14  C   UNL     1      31.841 -10.598 -21.289  0.00  0.00    +0.069 C 
ATOM     15  C   UNL     1      32.732  -9.813 -23.393  0.00  0.00    +0.002 C 
ATOM     16  C   UNL     1      32.045  -9.566 -22.205  0.00  0.00    +0.012 C 
ENDBRANCH   3  11
ENDBRANCH   1   2
BRANCH   1  17
ATOM     17  C   UNL     1      35.383 -17.968 -22.689  0.00  0.00    -0.019 C 
BRANCH  17  18
ATOM     18  C   UNL     1      34.855 -19.387 -22.475  0.00  0.00    +0.045 C 
BRANCH  18  19
ATOM     19  C   UNL     1      34.611 -19.679 -21.001  0.00  0.00    +0.205 C 
BRANCH  19  20
ATOM     20  O   UNL     1      35.358 -20.828 -20.605  0.00  0.00    -0.475 OA
BRANCH  20  26
ATOM     21  O   UNL     1      30.401 -23.225 -16.118  0.00  0.00    -0.275 OA
ATOM     22  N   UNL     1      32.011 -22.406 -17.537  0.00  0.00    -0.284 N 
ATOM     23  C   UNL     1      34.368 -22.575 -16.961  0.00  0.00    -0.008 C 
ATOM     24  C   UNL     1      33.982 -23.105 -15.611  0.00  0.00    +0.037 C 
ATOM     25  C   UNL     1      33.363 -22.205 -17.866  0.00  0.00    +0.049 C 
ATOM     26  C   UNL     1      35.032 -21.399 -19.413  0.00  0.00    +0.140 C 
ATOM     27  C   UNL     1      32.670 -23.871 -15.684  0.00  0.00    +0.090 C 
ATOM     28  C   UNL     1      33.693 -21.609 -19.086  0.00  0.00    +0.051 C 
ATOM     29  C   UNL     1      35.707 -22.347 -17.294  0.00  0.00    +0.000 C 
ATOM     30  C   UNL     1      36.037 -21.769 -18.521  0.00  0.00    +0.037 C 
ATOM     31  C   UNL     1      31.587 -23.119 -16.432  0.00  0.00    +0.226 C 
ATOM     32  H   UNL     1      31.327 -22.017 -18.129  0.00  0.00    +0.155 HD
ENDBRANCH  20  26
ENDBRANCH  19  20
ENDBRANCH  18  19
ENDBRANCH  17  18
ENDBRANCH   1  17
TORSDOF 7
ENDMDL
MODEL 9
REMARK VINA RESULT:     -10.5      4.682     12.218
REMARK  Name = 60795
REMARK  7 active torsions:
REMARK  status: ('A' for Active; 'I' for Inactive)
REMARK    1  A    between atoms: C_1  and  N_2
REMARK    2  A    between atoms: C_1  and  C_17
REMARK    3  A    between atoms: N_3  and  C_11
REMARK    4  A    between atoms: C_17  and  C_18
REMARK    5  A    between atoms: C_18  and  C_19
REMARK    6  A    between atoms: C_19  and  O_20
REMARK    7  A    between atoms: O_20  and  C_26
REMARK                            x       y       z     vdW  Elec       q    Type
REMARK                         _______ _______ _______ _____ _____    ______ ____
ROOT
ATOM      1  C   UNL     1      31.858 -10.711 -20.031  0.00  0.00    -0.077 C 
ENDROOT
BRANCH   1   2
ATOM      2  N   UNL     1      31.595  -9.452 -20.727  0.00  0.00    +0.389 N 
ATOM      3  N   UNL     1      32.234  -7.174 -22.328  0.00  0.00    -0.311 N 
ATOM      4  C   UNL     1      32.440  -8.379 -20.188  0.00  0.00    -0.055 C 
ATOM      5  C   UNL     1      31.833  -9.600 -22.168  0.00  0.00    -0.055 C 
ATOM      6  C   UNL     1      32.133  -7.044 -20.869  0.00  0.00    +0.068 C 
ATOM      7  C   UNL     1      31.507  -8.304 -22.916  0.00  0.00    +0.068 C 
ATOM      8  H   UNL     1      30.616  -9.206 -20.579  0.00  0.00    -0.080 HD
BRANCH   3  11
ATOM      9 CL   UNL     1      34.626  -7.180 -24.155  0.00  0.00    -0.080 Cl
ATOM     10 CL   UNL     1      34.983  -4.462 -25.826  0.00  0.00    -0.081 Cl
ATOM     11  C   UNL     1      32.433  -6.012 -23.080  0.00  0.00    +0.059 C 
ATOM     12  C   UNL     1      33.510  -5.861 -23.980  0.00  0.00    +0.081 C 
ATOM     13  C   UNL     1      31.532  -4.935 -22.948  0.00  0.00    +0.015 C 
ATOM     14  C   UNL     1      33.678  -4.685 -24.713  0.00  0.00    +0.069 C 
ATOM     15  C   UNL     1      31.699  -3.760 -23.682  0.00  0.00    +0.002 C 
ATOM     16  C   UNL     1      32.772  -3.636 -24.564  0.00  0.00    +0.012 C 
ENDBRANCH   3  11
ENDBRANCH   1   2
BRANCH   1  17
ATOM     17  C   UNL     1      31.363 -11.891 -20.864  0.00  0.00    -0.019 C 
BRANCH  17  18
ATOM     18  C   UNL     1      32.456 -12.946 -21.033  0.00  0.00    +0.045 C 
BRANCH  18  19
ATOM     19  C   UNL     1      32.849 -13.120 -22.494  0.00  0.00    +0.205 C 
BRANCH  19  20
ATOM     20  O   UNL     1      34.208 -13.542 -22.582  0.00  0.00    -0.475 OA
BRANCH  20  26
ATOM     21  O   UNL     1      36.185 -19.793 -19.849  0.00  0.00    -0.275 OA
ATOM     22  N   UNL     1      35.594 -17.769 -20.758  0.00  0.00    -0.284 N 
ATOM     23  C   UNL     1      34.895 -17.615 -23.083  0.00  0.00    -0.008 C 
ATOM     24  C   UNL     1      35.251 -19.062 -23.267  0.00  0.00    +0.037 C 
ATOM     25  C   UNL     1      35.118 -17.007 -21.840  0.00  0.00    +0.049 C 
ATOM     26  C   UNL     1      34.434 -14.875 -22.744  0.00  0.00    +0.140 C 
ATOM     27  C   UNL     1      35.067 -19.835 -21.970  0.00  0.00    +0.090 C 
ATOM     28  C   UNL     1      34.898 -15.637 -21.672  0.00  0.00    +0.051 C 
ATOM     29  C   UNL     1      34.443 -16.838 -24.155  0.00  0.00    +0.000 C 
ATOM     30  C   UNL     1      34.204 -15.474 -23.982  0.00  0.00    +0.037 C 
ATOM     31  C   UNL     1      35.700 -19.146 -20.776  0.00  0.00    +0.226 C 
ATOM     32  H   UNL     1      35.868 -17.293 -19.941  0.00  0.00    +0.155 HD
ENDBRANCH  20  26
ENDBRANCH  19  20
ENDBRANCH  18  19
ENDBRANCH  17  18
ENDBRANCH   1  17
TORSDOF 7
ENDMDL
