MODEL 1
REMARK VINA RESULT:     -12.1      0.000      0.000
REMARK  Name = 24864821
REMARK  5 active torsions:
REMARK  status: ('A' for Active; 'I' for Inactive)
REMARK    1  A    between atoms: C_5  and  C_16
REMARK    2  A    between atoms: C_7  and  C_10
REMARK    3  A    between atoms: C_16  and  O_17
REMARK    4  A    between atoms: O_17  and  C_20
REMARK    5  A    between atoms: C_25  and  O_28
REMARK                            x       y       z     vdW  Elec       q    Type
REMARK                         _______ _______ _______ _____ _____    ______ ____
ROOT
ATOM      1  N   UNL     1      36.392 -23.130 -15.318  0.00  0.00    -0.191 N 
ATOM      2  N   UNL     1      35.063 -22.885 -15.429  0.00  0.00    -0.163 NA
ATOM      3  N   UNL     1      38.561 -22.987 -15.601  0.00  0.00    -0.128 NA
ATOM      4  N   UNL     1      38.310 -24.001 -14.699  0.00  0.00    -0.127 NA
ATOM      5  C   UNL     1      37.404 -22.478 -15.960  0.00  0.00    +0.208 A 
ATOM      6  C   UNL     1      37.007 -24.079 -14.535  0.00  0.00    +0.186 A 
ATOM      7  C   UNL     1      34.321 -23.660 -14.688  0.00  0.00    +0.101 C 
ATOM      8  C   UNL     1      36.179 -24.914 -13.759  0.00  0.00    +0.042 C 
ATOM      9  C   UNL     1      34.851 -24.746 -13.803  0.00  0.00    +0.024 C 
ENDROOT
BRANCH   7  10
ATOM     10  C   UNL     1      32.845 -23.487 -14.719  0.00  0.00    +0.019 C 
ATOM     11  C   UNL     1      32.194 -23.264 -15.932  0.00  0.00    +0.002 C 
ATOM     12  C   UNL     1      32.111 -23.549 -13.535  0.00  0.00    +0.002 C 
ATOM     13  C   UNL     1      30.809 -23.104 -15.961  0.00  0.00    +0.000 C 
ATOM     14  C   UNL     1      30.726 -23.389 -13.563  0.00  0.00    +0.000 C 
ATOM     15  C   UNL     1      30.074 -23.166 -14.776  0.00  0.00    +0.000 C 
ENDBRANCH   7  10
BRANCH   5  16
ATOM     16  C   UNL     1      37.172 -21.351 -16.924  0.00  0.00    +0.272 C 
BRANCH  16  17
ATOM     17  O   UNL     1      36.937 -21.891 -18.223  0.00  0.00    -0.467 OA
BRANCH  17  20
ATOM     18  N   UNL     1      33.449 -20.713 -20.130  0.00  0.00    -0.248 NA
ATOM     19  C   UNL     1      35.829 -20.481 -19.838  0.00  0.00    +0.030 C 
ATOM     20  C   UNL     1      35.803 -21.487 -18.863  0.00  0.00    +0.138 C 
ATOM     21  C   UNL     1      34.613 -20.120 -20.454  0.00  0.00    +0.066 C 
ATOM     22  C   UNL     1      37.026 -19.841 -20.202  0.00  0.00    +0.059 C 
ATOM     23  C   UNL     1      34.641 -19.120 -21.423  0.00  0.00    +0.109 C 
ATOM     24  C   UNL     1      34.604 -22.100 -18.526  0.00  0.00    +0.057 C 
ATOM     25  C   UNL     1      35.830 -18.484 -21.785  0.00  0.00    +0.118 C 
ATOM     26  C   UNL     1      37.025 -18.845 -21.173  0.00  0.00    +0.011 C 
ATOM     27  C   UNL     1      33.465 -21.680 -19.184  0.00  0.00    +0.102 C 
BRANCH  25  28
ATOM     28  O   UNL     1      35.818 -17.512 -22.738  0.00  0.00    -0.476 OA
ATOM     29  C   UNL     1      34.740 -17.533 -23.673  0.00  0.00    +0.252 C 
ENDBRANCH  25  28
ENDBRANCH  17  20
ENDBRANCH  16  17
ENDBRANCH   5  16
TORSDOF 5
ENDMDL
MODEL 2
REMARK VINA RESULT:     -11.2      5.819      9.967
REMARK  Name = 24864821
REMARK  5 active torsions:
REMARK  status: ('A' for Active; 'I' for Inactive)
REMARK    1  A    between atoms: C_5  and  C_16
REMARK    2  A    between atoms: C_7  and  C_10
REMARK    3  A    between atoms: C_16  and  O_17
REMARK    4  A    between atoms: O_17  and  C_20
REMARK    5  A    between atoms: C_25  and  O_28
REMARK                            x       y       z     vdW  Elec       q    Type
REMARK                         _______ _______ _______ _____ _____    ______ ____
ROOT
ATOM      1  N   UNL     1      34.538 -17.055 -23.208  0.00  0.00    -0.191 N 
ATOM      2  N   UNL     1      34.951 -17.659 -22.066  0.00  0.00    -0.163 NA
ATOM      3  N   UNL     1      33.974 -15.504 -24.650  0.00  0.00    -0.128 NA
ATOM      4  N   UNL     1      33.846 -16.732 -25.266  0.00  0.00    -0.127 NA
ATOM      5  C   UNL     1      34.388 -15.716 -23.421  0.00  0.00    +0.208 A 
ATOM      6  C   UNL     1      34.186 -17.656 -24.394  0.00  0.00    +0.186 A 
ATOM      7  C   UNL     1      35.010 -18.958 -22.150  0.00  0.00    +0.101 C 
ATOM      8  C   UNL     1      34.243 -19.062 -24.449  0.00  0.00    +0.042 C 
ATOM      9  C   UNL     1      34.641 -19.747 -23.369  0.00  0.00    +0.024 C 
ENDROOT
BRANCH   7  10
ATOM     10  C   UNL     1      35.454 -19.736 -20.963  0.00  0.00    +0.019 C 
ATOM     11  C   UNL     1      34.558 -20.580 -20.307  0.00  0.00    +0.002 C 
ATOM     12  C   UNL     1      36.767 -19.623 -20.507  0.00  0.00    +0.002 C 
ATOM     13  C   UNL     1      34.975 -21.310 -19.196  0.00  0.00    +0.000 C 
ATOM     14  C   UNL     1      37.184 -20.354 -19.395  0.00  0.00    +0.000 C 
ATOM     15  C   UNL     1      36.289 -21.198 -18.738  0.00  0.00    +0.000 C 
ENDBRANCH   7  10
BRANCH   5  16
ATOM     16  C   UNL     1      34.671 -14.681 -22.371  0.00  0.00    +0.272 C 
BRANCH  16  17
ATOM     17  O   UNL     1      34.311 -13.396 -22.876  0.00  0.00    -0.467 OA
BRANCH  17  20
ATOM     18  N   UNL     1      31.372 -11.376 -20.762  0.00  0.00    -0.248 NA
ATOM     19  C   UNL     1      32.944 -11.429 -22.587  0.00  0.00    +0.030 C 
ATOM     20  C   UNL     1      33.347 -12.713 -22.196  0.00  0.00    +0.138 C 
ATOM     21  C   UNL     1      31.940 -10.788 -21.831  0.00  0.00    +0.066 C 
ATOM     22  C   UNL     1      33.515 -10.785 -23.698  0.00  0.00    +0.059 C 
ATOM     23  C   UNL     1      31.541  -9.513 -22.220  0.00  0.00    +0.109 C 
ATOM     24  C   UNL     1      32.763 -13.322 -21.094  0.00  0.00    +0.057 C 
ATOM     25  C   UNL     1      32.108  -8.872 -23.324  0.00  0.00    +0.118 C 
ATOM     26  C   UNL     1      33.097  -9.509 -24.064  0.00  0.00    +0.011 C 
ATOM     27  C   UNL     1      31.788 -12.617 -20.417  0.00  0.00    +0.102 C 
BRANCH  25  28
ATOM     28  O   UNL     1      31.691  -7.625 -23.675  0.00  0.00    -0.476 OA
ATOM     29  C   UNL     1      31.265  -6.762 -22.620  0.00  0.00    +0.252 C 
ENDBRANCH  25  28
ENDBRANCH  17  20
ENDBRANCH  16  17
ENDBRANCH   5  16
TORSDOF 5
ENDMDL
MODEL 3
REMARK VINA RESULT:     -11.1      8.632     14.118
REMARK  Name = 24864821
REMARK  5 active torsions:
REMARK  status: ('A' for Active; 'I' for Inactive)
REMARK    1  A    between atoms: C_5  and  C_16
REMARK    2  A    between atoms: C_7  and  C_10
REMARK    3  A    between atoms: C_16  and  O_17
REMARK    4  A    between atoms: O_17  and  C_20
REMARK    5  A    between atoms: C_25  and  O_28
REMARK                            x       y       z     vdW  Elec       q    Type
REMARK                         _______ _______ _______ _____ _____    ______ ____
ROOT
ATOM      1  N   UNL     1      32.240  -9.299 -21.075  0.00  0.00    -0.191 N 
ATOM      2  N   UNL     1      32.637  -8.569 -22.147  0.00  0.00    -0.163 NA
ATOM      3  N   UNL     1      31.598 -10.990 -19.837  0.00  0.00    -0.128 NA
ATOM      4  N   UNL     1      31.675  -9.872 -19.033  0.00  0.00    -0.127 NA
ATOM      5  C   UNL     1      31.938 -10.629 -21.054  0.00  0.00    +0.208 A 
ATOM      6  C   UNL     1      32.062  -8.863 -19.783  0.00  0.00    +0.186 A 
ATOM      7  C   UNL     1      32.868  -7.315 -21.873  0.00  0.00    +0.101 C 
ATOM      8  C   UNL     1      32.301  -7.500 -19.521  0.00  0.00    +0.042 C 
ATOM      9  C   UNL     1      32.698  -6.699 -20.518  0.00  0.00    +0.024 C 
ENDROOT
BRANCH   7  10
ATOM     10  C   UNL     1      33.313  -6.411 -22.965  0.00  0.00    +0.019 C 
ATOM     11  C   UNL     1      34.515  -6.657 -23.628  0.00  0.00    +0.002 C 
ATOM     12  C   UNL     1      32.528  -5.316 -23.327  0.00  0.00    +0.002 C 
ATOM     13  C   UNL     1      34.931  -5.809 -24.654  0.00  0.00    +0.000 C 
ATOM     14  C   UNL     1      32.945  -4.468 -24.353  0.00  0.00    +0.000 C 
ATOM     15  C   UNL     1      34.147  -4.714 -25.017  0.00  0.00    +0.000 C 
ENDBRANCH   7  10
BRANCH   5  16
ATOM     16  C   UNL     1      32.004 -11.505 -22.271  0.00  0.00    +0.272 C 
BRANCH  16  17
ATOM     17  O   UNL     1      33.251 -12.197 -22.279  0.00  0.00    -0.467 OA
BRANCH  17  20
ATOM     18  N   UNL     1      33.823 -14.904 -25.367  0.00  0.00    -0.248 NA
ATOM     19  C   UNL     1      34.003 -14.365 -23.026  0.00  0.00    +0.030 C 
ATOM     20  C   UNL     1      33.448 -13.103 -23.279  0.00  0.00    +0.138 C 
ATOM     21  C   UNL     1      34.175 -15.246 -24.114  0.00  0.00    +0.066 C 
ATOM     22  C   UNL     1      34.382 -14.756 -21.730  0.00  0.00    +0.059 C 
ATOM     23  C   UNL     1      34.726 -16.500 -23.861  0.00  0.00    +0.109 C 
ATOM     24  C   UNL     1      33.085 -12.747 -24.569  0.00  0.00    +0.057 C 
ATOM     25  C   UNL     1      35.102 -16.888 -22.573  0.00  0.00    +0.118 C 
ATOM     26  C   UNL     1      34.930 -16.015 -21.506  0.00  0.00    +0.011 C 
ATOM     27  C   UNL     1      33.291 -13.677 -25.570  0.00  0.00    +0.102 C 
BRANCH  25  28
ATOM     28  O   UNL     1      35.636 -18.123 -22.365  0.00  0.00    -0.476 OA
ATOM     29  C   UNL     1      34.926 -19.237 -22.907  0.00  0.00    +0.252 C 
ENDBRANCH  25  28
ENDBRANCH  17  20
ENDBRANCH  16  17
ENDBRANCH   5  16
TORSDOF 5
ENDMDL
MODEL 4
REMARK VINA RESULT:     -11.0      2.384      8.228
REMARK  Name = 24864821
REMARK  5 active torsions:
REMARK  status: ('A' for Active; 'I' for Inactive)
REMARK    1  A    between atoms: C_5  and  C_16
REMARK    2  A    between atoms: C_7  and  C_10
REMARK    3  A    between atoms: C_16  and  O_17
REMARK    4  A    between atoms: O_17  and  C_20
REMARK    5  A    between atoms: C_25  and  O_28
REMARK                            x       y       z     vdW  Elec       q    Type
REMARK                         _______ _______ _______ _____ _____    ______ ____
ROOT
ATOM      1  N   UNL     1      35.464 -20.886 -19.441  0.00  0.00    -0.191 N 
ATOM      2  N   UNL     1      34.857 -20.305 -20.507  0.00  0.00    -0.163 NA
ATOM      3  N   UNL     1      35.818 -22.159 -17.693  0.00  0.00    -0.128 NA
ATOM      4  N   UNL     1      36.957 -21.413 -17.921  0.00  0.00    -0.127 NA
ATOM      5  C   UNL     1      34.937 -21.830 -18.610  0.00  0.00    +0.208 A 
ATOM      6  C   UNL     1      36.735 -20.653 -18.971  0.00  0.00    +0.186 A 
ATOM      7  C   UNL     1      35.605 -19.437 -21.129  0.00  0.00    +0.101 C 
ATOM      8  C   UNL     1      37.513 -19.697 -19.653  0.00  0.00    +0.042 C 
ATOM      9  C   UNL     1      36.999 -19.071 -20.720  0.00  0.00    +0.024 C 
ENDROOT
BRANCH   7  10
ATOM     10  C   UNL     1      35.054 -18.736 -22.318  0.00  0.00    +0.019 C 
ATOM     11  C   UNL     1      34.305 -19.441 -23.259  0.00  0.00    +0.002 C 
ATOM     12  C   UNL     1      35.285 -17.371 -22.491  0.00  0.00    +0.002 C 
ATOM     13  C   UNL     1      33.786 -18.781 -24.373  0.00  0.00    +0.000 C 
ATOM     14  C   UNL     1      34.767 -16.711 -23.605  0.00  0.00    +0.000 C 
ATOM     15  C   UNL     1      34.018 -17.416 -24.547  0.00  0.00    +0.000 C 
ENDBRANCH   7  10
BRANCH   5  16
ATOM     16  C   UNL     1      33.549 -22.380 -18.768  0.00  0.00    +0.272 C 
BRANCH  16  17
ATOM     17  O   UNL     1      33.394 -23.506 -17.907  0.00  0.00    -0.467 OA
BRANCH  17  20
ATOM     18  N   UNL     1      31.068 -22.929 -14.524  0.00  0.00    -0.248 NA
ATOM     19  C   UNL     1      33.153 -23.628 -15.509  0.00  0.00    +0.030 C 
ATOM     20  C   UNL     1      32.647 -23.325 -16.780  0.00  0.00    +0.138 C 
ATOM     21  C   UNL     1      32.318 -23.412 -14.393  0.00  0.00    +0.066 C 
ATOM     22  C   UNL     1      34.452 -24.134 -15.335  0.00  0.00    +0.059 C 
ATOM     23  C   UNL     1      32.820 -23.714 -13.130  0.00  0.00    +0.109 C 
ATOM     24  C   UNL     1      31.360 -22.826 -16.919  0.00  0.00    +0.057 C 
ATOM     25  C   UNL     1      34.112 -24.217 -12.957  0.00  0.00    +0.118 C 
ATOM     26  C   UNL     1      34.929 -24.427 -14.061  0.00  0.00    +0.011 C 
ATOM     27  C   UNL     1      30.618 -22.648 -15.768  0.00  0.00    +0.102 C 
BRANCH  25  28
ATOM     28  O   UNL     1      34.569 -24.499 -11.707  0.00  0.00    -0.476 OA
ATOM     29  C   UNL     1      35.925 -24.932 -11.594  0.00  0.00    +0.252 C 
ENDBRANCH  25  28
ENDBRANCH  17  20
ENDBRANCH  16  17
ENDBRANCH   5  16
TORSDOF 5
ENDMDL
MODEL 5
REMARK VINA RESULT:     -10.9      3.534      7.945
REMARK  Name = 24864821
REMARK  5 active torsions:
REMARK  status: ('A' for Active; 'I' for Inactive)
REMARK    1  A    between atoms: C_5  and  C_16
REMARK    2  A    between atoms: C_7  and  C_10
REMARK    3  A    between atoms: C_16  and  O_17
REMARK    4  A    between atoms: O_17  and  C_20
REMARK    5  A    between atoms: C_25  and  O_28
REMARK                            x       y       z     vdW  Elec       q    Type
REMARK                         _______ _______ _______ _____ _____    ______ ____
ROOT
ATOM      1  N   UNL     1      32.744 -23.800 -14.407  0.00  0.00    -0.191 N 
ATOM      2  N   UNL     1      33.786 -23.335 -15.141  0.00  0.00    -0.163 NA
ATOM      3  N   UNL     1      31.578 -24.613 -12.739  0.00  0.00    -0.128 NA
ATOM      4  N   UNL     1      30.724 -24.409 -13.803  0.00  0.00    -0.127 NA
ATOM      5  C   UNL     1      32.781 -24.245 -13.118  0.00  0.00    +0.208 A 
ATOM      6  C   UNL     1      31.431 -23.921 -14.799  0.00  0.00    +0.186 A 
ATOM      7  C   UNL     1      33.457 -22.968 -16.348  0.00  0.00    +0.101 C 
ATOM      8  C   UNL     1      31.110 -23.533 -16.114  0.00  0.00    +0.042 C 
ATOM      9  C   UNL     1      32.073 -23.059 -16.914  0.00  0.00    +0.024 C 
ENDROOT
BRANCH   7  10
ATOM     10  C   UNL     1      34.512 -22.435 -17.250  0.00  0.00    +0.019 C 
ATOM     11  C   UNL     1      35.826 -22.320 -16.796  0.00  0.00    +0.002 C 
ATOM     12  C   UNL     1      34.188 -22.051 -18.551  0.00  0.00    +0.002 C 
ATOM     13  C   UNL     1      36.815 -21.822 -17.643  0.00  0.00    +0.000 C 
ATOM     14  C   UNL     1      35.177 -21.553 -19.398  0.00  0.00    +0.000 C 
ATOM     15  C   UNL     1      36.491 -21.438 -18.945  0.00  0.00    +0.000 C 
ENDBRANCH   7  10
BRANCH   5  16
ATOM     16  C   UNL     1      34.039 -24.283 -12.299  0.00  0.00    +0.272 C 
BRANCH  16  17
ATOM     17  O   UNL     1      35.054 -24.958 -13.039  0.00  0.00    -0.467 OA
BRANCH  17  20
ATOM     18  N   UNL     1      38.961 -24.109 -11.941  0.00  0.00    -0.248 NA
ATOM     19  C   UNL     1      37.421 -25.315 -13.347  0.00  0.00    +0.030 C 
ATOM     20  C   UNL     1      36.347 -24.694 -12.695  0.00  0.00    +0.138 C 
ATOM     21  C   UNL     1      38.729 -24.989 -12.932  0.00  0.00    +0.066 C 
ATOM     22  C   UNL     1      37.216 -26.239 -14.387  0.00  0.00    +0.059 C 
ATOM     23  C   UNL     1      39.795 -25.607 -13.581  0.00  0.00    +0.109 C 
ATOM     24  C   UNL     1      36.583 -23.787 -11.672  0.00  0.00    +0.057 C 
ATOM     25  C   UNL     1      39.592 -26.525 -14.614  0.00  0.00    +0.118 C 
ATOM     26  C   UNL     1      38.300 -26.842 -15.017  0.00  0.00    +0.011 C 
ATOM     27  C   UNL     1      37.898 -23.531 -11.336  0.00  0.00    +0.102 C 
BRANCH  25  28
ATOM     28  O   UNL     1      40.659 -27.107 -15.226  0.00  0.00    -0.476 OA
ATOM     29  C   UNL     1      40.408 -28.295 -15.977  0.00  0.00    +0.252 C 
ENDBRANCH  25  28
ENDBRANCH  17  20
ENDBRANCH  16  17
ENDBRANCH   5  16
TORSDOF 5
ENDMDL
MODEL 6
REMARK VINA RESULT:     -10.8      1.855      4.284
REMARK  Name = 24864821
REMARK  5 active torsions:
REMARK  status: ('A' for Active; 'I' for Inactive)
REMARK    1  A    between atoms: C_5  and  C_16
REMARK    2  A    between atoms: C_7  and  C_10
REMARK    3  A    between atoms: C_16  and  O_17
REMARK    4  A    between atoms: O_17  and  C_20
REMARK    5  A    between atoms: C_25  and  O_28
REMARK                            x       y       z     vdW  Elec       q    Type
REMARK                         _______ _______ _______ _____ _____    ______ ____
ROOT
ATOM      1  N   UNL     1      33.425 -23.592 -16.027  0.00  0.00    -0.191 N 
ATOM      2  N   UNL     1      34.656 -24.081 -15.738  0.00  0.00    -0.163 NA
ATOM      3  N   UNL     1      31.711 -22.809 -17.147  0.00  0.00    -0.128 NA
ATOM      4  N   UNL     1      31.358 -22.882 -15.815  0.00  0.00    -0.127 NA
ATOM      5  C   UNL     1      32.949 -23.236 -17.255  0.00  0.00    +0.208 A 
ATOM      6  C   UNL     1      32.391 -23.353 -15.151  0.00  0.00    +0.186 A 
ATOM      7  C   UNL     1      34.835 -24.344 -14.474  0.00  0.00    +0.101 C 
ATOM      8  C   UNL     1      32.620 -23.630 -13.789  0.00  0.00    +0.042 C 
ATOM      9  C   UNL     1      33.807 -24.117 -13.408  0.00  0.00    +0.024 C 
ENDROOT
BRANCH   7  10
ATOM     10  C   UNL     1      36.145 -24.890 -14.031  0.00  0.00    +0.019 C 
ATOM     11  C   UNL     1      36.666 -26.032 -14.639  0.00  0.00    +0.002 C 
ATOM     12  C   UNL     1      36.853 -24.259 -13.009  0.00  0.00    +0.002 C 
ATOM     13  C   UNL     1      37.895 -26.542 -14.224  0.00  0.00    +0.000 C 
ATOM     14  C   UNL     1      38.083 -24.769 -12.594  0.00  0.00    +0.000 C 
ATOM     15  C   UNL     1      38.605 -25.912 -13.201  0.00  0.00    +0.000 C 
ENDBRANCH   7  10
BRANCH   5  16
ATOM     16  C   UNL     1      33.763 -23.341 -18.512  0.00  0.00    +0.272 C 
BRANCH  16  17
ATOM     17  O   UNL     1      33.695 -22.101 -19.214  0.00  0.00    -0.467 OA
BRANCH  17  20
ATOM     18  N   UNL     1      37.235 -19.958 -19.461  0.00  0.00    -0.248 NA
ATOM     19  C   UNL     1      35.023 -20.406 -20.303  0.00  0.00    +0.030 C 
ATOM     20  C   UNL     1      34.850 -21.384 -19.314  0.00  0.00    +0.138 C 
ATOM     21  C   UNL     1      36.248 -19.707 -20.341  0.00  0.00    +0.066 C 
ATOM     22  C   UNL     1      34.013 -20.118 -21.238  0.00  0.00    +0.059 C 
ATOM     23  C   UNL     1      36.418 -18.736 -21.323  0.00  0.00    +0.109 C 
ATOM     24  C   UNL     1      35.867 -21.645 -18.406  0.00  0.00    +0.057 C 
ATOM     25  C   UNL     1      35.415 -18.450 -22.252  0.00  0.00    +0.118 C 
ATOM     26  C   UNL     1      34.211 -19.142 -22.209  0.00  0.00    +0.011 C 
ATOM     27  C   UNL     1      37.030 -20.909 -18.522  0.00  0.00    +0.102 C 
BRANCH  25  28
ATOM     28  O   UNL     1      35.617 -17.492 -23.198  0.00  0.00    -0.476 OA
ATOM     29  C   UNL     1      34.579 -17.298 -24.158  0.00  0.00    +0.252 C 
ENDBRANCH  25  28
ENDBRANCH  17  20
ENDBRANCH  16  17
ENDBRANCH   5  16
TORSDOF 5
ENDMDL
MODEL 7
REMARK VINA RESULT:     -10.8      4.621     10.210
REMARK  Name = 24864821
REMARK  5 active torsions:
REMARK  status: ('A' for Active; 'I' for Inactive)
REMARK    1  A    between atoms: C_5  and  C_16
REMARK    2  A    between atoms: C_7  and  C_10
REMARK    3  A    between atoms: C_16  and  O_17
REMARK    4  A    between atoms: O_17  and  C_20
REMARK    5  A    between atoms: C_25  and  O_28
REMARK                            x       y       z     vdW  Elec       q    Type
REMARK                         _______ _______ _______ _____ _____    ______ ____
ROOT
ATOM      1  N   UNL     1      34.064 -15.177 -23.448  0.00  0.00    -0.191 N 
ATOM      2  N   UNL     1      33.674 -14.373 -22.427  0.00  0.00    -0.163 NA
ATOM      3  N   UNL     1      34.951 -16.850 -24.550  0.00  0.00    -0.128 NA
ATOM      4  N   UNL     1      34.373 -15.992 -25.462  0.00  0.00    -0.127 NA
ATOM      5  C   UNL     1      34.758 -16.348 -23.352  0.00  0.00    +0.208 A 
ATOM      6  C   UNL     1      33.843 -14.992 -24.792  0.00  0.00    +0.186 A 
ATOM      7  C   UNL     1      33.014 -13.317 -22.812  0.00  0.00    +0.101 C 
ATOM      8  C   UNL     1      33.142 -13.833 -25.179  0.00  0.00    +0.042 C 
ATOM      9  C   UNL     1      32.715 -12.978 -24.240  0.00  0.00    +0.024 C 
ENDROOT
BRANCH   7  10
ATOM     10  C   UNL     1      32.528 -12.359 -21.785  0.00  0.00    +0.019 C 
ATOM     11  C   UNL     1      32.177 -11.061 -22.152  0.00  0.00    +0.002 C 
ATOM     12  C   UNL     1      32.421 -12.760 -20.453  0.00  0.00    +0.002 C 
ATOM     13  C   UNL     1      31.720 -10.163 -21.189  0.00  0.00    +0.000 C 
ATOM     14  C   UNL     1      31.964 -11.862 -19.489  0.00  0.00    +0.000 C 
ATOM     15  C   UNL     1      31.613 -10.562 -19.856  0.00  0.00    +0.000 C 
ENDBRANCH   7  10
BRANCH   5  16
ATOM     16  C   UNL     1      35.207 -16.931 -22.044  0.00  0.00    +0.272 C 
BRANCH  16  17
ATOM     17  O   UNL     1      34.682 -18.251 -21.919  0.00  0.00    -0.467 OA
BRANCH  17  20
ATOM     18  N   UNL     1      36.688 -20.770 -19.307  0.00  0.00    -0.248 NA
ATOM     19  C   UNL     1      34.621 -20.055 -20.316  0.00  0.00    +0.030 C 
ATOM     20  C   UNL     1      35.321 -19.090 -21.054  0.00  0.00    +0.138 C 
ATOM     21  C   UNL     1      35.354 -20.885 -19.443  0.00  0.00    +0.066 C 
ATOM     22  C   UNL     1      33.228 -20.202 -20.432  0.00  0.00    +0.059 C 
ATOM     23  C   UNL     1      34.658 -21.842 -18.710  0.00  0.00    +0.109 C 
ATOM     24  C   UNL     1      36.696 -18.970 -20.916  0.00  0.00    +0.057 C 
ATOM     25  C   UNL     1      33.274 -21.989 -18.826  0.00  0.00    +0.118 C 
ATOM     26  C   UNL     1      32.557 -21.168 -19.688  0.00  0.00    +0.011 C 
ATOM     27  C   UNL     1      37.327 -19.827 -20.037  0.00  0.00    +0.102 C 
BRANCH  25  28
ATOM     28  O   UNL     1      32.627 -22.938 -18.095  0.00  0.00    -0.476 OA
ATOM     29  C   UNL     1      33.337 -23.502 -16.992  0.00  0.00    +0.252 C 
ENDBRANCH  25  28
ENDBRANCH  17  20
ENDBRANCH  16  17
ENDBRANCH   5  16
TORSDOF 5
ENDMDL
MODEL 8
REMARK VINA RESULT:     -10.2      2.286      4.645
REMARK  Name = 24864821
REMARK  5 active torsions:
REMARK  status: ('A' for Active; 'I' for Inactive)
REMARK    1  A    between atoms: C_5  and  C_16
REMARK    2  A    between atoms: C_7  and  C_10
REMARK    3  A    between atoms: C_16  and  O_17
REMARK    4  A    between atoms: O_17  and  C_20
REMARK    5  A    between atoms: C_25  and  O_28
REMARK                            x       y       z     vdW  Elec       q    Type
REMARK                         _______ _______ _______ _____ _____    ______ ____
ROOT
ATOM      1  N   UNL     1      31.581 -23.670 -15.255  0.00  0.00    -0.191 N 
ATOM      2  N   UNL     1      32.878 -23.668 -14.859  0.00  0.00    -0.163 NA
ATOM      3  N   UNL     1      29.759 -23.250 -16.398  0.00  0.00    -0.128 NA
ATOM      4  N   UNL     1      29.429 -24.090 -15.354  0.00  0.00    -0.127 NA
ATOM      5  C   UNL     1      31.048 -23.009 -16.323  0.00  0.00    +0.208 A 
ATOM      6  C   UNL     1      30.528 -24.337 -14.675  0.00  0.00    +0.186 A 
ATOM      7  C   UNL     1      33.107 -24.401 -13.805  0.00  0.00    +0.101 C 
ATOM      8  C   UNL     1      30.802 -25.106 -13.527  0.00  0.00    +0.042 C 
ATOM      9  C   UNL     1      32.056 -25.166 -13.060  0.00  0.00    +0.024 C 
ENDROOT
BRANCH   7  10
ATOM     10  C   UNL     1      34.493 -24.484 -13.274  0.00  0.00    +0.019 C 
ATOM     11  C   UNL     1      34.744 -24.201 -11.932  0.00  0.00    +0.002 C 
ATOM     12  C   UNL     1      35.542 -24.848 -14.118  0.00  0.00    +0.002 C 
ATOM     13  C   UNL     1      36.044 -24.281 -11.434  0.00  0.00    +0.000 C 
ATOM     14  C   UNL     1      36.842 -24.928 -13.621  0.00  0.00    +0.000 C 
ATOM     15  C   UNL     1      37.094 -24.645 -12.278  0.00  0.00    +0.000 C 
ENDBRANCH   7  10
BRANCH   5  16
ATOM     16  C   UNL     1      31.862 -22.148 -17.244  0.00  0.00    +0.272 C 
BRANCH  16  17
ATOM     17  O   UNL     1      32.857 -22.952 -17.874  0.00  0.00    -0.467 OA
BRANCH  17  20
ATOM     18  N   UNL     1      36.619 -21.275 -18.351  0.00  0.00    -0.248 NA
ATOM     19  C   UNL     1      34.333 -21.475 -19.084  0.00  0.00    +0.030 C 
ATOM     20  C   UNL     1      34.086 -22.388 -18.050  0.00  0.00    +0.138 C 
ATOM     21  C   UNL     1      35.631 -20.936 -19.200  0.00  0.00    +0.066 C 
ATOM     22  C   UNL     1      33.325 -21.098 -19.989  0.00  0.00    +0.059 C 
ATOM     23  C   UNL     1      35.874 -20.029 -20.228  0.00  0.00    +0.109 C 
ATOM     24  C   UNL     1      35.103 -22.740 -17.174  0.00  0.00    +0.057 C 
ATOM     25  C   UNL     1      34.873 -19.654 -21.127  0.00  0.00    +0.118 C 
ATOM     26  C   UNL     1      33.596 -20.190 -21.007  0.00  0.00    +0.011 C 
ATOM     27  C   UNL     1      36.341 -22.159 -17.366  0.00  0.00    +0.102 C 
BRANCH  25  28
ATOM     28  O   UNL     1      35.148 -18.763 -22.118  0.00  0.00    -0.476 OA
ATOM     29  C   UNL     1      34.393 -18.880 -23.324  0.00  0.00    +0.252 C 
ENDBRANCH  25  28
ENDBRANCH  17  20
ENDBRANCH  16  17
ENDBRANCH   5  16
TORSDOF 5
ENDMDL
MODEL 9
REMARK VINA RESULT:     -10.1      2.124      4.731
REMARK  Name = 24864821
REMARK  5 active torsions:
REMARK  status: ('A' for Active; 'I' for Inactive)
REMARK    1  A    between atoms: C_5  and  C_16
REMARK    2  A    between atoms: C_7  and  C_10
REMARK    3  A    between atoms: C_16  and  O_17
REMARK    4  A    between atoms: O_17  and  C_20
REMARK    5  A    between atoms: C_25  and  O_28
REMARK                            x       y       z     vdW  Elec       q    Type
REMARK                         _______ _______ _______ _____ _____    ______ ____
ROOT
ATOM      1  N   UNL     1      34.160 -24.136 -14.649  0.00  0.00    -0.191 N 
ATOM      2  N   UNL     1      35.381 -24.642 -14.956  0.00  0.00    -0.163 NA
ATOM      3  N   UNL     1      32.142 -23.308 -14.860  0.00  0.00    -0.128 NA
ATOM      4  N   UNL     1      32.422 -23.422 -13.514  0.00  0.00    -0.127 NA
ATOM      5  C   UNL     1      33.192 -23.739 -15.523  0.00  0.00    +0.208 A 
ATOM      6  C   UNL     1      33.634 -23.920 -13.397  0.00  0.00    +0.186 A 
ATOM      7  C   UNL     1      36.102 -24.947 -13.914  0.00  0.00    +0.101 C 
ATOM      8  C   UNL     1      34.443 -24.243 -12.289  0.00  0.00    +0.042 C 
ATOM      9  C   UNL     1      35.665 -24.749 -12.494  0.00  0.00    +0.024 C 
ENDROOT
BRANCH   7  10
ATOM     10  C   UNL     1      37.460 -25.515 -14.120  0.00  0.00    +0.019 C 
ATOM     11  C   UNL     1      38.560 -24.938 -13.487  0.00  0.00    +0.002 C 
ATOM     12  C   UNL     1      37.633 -26.626 -14.945  0.00  0.00    +0.002 C 
ATOM     13  C   UNL     1      39.834 -25.472 -13.680  0.00  0.00    +0.000 C 
ATOM     14  C   UNL     1      38.906 -27.160 -15.137  0.00  0.00    +0.000 C 
ATOM     15  C   UNL     1      40.008 -26.584 -14.505  0.00  0.00    +0.000 C 
ENDBRANCH   7  10
BRANCH   5  16
ATOM     16  C   UNL     1      33.354 -23.807 -17.014  0.00  0.00    +0.272 C 
BRANCH  16  17
ATOM     17  O   UNL     1      33.266 -22.489 -17.552  0.00  0.00    -0.467 OA
BRANCH  17  20
ATOM     18  N   UNL     1      36.763 -20.924 -19.135  0.00  0.00    -0.248 NA
ATOM     19  C   UNL     1      34.372 -21.186 -19.256  0.00  0.00    +0.030 C 
ATOM     20  C   UNL     1      34.403 -21.964 -18.090  0.00  0.00    +0.138 C 
ATOM     21  C   UNL     1      35.591 -20.679 -19.750  0.00  0.00    +0.066 C 
ATOM     22  C   UNL     1      33.166 -20.910 -19.924  0.00  0.00    +0.059 C 
ATOM     23  C   UNL     1      35.559 -19.907 -20.908  0.00  0.00    +0.109 C 
ATOM     24  C   UNL     1      35.610 -22.219 -17.454  0.00  0.00    +0.057 C 
ATOM     25  C   UNL     1      34.361 -19.632 -21.571  0.00  0.00    +0.118 C 
ATOM     26  C   UNL     1      33.163 -20.135 -21.079  0.00  0.00    +0.011 C 
ATOM     27  C   UNL     1      36.752 -21.680 -18.013  0.00  0.00    +0.102 C 
BRANCH  25  28
ATOM     28  O   UNL     1      34.369 -18.871 -22.700  0.00  0.00    -0.476 OA
ATOM     29  C   UNL     1      35.238 -17.738 -22.713  0.00  0.00    +0.252 C 
ENDBRANCH  25  28
ENDBRANCH  17  20
ENDBRANCH  16  17
ENDBRANCH   5  16
TORSDOF 5
ENDMDL
