MODEL 1
REMARK VINA RESULT:     -11.4      0.000      0.000
REMARK  Name = 56842109
REMARK  7 active torsions:
REMARK  status: ('A' for Active; 'I' for Inactive)
REMARK    1  A    between atoms: C_1  and  C_24
REMARK    2  A    between atoms: C_3  and  C_9
REMARK    3  A    between atoms: C_5  and  O_22
REMARK    4  A    between atoms: N_8  and  C_11
REMARK    5  A    between atoms: C_11  and  C_12
REMARK    6  A    between atoms: C_15  and  C_21
REMARK    7  A    between atoms: C_24  and  C_29
REMARK                            x       y       z     vdW  Elec       q    Type
REMARK                         _______ _______ _______ _____ _____    ______ ____
ROOT
ATOM      1  C   UNL     1      33.948 -24.159 -13.790  0.00  0.00    -0.018 C 
ATOM      2  C   UNL     1      34.055 -24.037 -15.176  0.00  0.00    +0.003 C 
ATOM      3  C   UNL     1      32.963 -23.597 -15.923  0.00  0.00    +0.087 C 
ATOM      4  C   UNL     1      32.750 -23.839 -13.153  0.00  0.00    -0.001 C 
ATOM      5  C   UNL     1      31.764 -23.277 -15.286  0.00  0.00    +0.143 C 
ATOM      6  C   UNL     1      31.658 -23.399 -13.900  0.00  0.00    +0.037 C 
ENDROOT
BRANCH   3   9
ATOM      7  O   UNL     1      33.584 -24.404 -18.035  0.00  0.00    -0.270 OA
ATOM      8  N   UNL     1      32.633 -22.290 -17.951  0.00  0.00    -0.297 N 
ATOM      9  C   UNL     1      33.096 -23.475 -17.369  0.00  0.00    +0.249 C 
ATOM     10  H   UNL     1      32.259 -21.597 -17.361  0.00  0.00    +0.150 HD
BRANCH   8  11
ATOM     11  C   UNL     1      32.676 -22.031 -19.372  0.00  0.00    +0.117 C 
BRANCH  11  12
ATOM     12  C   UNL     1      33.844 -21.169 -19.751  0.00  0.00    -0.003 C 
ATOM     13  C   UNL     1      33.659 -20.077 -20.599  0.00  0.00    -0.003 C 
ATOM     14  C   UNL     1      35.116 -21.459 -19.257  0.00  0.00    -0.003 C 
ATOM     15  C   UNL     1      36.015 -19.565 -20.457  0.00  0.00    +0.071 C 
ATOM     16  C   UNL     1      34.744 -19.275 -20.953  0.00  0.00    +0.004 C 
ATOM     17  C   UNL     1      36.201 -20.658 -19.610  0.00  0.00    +0.004 C 
BRANCH  15  21
ATOM     18  F   UNL     1      36.792 -17.513 -21.372  0.00  0.00    -0.166 F 
ATOM     19  F   UNL     1      37.984 -18.387 -19.777  0.00  0.00    -0.166 F 
ATOM     20  F   UNL     1      38.004 -19.278 -21.755  0.00  0.00    -0.166 F 
ATOM     21  C   UNL     1      37.175 -18.706 -20.832  0.00  0.00    +0.419 C 
ENDBRANCH  15  21
ENDBRANCH  11  12
ENDBRANCH   8  11
ENDBRANCH   3   9
BRANCH   5  22
ATOM     22  O   UNL     1      30.687 -22.842 -15.999  0.00  0.00    -0.471 OA
ATOM     23  C   UNL     1      29.414 -22.921 -15.360  0.00  0.00    +0.252 C 
ENDBRANCH   5  22
BRANCH   1  24
ATOM     24  C   UNL     1      35.130 -24.634 -12.982  0.00  0.00    +0.080 C 
BRANCH  24  29
ATOM     25  O   UNL     1      36.549 -22.877 -12.126  0.00  0.00    -0.428 OA
ATOM     26  O   UNL     1      35.249 -25.329 -10.007  0.00  0.00    -0.271 OA
ATOM     27  O   UNL     1      38.626 -22.511 -11.244  0.00  0.00    -0.226 OA
ATOM     28  N   UNL     1      37.148 -24.032 -10.326  0.00  0.00    -0.218 N 
ATOM     29  C   UNL     1      35.426 -23.718 -11.813  0.00  0.00    +0.250 C 
ATOM     30  C   UNL     1      35.890 -24.477 -10.603  0.00  0.00    +0.271 C 
ATOM     31  C   UNL     1      37.550 -23.092 -11.220  0.00  0.00    +0.408 C 
ATOM     32  H   UNL     1      37.697 -24.350  -9.573  0.00  0.00    +0.161 HD
ENDBRANCH  24  29
ENDBRANCH   1  24
TORSDOF 7
ENDMDL
MODEL 2
REMARK VINA RESULT:     -11.2      2.283      2.746
REMARK  Name = 56842109
REMARK  7 active torsions:
REMARK  status: ('A' for Active; 'I' for Inactive)
REMARK    1  A    between atoms: C_1  and  C_24
REMARK    2  A    between atoms: C_3  and  C_9
REMARK    3  A    between atoms: C_5  and  O_22
REMARK    4  A    between atoms: N_8  and  C_11
REMARK    5  A    between atoms: C_11  and  C_12
REMARK    6  A    between atoms: C_15  and  C_21
REMARK    7  A    between atoms: C_24  and  C_29
REMARK                            x       y       z     vdW  Elec       q    Type
REMARK                         _______ _______ _______ _____ _____    ______ ____
ROOT
ATOM      1  C   UNL     1      35.645 -23.846 -13.826  0.00  0.00    -0.018 C 
ATOM      2  C   UNL     1      34.967 -23.481 -14.988  0.00  0.00    +0.003 C 
ATOM      3  C   UNL     1      33.575 -23.559 -15.038  0.00  0.00    +0.087 C 
ATOM      4  C   UNL     1      34.932 -24.289 -12.713  0.00  0.00    -0.001 C 
ATOM      5  C   UNL     1      32.861 -24.002 -13.925  0.00  0.00    +0.143 C 
ATOM      6  C   UNL     1      33.540 -24.368 -12.762  0.00  0.00    +0.037 C 
ENDROOT
BRANCH   3   9
ATOM      7  O   UNL     1      31.650 -23.044 -16.274  0.00  0.00    -0.270 OA
ATOM      8  N   UNL     1      33.681 -22.932 -17.388  0.00  0.00    -0.297 N 
ATOM      9  C   UNL     1      32.886 -23.171 -16.261  0.00  0.00    +0.249 C 
ATOM     10  H   UNL     1      34.655 -23.052 -17.305  0.00  0.00    +0.150 HD
BRANCH   8  11
ATOM     11  C   UNL     1      33.149 -22.518 -18.666  0.00  0.00    +0.117 C 
BRANCH  11  12
ATOM     12  C   UNL     1      34.039 -21.522 -19.349  0.00  0.00    -0.003 C 
ATOM     13  C   UNL     1      33.485 -20.545 -20.178  0.00  0.00    -0.003 C 
ATOM     14  C   UNL     1      35.420 -21.571 -19.157  0.00  0.00    -0.003 C 
ATOM     15  C   UNL     1      35.691 -19.668 -20.620  0.00  0.00    +0.071 C 
ATOM     16  C   UNL     1      34.311 -19.618 -20.814  0.00  0.00    +0.004 C 
ATOM     17  C   UNL     1      36.245 -20.645 -19.793  0.00  0.00    +0.004 C 
BRANCH  15  21
ATOM     18  F   UNL     1      37.733 -18.450 -20.613  0.00  0.00    -0.166 F 
ATOM     19  F   UNL     1      36.960 -19.053 -22.554  0.00  0.00    -0.166 F 
ATOM     20  F   UNL     1      35.998 -17.448 -21.457  0.00  0.00    -0.166 F 
ATOM     21  C   UNL     1      36.574 -18.676 -21.298  0.00  0.00    +0.419 C 
ENDBRANCH  15  21
ENDBRANCH  11  12
ENDBRANCH   8  11
ENDBRANCH   3   9
BRANCH   5  22
ATOM     22  O   UNL     1      31.501 -24.082 -13.952  0.00  0.00    -0.471 OA
ATOM     23  C   UNL     1      30.901 -25.155 -13.229  0.00  0.00    +0.252 C 
ENDBRANCH   5  22
BRANCH   1  24
ATOM     24  C   UNL     1      37.151 -23.761 -13.773  0.00  0.00    +0.080 C 
BRANCH  24  29
ATOM     25  O   UNL     1      39.195 -24.918 -13.212  0.00  0.00    -0.428 OA
ATOM     26  O   UNL     1      36.711 -26.474 -15.112  0.00  0.00    -0.271 OA
ATOM     27  O   UNL     1      41.115 -25.733 -14.147  0.00  0.00    -0.226 OA
ATOM     28  N   UNL     1      39.020 -26.354 -14.898  0.00  0.00    -0.218 N 
ATOM     29  C   UNL     1      37.784 -25.092 -13.429  0.00  0.00    +0.250 C 
ATOM     30  C   UNL     1      37.728 -26.058 -14.579  0.00  0.00    +0.271 C 
ATOM     31  C   UNL     1      39.894 -25.684 -14.103  0.00  0.00    +0.408 C 
ATOM     32  H   UNL     1      39.287 -26.975 -15.614  0.00  0.00    +0.161 HD
ENDBRANCH  24  29
ENDBRANCH   1  24
TORSDOF 7
ENDMDL
MODEL 3
REMARK VINA RESULT:     -11.1      6.688     11.153
REMARK  Name = 56842109
REMARK  7 active torsions:
REMARK  status: ('A' for Active; 'I' for Inactive)
REMARK    1  A    between atoms: C_1  and  C_24
REMARK    2  A    between atoms: C_3  and  C_9
REMARK    3  A    between atoms: C_5  and  O_22
REMARK    4  A    between atoms: N_8  and  C_11
REMARK    5  A    between atoms: C_11  and  C_12
REMARK    6  A    between atoms: C_15  and  C_21
REMARK    7  A    between atoms: C_24  and  C_29
REMARK                            x       y       z     vdW  Elec       q    Type
REMARK                         _______ _______ _______ _____ _____    ______ ____
ROOT
ATOM      1  C   UNL     1      34.127 -14.228 -23.039  0.00  0.00    -0.018 C 
ATOM      2  C   UNL     1      34.776 -15.039 -22.108  0.00  0.00    +0.003 C 
ATOM      3  C   UNL     1      35.006 -16.384 -22.395  0.00  0.00    +0.087 C 
ATOM      4  C   UNL     1      33.710 -14.763 -24.258  0.00  0.00    -0.001 C 
ATOM      5  C   UNL     1      34.589 -16.919 -23.613  0.00  0.00    +0.143 C 
ATOM      6  C   UNL     1      33.941 -16.108 -24.545  0.00  0.00    +0.037 C 
ENDROOT
BRANCH   3   9
ATOM      7  O   UNL     1      35.519 -17.010 -20.194  0.00  0.00    -0.270 OA
ATOM      8  N   UNL     1      36.503 -18.239 -21.897  0.00  0.00    -0.297 N 
ATOM      9  C   UNL     1      35.687 -17.213 -21.409  0.00  0.00    +0.249 C 
ATOM     10  H   UNL     1      36.590 -18.341 -22.872  0.00  0.00    +0.150 HD
BRANCH   8  11
ATOM     11  C   UNL     1      37.224 -19.157 -21.046  0.00  0.00    +0.117 C 
BRANCH  11  12
ATOM     12  C   UNL     1      36.299 -20.050 -20.271  0.00  0.00    -0.003 C 
ATOM     13  C   UNL     1      34.940 -20.085 -20.583  0.00  0.00    -0.003 C 
ATOM     14  C   UNL     1      36.798 -20.844 -19.238  0.00  0.00    -0.003 C 
ATOM     15  C   UNL     1      34.579 -21.709 -18.832  0.00  0.00    +0.071 C 
ATOM     16  C   UNL     1      34.079 -20.914 -19.864  0.00  0.00    +0.004 C 
ATOM     17  C   UNL     1      35.938 -21.673 -18.519  0.00  0.00    +0.004 C 
BRANCH  15  21
ATOM     18  F   UNL     1      34.109 -22.852 -16.801  0.00  0.00    -0.166 F 
ATOM     19  F   UNL     1      32.403 -22.083 -17.909  0.00  0.00    -0.166 F 
ATOM     20  F   UNL     1      33.474 -23.822 -18.641  0.00  0.00    -0.166 F 
ATOM     21  C   UNL     1      33.660 -22.598 -18.065  0.00  0.00    +0.419 C 
ENDBRANCH  15  21
ENDBRANCH  11  12
ENDBRANCH   8  11
ENDBRANCH   3   9
BRANCH   5  22
ATOM     22  O   UNL     1      34.809 -18.230 -23.913  0.00  0.00    -0.471 OA
ATOM     23  C   UNL     1      33.682 -18.992 -24.344  0.00  0.00    +0.252 C 
ENDBRANCH   5  22
BRANCH   1  24
ATOM     24  C   UNL     1      33.879 -12.773 -22.729  0.00  0.00    +0.080 C 
BRANCH  24  29
ATOM     25  O   UNL     1      32.118 -11.121 -22.666  0.00  0.00    -0.428 OA
ATOM     26  O   UNL     1      32.279 -13.666 -20.281  0.00  0.00    -0.271 OA
ATOM     27  O   UNL     1      31.361  -9.344 -21.443  0.00  0.00    -0.226 OA
ATOM     28  N   UNL     1      31.700 -11.429 -20.507  0.00  0.00    -0.218 N 
ATOM     29  C   UNL     1      32.425 -12.501 -22.405  0.00  0.00    +0.250 C 
ATOM     30  C   UNL     1      32.135 -12.647 -20.938  0.00  0.00    +0.271 C 
ATOM     31  C   UNL     1      31.691 -10.519 -21.515  0.00  0.00    +0.408 C 
ATOM     32  H   UNL     1      31.427 -11.233 -19.581  0.00  0.00    +0.161 HD
ENDBRANCH  24  29
ENDBRANCH   1  24
TORSDOF 7
ENDMDL
MODEL 4
REMARK VINA RESULT:     -11.0      5.078      9.795
REMARK  Name = 56842109
REMARK  7 active torsions:
REMARK  status: ('A' for Active; 'I' for Inactive)
REMARK    1  A    between atoms: C_1  and  C_24
REMARK    2  A    between atoms: C_3  and  C_9
REMARK    3  A    between atoms: C_5  and  O_22
REMARK    4  A    between atoms: N_8  and  C_11
REMARK    5  A    between atoms: C_11  and  C_12
REMARK    6  A    between atoms: C_15  and  C_21
REMARK    7  A    between atoms: C_24  and  C_29
REMARK                            x       y       z     vdW  Elec       q    Type
REMARK                         _______ _______ _______ _____ _____    ______ ____
ROOT
ATOM      1  C   UNL     1      34.875 -20.045 -20.723  0.00  0.00    -0.018 C 
ATOM      2  C   UNL     1      34.238 -21.031 -19.969  0.00  0.00    +0.003 C 
ATOM      3  C   UNL     1      34.933 -21.691 -18.956  0.00  0.00    +0.087 C 
ATOM      4  C   UNL     1      36.205 -19.719 -20.463  0.00  0.00    -0.001 C 
ATOM      5  C   UNL     1      36.263 -21.365 -18.695  0.00  0.00    +0.143 C 
ATOM      6  C   UNL     1      36.900 -20.379 -19.449  0.00  0.00    +0.037 C 
ENDROOT
BRANCH   3   9
ATOM      7  O   UNL     1      33.615 -23.619 -18.751  0.00  0.00    -0.270 OA
ATOM      8  N   UNL     1      34.362 -22.638 -16.787  0.00  0.00    -0.297 N 
ATOM      9  C   UNL     1      34.248 -22.716 -18.179  0.00  0.00    +0.249 C 
ATOM     10  H   UNL     1      34.879 -21.894 -16.402  0.00  0.00    +0.150 HD
BRANCH   8  11
ATOM     11  C   UNL     1      33.760 -23.592 -15.883  0.00  0.00    +0.117 C 
BRANCH  11  12
ATOM     12  C   UNL     1      34.509 -23.687 -14.586  0.00  0.00    -0.003 C 
ATOM     13  C   UNL     1      33.883 -24.216 -13.457  0.00  0.00    -0.003 C 
ATOM     14  C   UNL     1      35.831 -23.248 -14.508  0.00  0.00    -0.003 C 
ATOM     15  C   UNL     1      35.899 -23.866 -12.174  0.00  0.00    +0.071 C 
ATOM     16  C   UNL     1      34.577 -24.305 -12.251  0.00  0.00    +0.004 C 
ATOM     17  C   UNL     1      36.525 -23.337 -13.303  0.00  0.00    +0.004 C 
BRANCH  15  21
ATOM     18  F   UNL     1      37.194 -22.774 -10.506  0.00  0.00    -0.166 F 
ATOM     19  F   UNL     1      35.866 -24.359  -9.833  0.00  0.00    -0.166 F 
ATOM     20  F   UNL     1      37.678 -24.854 -10.917  0.00  0.00    -0.166 F 
ATOM     21  C   UNL     1      36.643 -23.964 -10.885  0.00  0.00    +0.419 C 
ENDBRANCH  15  21
ENDBRANCH  11  12
ENDBRANCH   8  11
ENDBRANCH   3   9
BRANCH   5  22
ATOM     22  O   UNL     1      36.958 -21.997 -17.707  0.00  0.00    -0.471 OA
ATOM     23  C   UNL     1      37.546 -21.173 -16.702  0.00  0.00    +0.252 C 
ENDBRANCH   5  22
BRANCH   1  24
ATOM     24  C   UNL     1      34.123 -19.331 -21.819  0.00  0.00    +0.080 C 
BRANCH  24  29
ATOM     25  O   UNL     1      35.364 -17.296 -22.210  0.00  0.00    -0.428 OA
ATOM     26  O   UNL     1      33.942 -19.071 -24.860  0.00  0.00    -0.271 OA
ATOM     27  O   UNL     1      35.096 -15.124 -22.871  0.00  0.00    -0.226 OA
ATOM     28  N   UNL     1      34.390 -16.901 -24.167  0.00  0.00    -0.218 N 
ATOM     29  C   UNL     1      35.052 -18.589 -22.756  0.00  0.00    +0.250 C 
ATOM     30  C   UNL     1      34.391 -18.260 -24.065  0.00  0.00    +0.271 C 
ATOM     31  C   UNL     1      34.956 -16.321 -23.078  0.00  0.00    +0.408 C 
ATOM     32  H   UNL     1      34.026 -16.402 -24.934  0.00  0.00    +0.161 HD
ENDBRANCH  24  29
ENDBRANCH   1  24
TORSDOF 7
ENDMDL
MODEL 5
REMARK VINA RESULT:     -10.9      7.465     11.964
REMARK  Name = 56842109
REMARK  7 active torsions:
REMARK  status: ('A' for Active; 'I' for Inactive)
REMARK    1  A    between atoms: C_1  and  C_24
REMARK    2  A    between atoms: C_3  and  C_9
REMARK    3  A    between atoms: C_5  and  O_22
REMARK    4  A    between atoms: N_8  and  C_11
REMARK    5  A    between atoms: C_11  and  C_12
REMARK    6  A    between atoms: C_15  and  C_21
REMARK    7  A    between atoms: C_24  and  C_29
REMARK                            x       y       z     vdW  Elec       q    Type
REMARK                         _______ _______ _______ _____ _____    ______ ____
ROOT
ATOM      1  C   UNL     1      33.878 -14.037 -22.881  0.00  0.00    -0.018 C 
ATOM      2  C   UNL     1      34.557 -14.866 -21.987  0.00  0.00    +0.003 C 
ATOM      3  C   UNL     1      34.901 -16.164 -22.364  0.00  0.00    +0.087 C 
ATOM      4  C   UNL     1      33.546 -14.506 -24.151  0.00  0.00    -0.001 C 
ATOM      5  C   UNL     1      34.568 -16.633 -23.635  0.00  0.00    +0.143 C 
ATOM      6  C   UNL     1      33.890 -15.804 -24.528  0.00  0.00    +0.037 C 
ENDROOT
BRANCH   3   9
ATOM      7  O   UNL     1      35.494 -16.823 -20.194  0.00  0.00    -0.270 OA
ATOM      8  N   UNL     1      36.393 -18.043 -21.949  0.00  0.00    -0.297 N 
ATOM      9  C   UNL     1      35.611 -17.013 -21.416  0.00  0.00    +0.249 C 
ATOM     10  H   UNL     1      36.440 -18.133 -22.929  0.00  0.00    +0.150 HD
BRANCH   8  11
ATOM     11  C   UNL     1      37.137 -18.980 -21.139  0.00  0.00    +0.117 C 
BRANCH  11  12
ATOM     12  C   UNL     1      36.234 -19.901 -20.373  0.00  0.00    -0.003 C 
ATOM     13  C   UNL     1      36.759 -20.721 -19.374  0.00  0.00    -0.003 C 
ATOM     14  C   UNL     1      34.869 -19.939 -20.660  0.00  0.00    -0.003 C 
ATOM     15  C   UNL     1      34.556 -21.614 -18.948  0.00  0.00    +0.071 C 
ATOM     16  C   UNL     1      35.920 -21.578 -18.661  0.00  0.00    +0.004 C 
ATOM     17  C   UNL     1      34.030 -20.795 -19.948  0.00  0.00    +0.004 C 
BRANCH  15  21
ATOM     18  F   UNL     1      33.435 -23.708 -18.833  0.00  0.00    -0.166 F 
ATOM     19  F   UNL     1      34.146 -22.874 -16.955  0.00  0.00    -0.166 F 
ATOM     20  F   UNL     1      32.421 -22.004 -17.941  0.00  0.00    -0.166 F 
ATOM     21  C   UNL     1      33.658 -22.528 -18.184  0.00  0.00    +0.419 C 
ENDBRANCH  15  21
ENDBRANCH  11  12
ENDBRANCH   8  11
ENDBRANCH   3   9
BRANCH   5  22
ATOM     22  O   UNL     1      34.899 -17.897 -24.023  0.00  0.00    -0.471 OA
ATOM     23  C   UNL     1      33.823 -18.785 -24.320  0.00  0.00    +0.252 C 
ENDBRANCH   5  22
BRANCH   1  24
ATOM     24  C   UNL     1      33.507 -12.633 -22.473  0.00  0.00    +0.080 C 
BRANCH  24  29
ATOM     25  O   UNL     1      34.357 -11.540 -24.451  0.00  0.00    -0.428 OA
ATOM     26  O   UNL     1      31.806 -10.094 -22.556  0.00  0.00    -0.271 OA
ATOM     27  O   UNL     1      35.567  -9.720 -25.122  0.00  0.00    -0.226 OA
ATOM     28  N   UNL     1      33.671  -9.525 -23.816  0.00  0.00    -0.218 N 
ATOM     29  C   UNL     1      33.174 -11.763 -23.667  0.00  0.00    +0.250 C 
ATOM     30  C   UNL     1      32.764 -10.376 -23.259  0.00  0.00    +0.271 C 
ATOM     31  C   UNL     1      34.619 -10.200 -24.517  0.00  0.00    +0.408 C 
ATOM     32  H   UNL     1      33.644  -8.545 -23.723  0.00  0.00    +0.161 HD
ENDBRANCH  24  29
ENDBRANCH   1  24
TORSDOF 7
ENDMDL
MODEL 6
REMARK VINA RESULT:     -10.7      2.305      5.510
REMARK  Name = 56842109
REMARK  7 active torsions:
REMARK  status: ('A' for Active; 'I' for Inactive)
REMARK    1  A    between atoms: C_1  and  C_24
REMARK    2  A    between atoms: C_3  and  C_9
REMARK    3  A    between atoms: C_5  and  O_22
REMARK    4  A    between atoms: N_8  and  C_11
REMARK    5  A    between atoms: C_11  and  C_12
REMARK    6  A    between atoms: C_15  and  C_21
REMARK    7  A    between atoms: C_24  and  C_29
REMARK                            x       y       z     vdW  Elec       q    Type
REMARK                         _______ _______ _______ _____ _____    ______ ____
ROOT
ATOM      1  C   UNL     1      32.226 -23.308 -14.160  0.00  0.00    -0.018 C 
ATOM      2  C   UNL     1      33.342 -23.152 -14.982  0.00  0.00    +0.003 C 
ATOM      3  C   UNL     1      34.583 -23.640 -14.573  0.00  0.00    +0.087 C 
ATOM      4  C   UNL     1      32.351 -23.953 -12.930  0.00  0.00    -0.001 C 
ATOM      5  C   UNL     1      34.708 -24.285 -13.343  0.00  0.00    +0.143 C 
ATOM      6  C   UNL     1      33.592 -24.441 -12.521  0.00  0.00    +0.037 C 
ENDROOT
BRANCH   3   9
ATOM      7  O   UNL     1      36.672 -24.284 -15.420  0.00  0.00    -0.270 OA
ATOM      8  N   UNL     1      35.714 -22.371 -16.316  0.00  0.00    -0.297 N 
ATOM      9  C   UNL     1      35.735 -23.468 -15.448  0.00  0.00    +0.249 C 
ATOM     10  H   UNL     1      34.939 -21.765 -16.282  0.00  0.00    +0.150 HD
BRANCH   8  11
ATOM     11  C   UNL     1      36.771 -22.080 -17.257  0.00  0.00    +0.117 C 
BRANCH  11  12
ATOM     12  C   UNL     1      36.255 -21.382 -18.482  0.00  0.00    -0.003 C 
ATOM     13  C   UNL     1      34.931 -21.563 -18.882  0.00  0.00    -0.003 C 
ATOM     14  C   UNL     1      37.099 -20.552 -19.220  0.00  0.00    -0.003 C 
ATOM     15  C   UNL     1      35.294 -20.085 -20.757  0.00  0.00    +0.071 C 
ATOM     16  C   UNL     1      34.450 -20.915 -20.020  0.00  0.00    +0.004 C 
ATOM     17  C   UNL     1      36.619 -19.904 -20.358  0.00  0.00    +0.004 C 
BRANCH  15  21
ATOM     18  F   UNL     1      33.445 -19.594 -22.169  0.00  0.00    -0.166 F 
ATOM     19  F   UNL     1      34.941 -18.033 -21.935  0.00  0.00    -0.166 F 
ATOM     20  F   UNL     1      35.387 -19.788 -23.129  0.00  0.00    -0.166 F 
ATOM     21  C   UNL     1      34.780 -19.390 -21.972  0.00  0.00    +0.419 C 
ENDBRANCH  15  21
ENDBRANCH  11  12
ENDBRANCH   8  11
ENDBRANCH   3   9
BRANCH   5  22
ATOM     22  O   UNL     1      35.911 -24.772 -12.928  0.00  0.00    -0.471 OA
ATOM     23  C   UNL     1      36.146 -24.803 -11.521  0.00  0.00    +0.252 C 
ENDBRANCH   5  22
BRANCH   1  24
ATOM     24  C   UNL     1      30.884 -22.780 -14.603  0.00  0.00    +0.080 C 
BRANCH  24  29
ATOM     25  O   UNL     1      29.485 -22.624 -16.566  0.00  0.00    -0.428 OA
ATOM     26  O   UNL     1      29.852 -25.647 -14.857  0.00  0.00    -0.271 OA
ATOM     27  O   UNL     1      27.298 -22.692 -17.226  0.00  0.00    -0.226 OA
ATOM     28  N   UNL     1      28.277 -24.409 -16.031  0.00  0.00    -0.218 N 
ATOM     29  C   UNL     1      30.373 -23.490 -15.839  0.00  0.00    +0.250 C 
ATOM     30  C   UNL     1      29.505 -24.667 -15.497  0.00  0.00    +0.271 C 
ATOM     31  C   UNL     1      28.251 -23.206 -16.659  0.00  0.00    +0.408 C 
ATOM     32  H   UNL     1      27.506 -25.019 -15.970  0.00  0.00    +0.161 HD
ENDBRANCH  24  29
ENDBRANCH   1  24
TORSDOF 7
ENDMDL
MODEL 7
REMARK VINA RESULT:     -10.6     10.538     14.390
REMARK  Name = 56842109
REMARK  7 active torsions:
REMARK  status: ('A' for Active; 'I' for Inactive)
REMARK    1  A    between atoms: C_1  and  C_24
REMARK    2  A    between atoms: C_3  and  C_9
REMARK    3  A    between atoms: C_5  and  O_22
REMARK    4  A    between atoms: N_8  and  C_11
REMARK    5  A    between atoms: C_11  and  C_12
REMARK    6  A    between atoms: C_15  and  C_21
REMARK    7  A    between atoms: C_24  and  C_29
REMARK                            x       y       z     vdW  Elec       q    Type
REMARK                         _______ _______ _______ _____ _____    ______ ____
ROOT
ATOM      1  C   UNL     1      32.255  -8.971 -22.427  0.00  0.00    -0.018 C 
ATOM      2  C   UNL     1      32.866  -9.883 -23.289  0.00  0.00    +0.003 C 
ATOM      3  C   UNL     1      32.805 -11.250 -23.014  0.00  0.00    +0.087 C 
ATOM      4  C   UNL     1      31.585  -9.426 -21.293  0.00  0.00    -0.001 C 
ATOM      5  C   UNL     1      32.134 -11.705 -21.879  0.00  0.00    +0.143 C 
ATOM      6  C   UNL     1      31.524 -10.793 -21.018  0.00  0.00    +0.037 C 
ENDROOT
BRANCH   3   9
ATOM      7  O   UNL     1      34.435 -11.834 -24.596  0.00  0.00    -0.270 OA
ATOM      8  N   UNL     1      32.915 -13.478 -23.990  0.00  0.00    -0.297 N 
ATOM      9  C   UNL     1      33.448 -12.185 -23.928  0.00  0.00    +0.249 C 
ATOM     10  H   UNL     1      32.131 -13.686 -23.433  0.00  0.00    +0.150 HD
BRANCH   8  11
ATOM     11  C   UNL     1      33.455 -14.522 -24.830  0.00  0.00    +0.117 C 
BRANCH  11  12
ATOM     12  C   UNL     1      34.133 -15.594 -24.027  0.00  0.00    -0.003 C 
ATOM     13  C   UNL     1      34.620 -15.307 -22.752  0.00  0.00    -0.003 C 
ATOM     14  C   UNL     1      34.276 -16.877 -24.556  0.00  0.00    -0.003 C 
ATOM     15  C   UNL     1      35.393 -17.585 -22.534  0.00  0.00    +0.071 C 
ATOM     16  C   UNL     1      35.250 -16.302 -22.005  0.00  0.00    +0.004 C 
ATOM     17  C   UNL     1      34.906 -17.872 -23.809  0.00  0.00    +0.004 C 
BRANCH  15  21
ATOM     18  F   UNL     1      35.360 -19.820 -21.723  0.00  0.00    -0.166 F 
ATOM     19  F   UNL     1      37.309 -18.977 -22.193  0.00  0.00    -0.166 F 
ATOM     20  F   UNL     1      36.244 -18.318 -20.422  0.00  0.00    -0.166 F 
ATOM     21  C   UNL     1      36.063 -18.650 -21.734  0.00  0.00    +0.419 C 
ENDBRANCH  15  21
ENDBRANCH  11  12
ENDBRANCH   8  11
ENDBRANCH   3   9
BRANCH   5  22
ATOM     22  O   UNL     1      32.062 -13.036 -21.596  0.00  0.00    -0.471 OA
ATOM     23  C   UNL     1      32.447 -13.440 -20.284  0.00  0.00    +0.252 C 
ENDBRANCH   5  22
BRANCH   1  24
ATOM     24  C   UNL     1      32.320  -7.494 -22.725  0.00  0.00    +0.080 C 
BRANCH  24  29
ATOM     25  O   UNL     1      30.770  -5.643 -22.670  0.00  0.00    -0.428 OA
ATOM     26  O   UNL     1      32.668  -6.481 -19.861  0.00  0.00    -0.271 OA
ATOM     27  O   UNL     1      30.696  -3.361 -22.553  0.00  0.00    -0.226 OA
ATOM     28  N   UNL     1      31.794  -4.640 -20.974  0.00  0.00    -0.218 N 
ATOM     29  C   UNL     1      31.343  -6.701 -21.883  0.00  0.00    +0.250 C 
ATOM     30  C   UNL     1      32.027  -5.966 -20.764  0.00  0.00    +0.271 C 
ATOM     31  C   UNL     1      31.059  -4.436 -22.097  0.00  0.00    +0.408 C 
ATOM     32  H   UNL     1      32.118  -3.920 -20.385  0.00  0.00    +0.161 HD
ENDBRANCH  24  29
ENDBRANCH   1  24
TORSDOF 7
ENDMDL
MODEL 8
REMARK VINA RESULT:     -10.5      5.170      9.827
REMARK  Name = 56842109
REMARK  7 active torsions:
REMARK  status: ('A' for Active; 'I' for Inactive)
REMARK    1  A    between atoms: C_1  and  C_24
REMARK    2  A    between atoms: C_3  and  C_9
REMARK    3  A    between atoms: C_5  and  O_22
REMARK    4  A    between atoms: N_8  and  C_11
REMARK    5  A    between atoms: C_11  and  C_12
REMARK    6  A    between atoms: C_15  and  C_21
REMARK    7  A    between atoms: C_24  and  C_29
REMARK                            x       y       z     vdW  Elec       q    Type
REMARK                         _______ _______ _______ _____ _____    ______ ____
ROOT
ATOM      1  C   UNL     1      35.001 -19.368 -21.693  0.00  0.00    -0.018 C 
ATOM      2  C   UNL     1      34.074 -20.023 -20.881  0.00  0.00    +0.003 C 
ATOM      3  C   UNL     1      34.510 -20.759 -19.779  0.00  0.00    +0.087 C 
ATOM      4  C   UNL     1      36.362 -19.448 -21.402  0.00  0.00    -0.001 C 
ATOM      5  C   UNL     1      35.871 -20.839 -19.488  0.00  0.00    +0.143 C 
ATOM      6  C   UNL     1      36.798 -20.183 -20.299  0.00  0.00    +0.037 C 
ENDROOT
BRANCH   3   9
ATOM      7  O   UNL     1      32.317 -21.175 -19.063  0.00  0.00    -0.270 OA
ATOM      8  N   UNL     1      34.008 -22.384 -18.037  0.00  0.00    -0.297 N 
ATOM      9  C   UNL     1      33.526 -21.434 -18.944  0.00  0.00    +0.249 C 
ATOM     10  H   UNL     1      34.980 -22.537 -17.996  0.00  0.00    +0.150 HD
BRANCH   8  11
ATOM     11  C   UNL     1      33.156 -23.152 -17.158  0.00  0.00    +0.117 C 
BRANCH  11  12
ATOM     12  C   UNL     1      33.807 -23.412 -15.831  0.00  0.00    -0.003 C 
ATOM     13  C   UNL     1      35.176 -23.193 -15.671  0.00  0.00    -0.003 C 
ATOM     14  C   UNL     1      33.045 -23.874 -14.758  0.00  0.00    -0.003 C 
ATOM     15  C   UNL     1      35.019 -23.896 -13.366  0.00  0.00    +0.071 C 
ATOM     16  C   UNL     1      35.782 -23.435 -14.438  0.00  0.00    +0.004 C 
ATOM     17  C   UNL     1      33.651 -24.116 -13.526  0.00  0.00    +0.004 C 
BRANCH  15  21
ATOM     18  F   UNL     1      34.875 -23.789 -10.994  0.00  0.00    -0.166 F 
ATOM     19  F   UNL     1      35.977 -25.465 -11.835  0.00  0.00    -0.166 F 
ATOM     20  F   UNL     1      36.840 -23.476 -11.872  0.00  0.00    -0.166 F 
ATOM     21  C   UNL     1      35.666 -24.152 -12.046  0.00  0.00    +0.419 C 
ENDBRANCH  15  21
ENDBRANCH  11  12
ENDBRANCH   8  11
ENDBRANCH   3   9
BRANCH   5  22
ATOM     22  O   UNL     1      36.316 -21.550 -18.414  0.00  0.00    -0.471 OA
ATOM     23  C   UNL     1      37.289 -20.922 -17.580  0.00  0.00    +0.252 C 
ENDBRANCH   5  22
BRANCH   1  24
ATOM     24  C   UNL     1      34.528 -18.571 -22.884  0.00  0.00    +0.080 C 
BRANCH  24  29
ATOM     25  O   UNL     1      35.182 -16.527 -21.777  0.00  0.00    -0.428 OA
ATOM     26  O   UNL     1      34.430 -16.563 -25.187  0.00  0.00    -0.271 OA
ATOM     27  O   UNL     1      34.361 -14.499 -21.112  0.00  0.00    -0.226 OA
ATOM     28  N   UNL     1      34.233 -15.221 -23.303  0.00  0.00    -0.218 N 
ATOM     29  C   UNL     1      35.263 -17.254 -23.015  0.00  0.00    +0.250 C 
ATOM     30  C   UNL     1      34.601 -16.333 -24.000  0.00  0.00    +0.271 C 
ATOM     31  C   UNL     1      34.565 -15.325 -21.990  0.00  0.00    +0.408 C 
ATOM     32  H   UNL     1      33.783 -14.440 -23.700  0.00  0.00    +0.161 HD
ENDBRANCH  24  29
ENDBRANCH   1  24
TORSDOF 7
ENDMDL
MODEL 9
REMARK VINA RESULT:     -10.5     10.971     14.943
REMARK  Name = 56842109
REMARK  7 active torsions:
REMARK  status: ('A' for Active; 'I' for Inactive)
REMARK    1  A    between atoms: C_1  and  C_24
REMARK    2  A    between atoms: C_3  and  C_9
REMARK    3  A    between atoms: C_5  and  O_22
REMARK    4  A    between atoms: N_8  and  C_11
REMARK    5  A    between atoms: C_11  and  C_12
REMARK    6  A    between atoms: C_15  and  C_21
REMARK    7  A    between atoms: C_24  and  C_29
REMARK                            x       y       z     vdW  Elec       q    Type
REMARK                         _______ _______ _______ _____ _____    ______ ____
ROOT
ATOM      1  C   UNL     1      32.508  -8.546 -22.304  0.00  0.00    -0.018 C 
ATOM      2  C   UNL     1      33.042  -9.452 -23.222  0.00  0.00    +0.003 C 
ATOM      3  C   UNL     1      32.873 -10.823 -23.028  0.00  0.00    +0.087 C 
ATOM      4  C   UNL     1      31.804  -9.012 -21.195  0.00  0.00    -0.001 C 
ATOM      5  C   UNL     1      32.168 -11.289 -21.918  0.00  0.00    +0.143 C 
ATOM      6  C   UNL     1      31.634 -10.383 -21.001  0.00  0.00    +0.037 C 
ENDROOT
BRANCH   3   9
ATOM      7  O   UNL     1      34.297 -11.366 -24.809  0.00  0.00    -0.270 OA
ATOM      8  N   UNL     1      32.983 -13.073 -23.950  0.00  0.00    -0.297 N 
ATOM      9  C   UNL     1      33.437 -11.751 -23.999  0.00  0.00    +0.249 C 
ATOM     10  H   UNL     1      32.299 -13.307 -23.281  0.00  0.00    +0.150 HD
BRANCH   8  11
ATOM     11  C   UNL     1      33.464 -14.114 -24.830  0.00  0.00    +0.117 C 
BRANCH  11  12
ATOM     12  C   UNL     1      34.070 -15.257 -24.070  0.00  0.00    -0.003 C 
ATOM     13  C   UNL     1      34.576 -15.051 -22.786  0.00  0.00    -0.003 C 
ATOM     14  C   UNL     1      34.127 -16.526 -24.646  0.00  0.00    -0.003 C 
ATOM     15  C   UNL     1      35.195 -17.381 -22.655  0.00  0.00    +0.071 C 
ATOM     16  C   UNL     1      35.139 -16.112 -22.078  0.00  0.00    +0.004 C 
ATOM     17  C   UNL     1      34.690 -17.588 -23.939  0.00  0.00    +0.004 C 
BRANCH  15  21
ATOM     18  F   UNL     1      35.765 -18.322 -20.547  0.00  0.00    -0.166 F 
ATOM     19  F   UNL     1      35.162 -19.710 -22.109  0.00  0.00    -0.166 F 
ATOM     20  F   UNL     1      37.105 -18.750 -22.205  0.00  0.00    -0.166 F 
ATOM     21  C   UNL     1      35.795 -18.517 -21.897  0.00  0.00    +0.419 C 
ENDBRANCH  15  21
ENDBRANCH  11  12
ENDBRANCH   8  11
ENDBRANCH   3   9
BRANCH   5  22
ATOM     22  O   UNL     1      31.989 -12.624 -21.714  0.00  0.00    -0.471 OA
ATOM     23  C   UNL     1      32.284 -13.124 -20.411  0.00  0.00    +0.252 C 
ENDBRANCH   5  22
BRANCH   1  24
ATOM     24  C   UNL     1      32.691  -7.064 -22.515  0.00  0.00    +0.080 C 
BRANCH  24  29
ATOM     25  O   UNL     1      31.509  -5.726 -24.141  0.00  0.00    -0.428 OA
ATOM     26  O   UNL     1      30.921  -5.332 -20.722  0.00  0.00    -0.271 OA
ATOM     27  O   UNL     1      31.331  -3.586 -24.924  0.00  0.00    -0.226 OA
ATOM     28  N   UNL     1      31.038  -4.110 -22.693  0.00  0.00    -0.218 N 
ATOM     29  C   UNL     1      31.389  -6.374 -22.863  0.00  0.00    +0.250 C 
ATOM     30  C   UNL     1      31.084  -5.238 -21.929  0.00  0.00    +0.271 C 
ATOM     31  C   UNL     1      31.293  -4.384 -23.998  0.00  0.00    +0.408 C 
ATOM     32  H   UNL     1      30.846  -3.210 -22.343  0.00  0.00    +0.161 HD
ENDBRANCH  24  29
ENDBRANCH   1  24
TORSDOF 7
ENDMDL
