MODEL 1
REMARK VINA RESULT:     -11.9      0.000      0.000
REMARK  Name = 6852141
REMARK  6 active torsions:
REMARK  status: ('A' for Active; 'I' for Inactive)
REMARK    1  A    between atoms: C_3  and  N_18
REMARK    2  A    between atoms: C_7  and  C_31
REMARK    3  A    between atoms: C_9  and  C_13
REMARK    4  A    between atoms: C_19  and  C_21
REMARK    5  A    between atoms: C_24  and  O_28
REMARK    6  A    between atoms: C_31  and  O_32
REMARK                            x       y       z     vdW  Elec       q    Type
REMARK                         _______ _______ _______ _____ _____    ______ ____
ROOT
ATOM      1  C   UNL     1      32.006 -23.537 -15.151  0.00  0.00    +0.014 C 
ATOM      2  C   UNL     1      30.947 -24.130 -14.424  0.00  0.00    +0.001 C 
ATOM      3  C   UNL     1      31.720 -22.852 -16.344  0.00  0.00    +0.051 C 
ATOM      4  C   UNL     1      33.319 -23.645 -14.666  0.00  0.00    +0.004 C 
ATOM      5  C   UNL     1      29.634 -24.022 -14.909  0.00  0.00    +0.007 C 
ATOM      6  C   UNL     1      30.409 -22.754 -16.811  0.00  0.00    +0.021 C 
ATOM      7  C   UNL     1      29.368 -23.338 -16.095  0.00  0.00    +0.077 C 
ATOM      8  C   UNL     1      31.233 -24.815 -13.231  0.00  0.00    +0.000 C 
ATOM      9  C   UNL     1      33.585 -24.329 -13.479  0.00  0.00    +0.031 C 
ATOM     10  C   UNL     1      32.544 -24.912 -12.763  0.00  0.00    +0.003 C 
ENDROOT
BRANCH   9  13
ATOM     11  N   UNL     1      35.795 -25.458 -13.407  0.00  0.00    -0.343 N 
ATOM     12  N   UNL     1      35.410 -23.541 -12.128  0.00  0.00    -0.285 NA
ATOM     13  C   UNL     1      34.950 -24.431 -12.990  0.00  0.00    +0.117 C 
ATOM     14  H   UNL     1      36.716 -25.509 -13.064  0.00  0.00    +0.144 HD
ATOM     15  H   UNL     1      35.470 -26.133 -14.047  0.00  0.00    +0.144 HD
ATOM     16  H   UNL     1      36.333 -23.608 -11.796  0.00  0.00    +0.188 HD
ENDBRANCH   9  13
BRANCH   3  18
ATOM     17  O   UNL     1      33.469 -23.989 -18.497  0.00  0.00    -0.270 OA
ATOM     18  N   UNL     1      32.726 -22.246 -17.108  0.00  0.00    -0.280 N 
ATOM     19  C   UNL     1      33.514 -22.829 -18.104  0.00  0.00    +0.249 C 
ATOM     20  H   UNL     1      32.899 -21.296 -16.918  0.00  0.00    +0.155 HD
BRANCH  19  21
ATOM     21  C   UNL     1      34.525 -21.929 -18.717  0.00  0.00    +0.053 C 
ATOM     22  C   UNL     1      34.146 -21.001 -19.665  0.00  0.00    +0.016 C 
ATOM     23  C   UNL     1      35.836 -22.059 -18.303  0.00  0.00    +0.004 C 
ATOM     24  C   UNL     1      35.116 -20.169 -20.224  0.00  0.00    +0.130 C 
ATOM     25  C   UNL     1      32.720 -20.872 -20.102  0.00  0.00    +0.034 C 
ATOM     26  C   UNL     1      36.807 -21.228 -18.862  0.00  0.00    +0.003 C 
ATOM     27  C   UNL     1      36.446 -20.283 -19.821  0.00  0.00    +0.036 C 
BRANCH  24  28
ATOM     28  O   UNL     1      34.783 -19.238 -21.162  0.00  0.00    -0.506 OA
ATOM     29  H   UNL     1      34.209 -18.533 -20.939  0.00  0.00    +0.292 HD
ENDBRANCH  24  28
ENDBRANCH  19  21
ENDBRANCH   3  18
BRANCH   7  31
ATOM     30  O   UNL     1      27.399 -24.141 -17.177  0.00  0.00    -0.245 OA
ATOM     31  C   UNL     1      28.002 -23.235 -16.585  0.00  0.00    +0.341 C 
BRANCH  31  32
ATOM     32  O   UNL     1      27.460 -22.008 -16.311  0.00  0.00    -0.441 OA
ATOM     33  C   UNL     1      26.284 -21.643 -17.040  0.00  0.00    +0.256 C 
ENDBRANCH  31  32
ENDBRANCH   7  31
TORSDOF 6
ENDMDL
MODEL 2
REMARK VINA RESULT:     -11.8      2.481      5.348
REMARK  Name = 6852141
REMARK  6 active torsions:
REMARK  status: ('A' for Active; 'I' for Inactive)
REMARK    1  A    between atoms: C_3  and  N_18
REMARK    2  A    between atoms: C_7  and  C_31
REMARK    3  A    between atoms: C_9  and  C_13
REMARK    4  A    between atoms: C_19  and  C_21
REMARK    5  A    between atoms: C_24  and  O_28
REMARK    6  A    between atoms: C_31  and  O_32
REMARK                            x       y       z     vdW  Elec       q    Type
REMARK                         _______ _______ _______ _____ _____    ______ ____
ROOT
ATOM      1  C   UNL     1      31.738 -23.739 -14.936  0.00  0.00    +0.014 C 
ATOM      2  C   UNL     1      31.546 -24.501 -13.760  0.00  0.00    +0.001 C 
ATOM      3  C   UNL     1      33.029 -23.293 -15.263  0.00  0.00    +0.051 C 
ATOM      4  C   UNL     1      30.633 -23.445 -15.751  0.00  0.00    +0.004 C 
ATOM      5  C   UNL     1      32.650 -24.796 -12.944  0.00  0.00    +0.007 C 
ATOM      6  C   UNL     1      34.115 -23.596 -14.441  0.00  0.00    +0.021 C 
ATOM      7  C   UNL     1      33.926 -24.346 -13.283  0.00  0.00    +0.077 C 
ATOM      8  C   UNL     1      30.254 -24.947 -13.433  0.00  0.00    +0.000 C 
ATOM      9  C   UNL     1      29.358 -23.896 -15.412  0.00  0.00    +0.031 C 
ATOM     10  C   UNL     1      29.169 -24.646 -14.255  0.00  0.00    +0.003 C 
ENDROOT
BRANCH   9  13
ATOM     11  N   UNL     1      27.559 -22.362 -16.173  0.00  0.00    -0.343 N 
ATOM     12  N   UNL     1      27.805 -24.468 -17.156  0.00  0.00    -0.285 NA
ATOM     13  C   UNL     1      28.225 -23.583 -16.268  0.00  0.00    +0.117 C 
ATOM     14  H   UNL     1      26.795 -22.171 -16.762  0.00  0.00    +0.144 HD
ATOM     15  H   UNL     1      27.855 -21.691 -15.515  0.00  0.00    +0.144 HD
ATOM     16  H   UNL     1      27.038 -24.258 -17.736  0.00  0.00    +0.188 HD
ENDBRANCH   9  13
BRANCH   3  18
ATOM     17  O   UNL     1      33.657 -24.166 -18.061  0.00  0.00    -0.270 OA
ATOM     18  N   UNL     1      33.280 -22.535 -16.413  0.00  0.00    -0.280 N 
ATOM     19  C   UNL     1      33.569 -22.998 -17.699  0.00  0.00    +0.249 C 
ATOM     20  H   UNL     1      33.250 -21.557 -16.301  0.00  0.00    +0.155 HD
BRANCH  19  21
ATOM     21  C   UNL     1      33.818 -21.939 -18.712  0.00  0.00    +0.053 C 
ATOM     22  C   UNL     1      35.093 -21.446 -18.901  0.00  0.00    +0.016 C 
ATOM     23  C   UNL     1      32.739 -21.481 -19.441  0.00  0.00    +0.004 C 
ATOM     24  C   UNL     1      35.297 -20.452 -19.859  0.00  0.00    +0.130 C 
ATOM     25  C   UNL     1      36.252 -21.954 -18.103  0.00  0.00    +0.034 C 
ATOM     26  C   UNL     1      32.943 -20.487 -20.398  0.00  0.00    +0.003 C 
ATOM     27  C   UNL     1      34.222 -19.974 -20.607  0.00  0.00    +0.036 C 
BRANCH  24  28
ATOM     28  O   UNL     1      36.540 -19.938 -20.078  0.00  0.00    -0.506 OA
ATOM     29  H   UNL     1      37.073 -19.676 -19.353  0.00  0.00    +0.292 HD
ENDBRANCH  24  28
ENDBRANCH  19  21
ENDBRANCH   3  18
BRANCH   7  31
ATOM     30  O   UNL     1      34.973 -24.945 -11.226  0.00  0.00    -0.245 OA
ATOM     31  C   UNL     1      35.060 -24.659 -12.427  0.00  0.00    +0.341 C 
BRANCH  31  32
ATOM     32  O   UNL     1      36.242 -24.600 -13.116  0.00  0.00    -0.441 OA
ATOM     33  C   UNL     1      36.949 -25.831 -13.294  0.00  0.00    +0.256 C 
ENDBRANCH  31  32
ENDBRANCH   7  31
TORSDOF 6
ENDMDL
MODEL 3
REMARK VINA RESULT:     -11.5      1.472      2.303
REMARK  Name = 6852141
REMARK  6 active torsions:
REMARK  status: ('A' for Active; 'I' for Inactive)
REMARK    1  A    between atoms: C_3  and  N_18
REMARK    2  A    between atoms: C_7  and  C_31
REMARK    3  A    between atoms: C_9  and  C_13
REMARK    4  A    between atoms: C_19  and  C_21
REMARK    5  A    between atoms: C_24  and  O_28
REMARK    6  A    between atoms: C_31  and  O_32
REMARK                            x       y       z     vdW  Elec       q    Type
REMARK                         _______ _______ _______ _____ _____    ______ ____
ROOT
ATOM      1  C   UNL     1      33.335 -23.513 -14.912  0.00  0.00    +0.014 C 
ATOM      2  C   UNL     1      32.808 -24.304 -13.863  0.00  0.00    +0.001 C 
ATOM      3  C   UNL     1      32.488 -23.102 -15.954  0.00  0.00    +0.051 C 
ATOM      4  C   UNL     1      34.693 -23.158 -14.888  0.00  0.00    +0.004 C 
ATOM      5  C   UNL     1      31.450 -24.660 -13.886  0.00  0.00    +0.007 C 
ATOM      6  C   UNL     1      31.141 -23.464 -15.960  0.00  0.00    +0.021 C 
ATOM      7  C   UNL     1      30.623 -24.242 -14.929  0.00  0.00    +0.077 C 
ATOM      8  C   UNL     1      33.656 -24.716 -12.821  0.00  0.00    +0.000 C 
ATOM      9  C   UNL     1      35.520 -23.575 -13.845  0.00  0.00    +0.031 C 
ATOM     10  C   UNL     1      35.002 -24.353 -12.813  0.00  0.00    +0.003 C 
ENDROOT
BRANCH   9  13
ATOM     11  N   UNL     1      37.585 -22.832 -15.007  0.00  0.00    -0.343 N 
ATOM     12  N   UNL     1      37.600 -23.200 -12.699  0.00  0.00    -0.285 NA
ATOM     13  C   UNL     1      36.924 -23.197 -13.835  0.00  0.00    +0.117 C 
ATOM     14  H   UNL     1      38.536 -22.579 -14.977  0.00  0.00    +0.144 HD
ATOM     15  H   UNL     1      37.100 -22.827 -15.864  0.00  0.00    +0.144 HD
ATOM     16  H   UNL     1      38.550 -22.945 -12.690  0.00  0.00    +0.188 HD
ENDBRANCH   9  13
BRANCH   3  18
ATOM     17  O   UNL     1      33.722 -23.916 -18.562  0.00  0.00    -0.270 OA
ATOM     18  N   UNL     1      32.953 -22.320 -17.019  0.00  0.00    -0.280 N 
ATOM     19  C   UNL     1      33.523 -22.757 -18.218  0.00  0.00    +0.249 C 
ATOM     20  H   UNL     1      32.869 -21.346 -16.908  0.00  0.00    +0.155 HD
BRANCH  19  21
ATOM     21  C   UNL     1      33.948 -21.676 -19.146  0.00  0.00    +0.053 C 
ATOM     22  C   UNL     1      35.260 -21.249 -19.160  0.00  0.00    +0.016 C 
ATOM     23  C   UNL     1      32.990 -21.131 -19.978  0.00  0.00    +0.004 C 
ATOM     24  C   UNL     1      35.630 -20.233 -20.041  0.00  0.00    +0.130 C 
ATOM     25  C   UNL     1      36.285 -21.851 -18.252  0.00  0.00    +0.034 C 
ATOM     26  C   UNL     1      33.361 -20.115 -20.860  0.00  0.00    +0.003 C 
ATOM     27  C   UNL     1      34.681 -19.668 -20.891  0.00  0.00    +0.036 C 
BRANCH  24  28
ATOM     28  O   UNL     1      36.916 -19.782 -20.088  0.00  0.00    -0.506 OA
ATOM     29  H   UNL     1      37.624 -20.366 -19.897  0.00  0.00    +0.292 HD
ENDBRANCH  24  28
ENDBRANCH  19  21
ENDBRANCH   3  18
BRANCH   7  31
ATOM     30  O   UNL     1      28.715 -25.470 -14.192  0.00  0.00    -0.245 OA
ATOM     31  C   UNL     1      29.218 -24.620 -14.939  0.00  0.00    +0.341 C 
BRANCH  31  32
ATOM     32  O   UNL     1      28.515 -23.917 -15.879  0.00  0.00    -0.441 OA
ATOM     33  C   UNL     1      27.684 -22.852 -15.404  0.00  0.00    +0.256 C 
ENDBRANCH  31  32
ENDBRANCH   7  31
TORSDOF 6
ENDMDL
MODEL 4
REMARK VINA RESULT:     -10.9      2.804      8.022
REMARK  Name = 6852141
REMARK  6 active torsions:
REMARK  status: ('A' for Active; 'I' for Inactive)
REMARK    1  A    between atoms: C_3  and  N_18
REMARK    2  A    between atoms: C_7  and  C_31
REMARK    3  A    between atoms: C_9  and  C_13
REMARK    4  A    between atoms: C_19  and  C_21
REMARK    5  A    between atoms: C_24  and  O_28
REMARK    6  A    between atoms: C_31  and  O_32
REMARK                            x       y       z     vdW  Elec       q    Type
REMARK                         _______ _______ _______ _____ _____    ______ ____
ROOT
ATOM      1  C   UNL     1      34.947 -22.418 -17.227  0.00  0.00    +0.014 C 
ATOM      2  C   UNL     1      36.338 -22.166 -17.287  0.00  0.00    +0.001 C 
ATOM      3  C   UNL     1      34.432 -23.170 -16.158  0.00  0.00    +0.051 C 
ATOM      4  C   UNL     1      34.113 -21.913 -18.238  0.00  0.00    +0.004 C 
ATOM      5  C   UNL     1      37.173 -22.670 -16.277  0.00  0.00    +0.007 C 
ATOM      6  C   UNL     1      35.276 -23.663 -15.163  0.00  0.00    +0.021 C 
ATOM      7  C   UNL     1      36.644 -23.414 -15.222  0.00  0.00    +0.077 C 
ATOM      8  C   UNL     1      36.854 -21.415 -18.357  0.00  0.00    +0.000 C 
ATOM      9  C   UNL     1      34.643 -21.169 -19.292  0.00  0.00    +0.031 C 
ATOM     10  C   UNL     1      36.011 -20.920 -19.351  0.00  0.00    +0.003 C 
ENDROOT
BRANCH   9  13
ATOM     11  N   UNL     1      34.271 -19.965 -21.431  0.00  0.00    -0.343 N 
ATOM     12  N   UNL     1      32.458 -20.830 -20.236  0.00  0.00    -0.285 NA
ATOM     13  C   UNL     1      33.765 -20.653 -20.330  0.00  0.00    +0.117 C 
ATOM     14  H   UNL     1      33.659 -19.623 -22.122  0.00  0.00    +0.144 HD
ATOM     15  H   UNL     1      35.241 -19.820 -21.517  0.00  0.00    +0.144 HD
ATOM     16  H   UNL     1      31.863 -20.481 -20.937  0.00  0.00    +0.188 HD
ENDBRANCH   9  13
BRANCH   3  18
ATOM     17  O   UNL     1      32.458 -22.391 -14.041  0.00  0.00    -0.270 OA
ATOM     18  N   UNL     1      33.065 -23.453 -16.047  0.00  0.00    -0.280 N 
ATOM     19  C   UNL     1      32.188 -23.061 -15.031  0.00  0.00    +0.249 C 
ATOM     20  H   UNL     1      32.675 -23.994 -16.771  0.00  0.00    +0.155 HD
BRANCH  19  21
ATOM     21  C   UNL     1      30.791 -23.547 -15.179  0.00  0.00    +0.053 C 
ATOM     22  C   UNL     1      30.329 -24.584 -14.394  0.00  0.00    +0.016 C 
ATOM     23  C   UNL     1      29.992 -22.925 -16.118  0.00  0.00    +0.004 C 
ATOM     24  C   UNL     1      29.013 -25.018 -14.555  0.00  0.00    +0.130 C 
ATOM     25  C   UNL     1      31.208 -25.246 -13.381  0.00  0.00    +0.034 C 
ATOM     26  C   UNL     1      28.676 -23.360 -16.279  0.00  0.00    +0.003 C 
ATOM     27  C   UNL     1      28.188 -24.406 -15.497  0.00  0.00    +0.036 C 
BRANCH  24  28
ATOM     28  O   UNL     1      28.517 -26.038 -13.800  0.00  0.00    -0.506 OA
ATOM     29  H   UNL     1      27.596 -26.209 -13.791  0.00  0.00    +0.292 HD
ENDBRANCH  24  28
ENDBRANCH  19  21
ENDBRANCH   3  18
BRANCH   7  31
ATOM     30  O   UNL     1      37.945 -23.264 -13.229  0.00  0.00    -0.245 OA
ATOM     31  C   UNL     1      37.522 -23.930 -14.183  0.00  0.00    +0.341 C 
BRANCH  31  32
ATOM     32  O   UNL     1      37.824 -25.249 -14.389  0.00  0.00    -0.441 OA
ATOM     33  C   UNL     1      37.485 -26.162 -13.340  0.00  0.00    +0.256 C 
ENDBRANCH  31  32
ENDBRANCH   7  31
TORSDOF 6
ENDMDL
MODEL 5
REMARK VINA RESULT:     -10.6      3.260      7.866
REMARK  Name = 6852141
REMARK  6 active torsions:
REMARK  status: ('A' for Active; 'I' for Inactive)
REMARK    1  A    between atoms: C_3  and  N_18
REMARK    2  A    between atoms: C_7  and  C_31
REMARK    3  A    between atoms: C_9  and  C_13
REMARK    4  A    between atoms: C_19  and  C_21
REMARK    5  A    between atoms: C_24  and  O_28
REMARK    6  A    between atoms: C_31  and  O_32
REMARK                            x       y       z     vdW  Elec       q    Type
REMARK                         _______ _______ _______ _____ _____    ______ ____
ROOT
ATOM      1  C   UNL     1      35.464 -23.077 -15.208  0.00  0.00    +0.014 C 
ATOM      2  C   UNL     1      36.816 -22.882 -14.840  0.00  0.00    +0.001 C 
ATOM      3  C   UNL     1      34.581 -23.673 -14.292  0.00  0.00    +0.051 C 
ATOM      4  C   UNL     1      35.034 -22.671 -16.482  0.00  0.00    +0.004 C 
ATOM      5  C   UNL     1      37.247 -23.287 -13.566  0.00  0.00    +0.007 C 
ATOM      6  C   UNL     1      35.026 -24.069 -13.030  0.00  0.00    +0.021 C 
ATOM      7  C   UNL     1      36.356 -23.877 -12.669  0.00  0.00    +0.077 C 
ATOM      8  C   UNL     1      37.698 -22.287 -15.757  0.00  0.00    +0.000 C 
ATOM      9  C   UNL     1      35.924 -22.082 -17.380  0.00  0.00    +0.031 C 
ATOM     10  C   UNL     1      37.254 -21.889 -17.017  0.00  0.00    +0.003 C 
ENDROOT
BRANCH   9  13
ATOM     11  N   UNL     1      36.177 -20.744 -19.456  0.00  0.00    -0.343 N 
ATOM     12  N   UNL     1      34.340 -22.163 -19.186  0.00  0.00    -0.285 NA
ATOM     13  C   UNL     1      35.462 -21.666 -18.694  0.00  0.00    +0.117 C 
ATOM     14  H   UNL     1      35.846 -20.477 -20.344  0.00  0.00    +0.144 HD
ATOM     15  H   UNL     1      37.014 -20.360 -19.106  0.00  0.00    +0.144 HD
ATOM     16  H   UNL     1      34.025 -21.883 -20.075  0.00  0.00    +0.188 HD
ENDBRANCH   9  13
BRANCH   3  18
ATOM     17  O   UNL     1      32.155 -22.031 -13.657  0.00  0.00    -0.270 OA
ATOM     18  N   UNL     1      33.233 -23.892 -14.601  0.00  0.00    -0.280 N 
ATOM     19  C   UNL     1      32.137 -23.087 -14.277  0.00  0.00    +0.249 C 
ATOM     20  H   UNL     1      33.034 -24.713 -15.107  0.00  0.00    +0.155 HD
BRANCH  19  21
ATOM     21  C   UNL     1      30.818 -23.607 -14.722  0.00  0.00    +0.053 C 
ATOM     22  C   UNL     1      30.191 -24.611 -14.013  0.00  0.00    +0.016 C 
ATOM     23  C   UNL     1      30.257 -23.049 -15.854  0.00  0.00    +0.004 C 
ATOM     24  C   UNL     1      28.953 -25.079 -14.454  0.00  0.00    +0.130 C 
ATOM     25  C   UNL     1      30.812 -25.204 -12.787  0.00  0.00    +0.034 C 
ATOM     26  C   UNL     1      29.019 -23.517 -16.295  0.00  0.00    +0.003 C 
ATOM     27  C   UNL     1      28.368 -24.531 -15.594  0.00  0.00    +0.036 C 
BRANCH  24  28
ATOM     28  O   UNL     1      28.300 -26.069 -13.782  0.00  0.00    -0.506 OA
ATOM     29  H   UNL     1      27.426 -25.929 -13.475  0.00  0.00    +0.292 HD
ENDBRANCH  24  28
ENDBRANCH  19  21
ENDBRANCH   3  18
BRANCH   7  31
ATOM     30  O   UNL     1      37.269 -23.522 -10.493  0.00  0.00    -0.245 OA
ATOM     31  C   UNL     1      36.818 -24.292 -11.352  0.00  0.00    +0.341 C 
BRANCH  31  32
ATOM     32  O   UNL     1      36.692 -25.643 -11.178  0.00  0.00    -0.441 OA
ATOM     33  C   UNL     1      37.538 -26.480 -11.975  0.00  0.00    +0.256 C 
ENDBRANCH  31  32
ENDBRANCH   7  31
TORSDOF 6
ENDMDL
MODEL 6
REMARK VINA RESULT:     -10.5      3.005      6.586
REMARK  Name = 6852141
REMARK  6 active torsions:
REMARK  status: ('A' for Active; 'I' for Inactive)
REMARK    1  A    between atoms: C_3  and  N_18
REMARK    2  A    between atoms: C_7  and  C_31
REMARK    3  A    between atoms: C_9  and  C_13
REMARK    4  A    between atoms: C_19  and  C_21
REMARK    5  A    between atoms: C_24  and  O_28
REMARK    6  A    between atoms: C_31  and  O_32
REMARK                            x       y       z     vdW  Elec       q    Type
REMARK                         _______ _______ _______ _____ _____    ______ ____
ROOT
ATOM      1  C   UNL     1      33.183 -23.220 -15.893  0.00  0.00    +0.014 C 
ATOM      2  C   UNL     1      32.347 -22.734 -16.926  0.00  0.00    +0.001 C 
ATOM      3  C   UNL     1      34.578 -23.123 -16.036  0.00  0.00    +0.051 C 
ATOM      4  C   UNL     1      32.602 -23.788 -14.749  0.00  0.00    +0.004 C 
ATOM      5  C   UNL     1      32.928 -22.165 -18.071  0.00  0.00    +0.007 C 
ATOM      6  C   UNL     1      35.138 -22.555 -17.181  0.00  0.00    +0.021 C 
ATOM      7  C   UNL     1      34.315 -22.077 -18.196  0.00  0.00    +0.077 C 
ATOM      8  C   UNL     1      30.953 -22.831 -16.784  0.00  0.00    +0.000 C 
ATOM      9  C   UNL     1      31.215 -23.876 -14.624  0.00  0.00    +0.031 C 
ATOM     10  C   UNL     1      30.392 -23.398 -15.639  0.00  0.00    +0.003 C 
ENDROOT
BRANCH   9  13
ATOM     11  N   UNL     1      29.711 -25.511 -13.516  0.00  0.00    -0.343 N 
ATOM     12  N   UNL     1      30.963 -24.009 -12.237  0.00  0.00    -0.285 NA
ATOM     13  C   UNL     1      30.629 -24.466 -13.431  0.00  0.00    +0.117 C 
ATOM     14  H   UNL     1      29.326 -25.897 -12.696  0.00  0.00    +0.144 HD
ATOM     15  H   UNL     1      29.447 -25.864 -14.397  0.00  0.00    +0.144 HD
ATOM     16  H   UNL     1      30.568 -24.407 -11.429  0.00  0.00    +0.188 HD
ENDBRANCH   9  13
BRANCH   3  18
ATOM     17  O   UNL     1      35.384 -25.920 -15.321  0.00  0.00    -0.270 OA
ATOM     18  N   UNL     1      35.455 -23.588 -15.049  0.00  0.00    -0.280 N 
ATOM     19  C   UNL     1      35.795 -24.912 -14.758  0.00  0.00    +0.249 C 
ATOM     20  H   UNL     1      35.883 -22.898 -14.492  0.00  0.00    +0.155 HD
BRANCH  19  21
ATOM     21  C   UNL     1      36.739 -25.088 -13.623  0.00  0.00    +0.053 C 
ATOM     22  C   UNL     1      36.346 -24.775 -12.338  0.00  0.00    +0.016 C 
ATOM     23  C   UNL     1      38.001 -25.571 -13.907  0.00  0.00    +0.004 C 
ATOM     24  C   UNL     1      37.252 -24.951 -11.293  0.00  0.00    +0.130 C 
ATOM     25  C   UNL     1      34.973 -24.254 -12.048  0.00  0.00    +0.034 C 
ATOM     26  C   UNL     1      38.908 -25.746 -12.861  0.00  0.00    +0.003 C 
ATOM     27  C   UNL     1      38.532 -25.437 -11.555  0.00  0.00    +0.036 C 
BRANCH  24  28
ATOM     28  O   UNL     1      36.904 -24.655 -10.009  0.00  0.00    -0.506 OA
ATOM     29  H   UNL     1      37.308 -25.111  -9.297  0.00  0.00    +0.292 HD
ENDBRANCH  24  28
ENDBRANCH  19  21
ENDBRANCH   3  18
BRANCH   7  31
ATOM     30  O   UNL     1      36.048 -21.719 -19.796  0.00  0.00    -0.245 OA
ATOM     31  C   UNL     1      34.902 -21.486 -19.389  0.00  0.00    +0.341 C 
BRANCH  31  32
ATOM     32  O   UNL     1      34.028 -20.635 -20.011  0.00  0.00    -0.441 OA
ATOM     33  C   UNL     1      34.570 -19.773 -21.017  0.00  0.00    +0.256 C 
ENDBRANCH  31  32
ENDBRANCH   7  31
TORSDOF 6
ENDMDL
MODEL 7
REMARK VINA RESULT:     -10.2      2.139      6.691
REMARK  Name = 6852141
REMARK  6 active torsions:
REMARK  status: ('A' for Active; 'I' for Inactive)
REMARK    1  A    between atoms: C_3  and  N_18
REMARK    2  A    between atoms: C_7  and  C_31
REMARK    3  A    between atoms: C_9  and  C_13
REMARK    4  A    between atoms: C_19  and  C_21
REMARK    5  A    between atoms: C_24  and  O_28
REMARK    6  A    between atoms: C_31  and  O_32
REMARK                            x       y       z     vdW  Elec       q    Type
REMARK                         _______ _______ _______ _____ _____    ______ ____
ROOT
ATOM      1  C   UNL     1      35.144 -22.631 -16.797  0.00  0.00    +0.014 C 
ATOM      2  C   UNL     1      36.111 -21.946 -17.570  0.00  0.00    +0.001 C 
ATOM      3  C   UNL     1      33.806 -22.642 -17.223  0.00  0.00    +0.051 C 
ATOM      4  C   UNL     1      35.544 -23.284 -15.620  0.00  0.00    +0.004 C 
ATOM      5  C   UNL     1      35.712 -21.292 -18.747  0.00  0.00    +0.007 C 
ATOM      6  C   UNL     1      33.428 -21.987 -18.396  0.00  0.00    +0.021 C 
ATOM      7  C   UNL     1      34.379 -21.313 -19.156  0.00  0.00    +0.077 C 
ATOM      8  C   UNL     1      37.449 -21.934 -17.144  0.00  0.00    +0.000 C 
ATOM      9  C   UNL     1      36.877 -23.263 -15.212  0.00  0.00    +0.031 C 
ATOM     10  C   UNL     1      37.829 -22.590 -15.972  0.00  0.00    +0.003 C 
ENDROOT
BRANCH   9  13
ATOM     11  N   UNL     1      36.331 -24.359 -13.051  0.00  0.00    -0.343 N 
ATOM     12  N   UNL     1      38.553 -24.183 -13.754  0.00  0.00    -0.285 NA
ATOM     13  C   UNL     1      37.274 -23.946 -13.991  0.00  0.00    +0.117 C 
ATOM     14  H   UNL     1      36.621 -24.820 -12.232  0.00  0.00    +0.144 HD
ATOM     15  H   UNL     1      35.373 -24.189 -13.209  0.00  0.00    +0.144 HD
ATOM     16  H   UNL     1      38.824 -24.644 -12.928  0.00  0.00    +0.188 HD
ENDBRANCH   9  13
BRANCH   3  18
ATOM     17  O   UNL     1      30.878 -22.047 -16.979  0.00  0.00    -0.270 OA
ATOM     18  N   UNL     1      32.805 -23.302 -16.499  0.00  0.00    -0.280 N 
ATOM     19  C   UNL     1      31.448 -22.978 -16.421  0.00  0.00    +0.249 C 
ATOM     20  H   UNL     1      33.094 -24.088 -15.981  0.00  0.00    +0.155 HD
BRANCH  19  21
ATOM     21  C   UNL     1      30.637 -23.857 -15.539  0.00  0.00    +0.053 C 
ATOM     22  C   UNL     1      31.003 -24.048 -14.222  0.00  0.00    +0.016 C 
ATOM     23  C   UNL     1      29.524 -24.464 -16.086  0.00  0.00    +0.004 C 
ATOM     24  C   UNL     1      30.223 -24.879 -13.418  0.00  0.00    +0.130 C 
ATOM     25  C   UNL     1      32.212 -23.382 -13.645  0.00  0.00    +0.034 C 
ATOM     26  C   UNL     1      28.744 -25.295 -15.282  0.00  0.00    +0.003 C 
ATOM     27  C   UNL     1      29.094 -25.501 -13.948  0.00  0.00    +0.036 C 
BRANCH  24  28
ATOM     28  O   UNL     1      30.548 -25.092 -12.111  0.00  0.00    -0.506 OA
ATOM     29  H   UNL     1      30.476 -24.394 -11.491  0.00  0.00    +0.292 HD
ENDBRANCH  24  28
ENDBRANCH  19  21
ENDBRANCH   3  18
BRANCH   7  31
ATOM     30  O   UNL     1      32.808 -20.482 -20.748  0.00  0.00    -0.245 OA
ATOM     31  C   UNL     1      33.981 -20.631 -20.378  0.00  0.00    +0.341 C 
BRANCH  31  32
ATOM     32  O   UNL     1      35.066 -20.170 -21.073  0.00  0.00    -0.441 OA
ATOM     33  C   UNL     1      34.801 -19.413 -22.259  0.00  0.00    +0.256 C 
ENDBRANCH  31  32
ENDBRANCH   7  31
TORSDOF 6
ENDMDL
MODEL 8
REMARK VINA RESULT:      -9.8      3.159      6.564
REMARK  Name = 6852141
REMARK  6 active torsions:
REMARK  status: ('A' for Active; 'I' for Inactive)
REMARK    1  A    between atoms: C_3  and  N_18
REMARK    2  A    between atoms: C_7  and  C_31
REMARK    3  A    between atoms: C_9  and  C_13
REMARK    4  A    between atoms: C_19  and  C_21
REMARK    5  A    between atoms: C_24  and  O_28
REMARK    6  A    between atoms: C_31  and  O_32
REMARK                            x       y       z     vdW  Elec       q    Type
REMARK                         _______ _______ _______ _____ _____    ______ ____
ROOT
ATOM      1  C   UNL     1      32.986 -23.403 -15.924  0.00  0.00    +0.014 C 
ATOM      2  C   UNL     1      32.190 -22.747 -16.892  0.00  0.00    +0.001 C 
ATOM      3  C   UNL     1      34.382 -23.418 -16.078  0.00  0.00    +0.051 C 
ATOM      4  C   UNL     1      32.363 -24.026 -14.830  0.00  0.00    +0.004 C 
ATOM      5  C   UNL     1      32.812 -22.124 -17.986  0.00  0.00    +0.007 C 
ATOM      6  C   UNL     1      34.983 -22.792 -17.171  0.00  0.00    +0.021 C 
ATOM      7  C   UNL     1      34.200 -22.147 -18.123  0.00  0.00    +0.077 C 
ATOM      8  C   UNL     1      30.794 -22.734 -16.738  0.00  0.00    +0.000 C 
ATOM      9  C   UNL     1      30.975 -24.002 -14.693  0.00  0.00    +0.031 C 
ATOM     10  C   UNL     1      30.192 -23.357 -15.645  0.00  0.00    +0.003 C 
ENDROOT
BRANCH   9  13
ATOM     11  N   UNL     1      29.307 -25.565 -13.722  0.00  0.00    -0.343 N 
ATOM     12  N   UNL     1      30.758 -24.376 -12.328  0.00  0.00    -0.285 NA
ATOM     13  C   UNL     1      30.347 -24.652 -13.554  0.00  0.00    +0.117 C 
ATOM     14  H   UNL     1      28.895 -25.993 -12.938  0.00  0.00    +0.144 HD
ATOM     15  H   UNL     1      28.984 -25.781 -14.628  0.00  0.00    +0.144 HD
ATOM     16  H   UNL     1      30.333 -24.814 -11.556  0.00  0.00    +0.188 HD
ENDBRANCH   9  13
BRANCH   3  18
ATOM     17  O   UNL     1      36.578 -22.302 -14.370  0.00  0.00    -0.270 OA
ATOM     18  N   UNL     1      35.221 -24.052 -15.153  0.00  0.00    -0.280 N 
ATOM     19  C   UNL     1      36.234 -23.478 -14.380  0.00  0.00    +0.249 C 
ATOM     20  H   UNL     1      35.080 -25.019 -15.034  0.00  0.00    +0.155 HD
BRANCH  19  21
ATOM     21  C   UNL     1      36.975 -24.424 -13.506  0.00  0.00    +0.053 C 
ATOM     22  C   UNL     1      38.229 -24.871 -13.871  0.00  0.00    +0.016 C 
ATOM     23  C   UNL     1      36.366 -24.828 -12.334  0.00  0.00    +0.004 C 
ATOM     24  C   UNL     1      38.901 -25.759 -13.031  0.00  0.00    +0.130 C 
ATOM     25  C   UNL     1      38.876 -24.424 -15.144  0.00  0.00    +0.034 C 
ATOM     26  C   UNL     1      37.038 -25.715 -11.494  0.00  0.00    +0.003 C 
ATOM     27  C   UNL     1      38.305 -26.180 -11.843  0.00  0.00    +0.036 C 
BRANCH  24  28
ATOM     28  O   UNL     1      40.141 -26.224 -13.353  0.00  0.00    -0.506 OA
ATOM     29  H   UNL     1      40.612 -25.843 -14.069  0.00  0.00    +0.292 HD
ENDBRANCH  24  28
ENDBRANCH  19  21
ENDBRANCH   3  18
BRANCH   7  31
ATOM     30  O   UNL     1      35.990 -21.711 -19.638  0.00  0.00    -0.245 OA
ATOM     31  C   UNL     1      34.830 -21.497 -19.262  0.00  0.00    +0.341 C 
BRANCH  31  32
ATOM     32  O   UNL     1      33.979 -20.615 -19.872  0.00  0.00    -0.441 OA
ATOM     33  C   UNL     1      34.527 -19.808 -20.919  0.00  0.00    +0.256 C 
ENDBRANCH  31  32
ENDBRANCH   7  31
TORSDOF 6
ENDMDL
MODEL 9
REMARK VINA RESULT:      -9.6      2.783      5.518
REMARK  Name = 6852141
REMARK  6 active torsions:
REMARK  status: ('A' for Active; 'I' for Inactive)
REMARK    1  A    between atoms: C_3  and  N_18
REMARK    2  A    between atoms: C_7  and  C_31
REMARK    3  A    between atoms: C_9  and  C_13
REMARK    4  A    between atoms: C_19  and  C_21
REMARK    5  A    between atoms: C_24  and  O_28
REMARK    6  A    between atoms: C_31  and  O_32
REMARK                            x       y       z     vdW  Elec       q    Type
REMARK                         _______ _______ _______ _____ _____    ______ ____
ROOT
ATOM      1  C   UNL     1      33.482 -23.475 -15.053  0.00  0.00    +0.014 C 
ATOM      2  C   UNL     1      33.560 -24.226 -13.857  0.00  0.00    +0.001 C 
ATOM      3  C   UNL     1      34.663 -23.172 -15.751  0.00  0.00    +0.051 C 
ATOM      4  C   UNL     1      32.227 -23.049 -15.516  0.00  0.00    +0.004 C 
ATOM      5  C   UNL     1      34.815 -24.653 -13.393  0.00  0.00    +0.007 C 
ATOM      6  C   UNL     1      35.901 -23.604 -15.276  0.00  0.00    +0.021 C 
ATOM      7  C   UNL     1      35.977 -24.343 -14.099  0.00  0.00    +0.077 C 
ATOM      8  C   UNL     1      32.379 -24.529 -13.158  0.00  0.00    +0.000 C 
ATOM      9  C   UNL     1      31.065 -23.359 -14.810  0.00  0.00    +0.031 C 
ATOM     10  C   UNL     1      31.141 -24.098 -13.634  0.00  0.00    +0.003 C 
ENDROOT
BRANCH   9  13
ATOM     11  N   UNL     1      29.391 -23.119 -16.629  0.00  0.00    -0.343 N 
ATOM     12  N   UNL     1      28.937 -22.287 -14.493  0.00  0.00    -0.285 NA
ATOM     13  C   UNL     1      29.773 -22.910 -15.305  0.00  0.00    +0.117 C 
ATOM     14  H   UNL     1      28.512 -22.807 -16.943  0.00  0.00    +0.144 HD
ATOM     15  H   UNL     1      30.002 -23.578 -17.250  0.00  0.00    +0.144 HD
ATOM     16  H   UNL     1      28.062 -21.983 -14.825  0.00  0.00    +0.188 HD
ENDBRANCH   9  13
BRANCH   3  18
ATOM     17  O   UNL     1      36.915 -22.355 -17.553  0.00  0.00    -0.270 OA
ATOM     18  N   UNL     1      34.649 -22.431 -16.940  0.00  0.00    -0.280 N 
ATOM     19  C   UNL     1      35.737 -22.078 -17.743  0.00  0.00    +0.249 C 
ATOM     20  H   UNL     1      33.766 -22.121 -17.245  0.00  0.00    +0.155 HD
BRANCH  19  21
ATOM     21  C   UNL     1      35.402 -21.255 -18.935  0.00  0.00    +0.053 C 
ATOM     22  C   UNL     1      34.099 -21.175 -19.380  0.00  0.00    +0.016 C 
ATOM     23  C   UNL     1      36.434 -20.588 -19.565  0.00  0.00    +0.004 C 
ATOM     24  C   UNL     1      33.814 -20.395 -20.501  0.00  0.00    +0.130 C 
ATOM     25  C   UNL     1      32.992 -21.904 -18.685  0.00  0.00    +0.034 C 
ATOM     26  C   UNL     1      36.150 -19.809 -20.686  0.00  0.00    +0.003 C 
ATOM     27  C   UNL     1      34.840 -19.713 -21.153  0.00  0.00    +0.036 C 
BRANCH  24  28
ATOM     28  O   UNL     1      32.540 -20.288 -20.972  0.00  0.00    -0.506 OA
ATOM     29  H   UNL     1      32.272 -19.513 -21.427  0.00  0.00    +0.292 HD
ENDBRANCH  24  28
ENDBRANCH  19  21
ENDBRANCH   3  18
BRANCH   7  31
ATOM     30  O   UNL     1      37.716 -25.938 -13.752  0.00  0.00    -0.245 OA
ATOM     31  C   UNL     1      37.270 -24.792 -13.605  0.00  0.00    +0.341 C 
BRANCH  31  32
ATOM     32  O   UNL     1      37.937 -23.789 -12.956  0.00  0.00    -0.441 OA
ATOM     33  C   UNL     1      37.948 -23.839 -11.526  0.00  0.00    +0.256 C 
ENDBRANCH  31  32
ENDBRANCH   7  31
TORSDOF 6
ENDMDL
