MODEL 1
REMARK VINA RESULT:     -12.7      0.000      0.000
REMARK  Name = 11560856
REMARK  5 active torsions:
REMARK  status: ('A' for Active; 'I' for Inactive)
REMARK    1  A    between atoms: C_2  and  O_24
REMARK    2  A    between atoms: C_3  and  N_10
REMARK    3  A    between atoms: C_12  and  C_16
REMARK    4  A    between atoms: C_16  and  C_18
REMARK    5  A    between atoms: O_24  and  C_28
REMARK                            x       y       z     vdW  Elec       q    Type
REMARK                         _______ _______ _______ _____ _____    ______ ____
ROOT
ATOM      1  F   UNL     1      33.892 -11.626 -24.023  0.00  0.00    -0.201 F 
ATOM      2  C   UNL     1      32.520 -11.829 -22.099  0.00  0.00    +0.173 C 
ATOM      3  C   UNL     1      33.840 -14.168 -21.424  0.00  0.00    +0.054 C 
ATOM      4  C   UNL     1      33.539 -12.291 -22.915  0.00  0.00    +0.176 C 
ATOM      5  C   UNL     1      32.146 -12.510 -20.953  0.00  0.00    +0.041 C 
ATOM      6  C   UNL     1      34.204 -13.469 -22.574  0.00  0.00    +0.047 C 
ATOM      7  C   UNL     1      32.811 -13.688 -20.613  0.00  0.00    +0.018 C 
ENDROOT
BRANCH   3  10
ATOM      8  O   UNL     1      36.196 -18.838 -22.920  0.00  0.00    -0.274 OA
ATOM      9  O   UNL     1      34.861 -16.395 -23.158  0.00  0.00    -0.252 OA
ATOM     10  N   UNL     1      34.506 -15.345 -21.082  0.00  0.00    -0.268 N 
ATOM     11  N   UNL     1      35.594 -17.390 -21.192  0.00  0.00    -0.239 N 
ATOM     12  C   UNL     1      36.162 -18.550 -21.726  0.00  0.00    +0.234 C 
ATOM     13  C   UNL     1      34.970 -16.369 -21.935  0.00  0.00    +0.310 C 
ATOM     14  H   UNL     1      34.674 -15.479 -20.122  0.00  0.00    +0.156 HD
ATOM     15  H   UNL     1      35.632 -17.278 -20.215  0.00  0.00    +0.159 HD
BRANCH  12  16
ATOM     16  C   UNL     1      36.743 -19.430 -20.636  0.00  0.00    +0.112 C 
BRANCH  16  18
ATOM     17  F   UNL     1      32.929 -22.749 -18.181  0.00  0.00    -0.204 F 
ATOM     18  C   UNL     1      35.721 -20.319 -19.977  0.00  0.00    -0.013 C 
ATOM     19  C   UNL     1      34.378 -20.165 -20.292  0.00  0.00    -0.001 C 
ATOM     20  C   UNL     1      36.137 -21.279 -19.067  0.00  0.00    -0.001 C 
ATOM     21  C   UNL     1      33.432 -20.989 -19.682  0.00  0.00    +0.029 C 
ATOM     22  C   UNL     1      35.191 -22.103 -18.457  0.00  0.00    +0.029 C 
ATOM     23  C   UNL     1      33.839 -21.958 -18.765  0.00  0.00    +0.140 C 
ENDBRANCH  16  18
ENDBRANCH  12  16
ENDBRANCH   3  10
BRANCH   2  24
ATOM     24  O   UNL     1      31.862 -10.662 -22.435  0.00  0.00    -0.451 OA
BRANCH  24  28
ATOM     25  N   UNL     1      34.229  -6.654 -22.547  0.00  0.00    -0.297 N 
ATOM     26  N   UNL     1      33.074  -7.119 -20.484  0.00  0.00    -0.229 NA
ATOM     27  C   UNL     1      33.085  -8.570 -22.460  0.00  0.00    +0.067 C 
ATOM     28  C   UNL     1      32.263  -9.511 -21.818  0.00  0.00    +0.150 C 
ATOM     29  C   UNL     1      33.435  -7.429 -21.743  0.00  0.00    +0.135 C 
ATOM     30  C   UNL     1      33.698  -8.458 -23.736  0.00  0.00    +0.022 C 
ATOM     31  C   UNL     1      34.395  -7.269 -23.760  0.00  0.00    +0.063 C 
ATOM     32  C   UNL     1      31.859  -9.238 -20.512  0.00  0.00    +0.058 C 
ATOM     33  C   UNL     1      32.285  -8.059 -19.914  0.00  0.00    +0.103 C 
ATOM     34  H   UNL     1      34.620  -5.787 -22.291  0.00  0.00    +0.154 HD
ENDBRANCH  24  28
ENDBRANCH   2  24
TORSDOF 5
ENDMDL
MODEL 2
REMARK VINA RESULT:     -12.7      0.872      2.191
REMARK  Name = 11560856
REMARK  5 active torsions:
REMARK  status: ('A' for Active; 'I' for Inactive)
REMARK    1  A    between atoms: C_2  and  O_24
REMARK    2  A    between atoms: C_3  and  N_10
REMARK    3  A    between atoms: C_12  and  C_16
REMARK    4  A    between atoms: C_16  and  C_18
REMARK    5  A    between atoms: O_24  and  C_28
REMARK                            x       y       z     vdW  Elec       q    Type
REMARK                         _______ _______ _______ _____ _____    ______ ____
ROOT
ATOM      1  F   UNL     1      31.261 -11.887 -20.610  0.00  0.00    -0.201 F 
ATOM      2  C   UNL     1      32.686 -11.742 -22.501  0.00  0.00    +0.173 C 
ATOM      3  C   UNL     1      33.925 -14.095 -21.729  0.00  0.00    +0.054 C 
ATOM      4  C   UNL     1      32.260 -12.386 -21.351  0.00  0.00    +0.176 C 
ATOM      5  C   UNL     1      33.719 -12.248 -23.273  0.00  0.00    +0.041 C 
ATOM      6  C   UNL     1      32.883 -13.572 -20.964  0.00  0.00    +0.047 C 
ATOM      7  C   UNL     1      34.342 -13.433 -22.884  0.00  0.00    +0.018 C 
ENDROOT
BRANCH   3  10
ATOM      8  O   UNL     1      35.953 -18.977 -23.016  0.00  0.00    -0.274 OA
ATOM      9  O   UNL     1      34.735 -16.486 -23.355  0.00  0.00    -0.252 OA
ATOM     10  N   UNL     1      34.548 -15.282 -21.341  0.00  0.00    -0.268 N 
ATOM     11  N   UNL     1      35.521 -17.387 -21.364  0.00  0.00    -0.239 N 
ATOM     12  C   UNL     1      35.999 -18.609 -21.845  0.00  0.00    +0.234 C 
ATOM     13  C   UNL     1      34.911 -16.384 -22.144  0.00  0.00    +0.310 C 
ATOM     14  H   UNL     1      34.761 -15.361 -20.384  0.00  0.00    +0.156 HD
ATOM     15  H   UNL     1      35.618 -17.212 -20.400  0.00  0.00    +0.159 HD
BRANCH  12  16
ATOM     16  C   UNL     1      36.593 -19.445 -20.727  0.00  0.00    +0.112 C 
BRANCH  16  18
ATOM     17  F   UNL     1      32.822 -22.720 -18.148  0.00  0.00    -0.204 F 
ATOM     18  C   UNL     1      35.583 -20.324 -20.037  0.00  0.00    -0.013 C 
ATOM     19  C   UNL     1      36.016 -21.286 -19.136  0.00  0.00    -0.001 C 
ATOM     20  C   UNL     1      34.233 -20.157 -20.312  0.00  0.00    -0.001 C 
ATOM     21  C   UNL     1      35.080 -22.099 -18.496  0.00  0.00    +0.029 C 
ATOM     22  C   UNL     1      33.297 -20.970 -19.672  0.00  0.00    +0.029 C 
ATOM     23  C   UNL     1      33.720 -21.939 -18.764  0.00  0.00    +0.140 C 
ENDBRANCH  16  18
ENDBRANCH  12  16
ENDBRANCH   3  10
BRANCH   2  24
ATOM     24  O   UNL     1      32.068 -10.568 -22.886  0.00  0.00    -0.451 OA
BRANCH  24  28
ATOM     25  N   UNL     1      33.113  -6.914 -20.197  0.00  0.00    -0.297 N 
ATOM     26  N   UNL     1      34.208  -6.969 -22.342  0.00  0.00    -0.229 NA
ATOM     27  C   UNL     1      32.633  -8.654 -21.511  0.00  0.00    +0.067 C 
ATOM     28  C   UNL     1      32.753  -9.402 -22.694  0.00  0.00    +0.150 C 
ATOM     29  C   UNL     1      33.376  -7.480 -21.417  0.00  0.00    +0.135 C 
ATOM     30  C   UNL     1      31.906  -8.781 -20.298  0.00  0.00    +0.022 C 
ATOM     31  C   UNL     1      32.223  -7.696 -19.508  0.00  0.00    +0.063 C 
ATOM     32  C   UNL     1      33.604  -8.917 -23.686  0.00  0.00    +0.058 C 
ATOM     33  C   UNL     1      34.285  -7.728 -23.460  0.00  0.00    +0.103 C 
ATOM     34  H   UNL     1      33.506  -6.074 -19.865  0.00  0.00    +0.154 HD
ENDBRANCH  24  28
ENDBRANCH   2  24
TORSDOF 5
ENDMDL
MODEL 3
REMARK VINA RESULT:     -12.6      4.145     11.316
REMARK  Name = 11560856
REMARK  5 active torsions:
REMARK  status: ('A' for Active; 'I' for Inactive)
REMARK    1  A    between atoms: C_2  and  O_24
REMARK    2  A    between atoms: C_3  and  N_10
REMARK    3  A    between atoms: C_12  and  C_16
REMARK    4  A    between atoms: C_16  and  C_18
REMARK    5  A    between atoms: O_24  and  C_28
REMARK                            x       y       z     vdW  Elec       q    Type
REMARK                         _______ _______ _______ _____ _____    ______ ____
ROOT
ATOM      1  F   UNL     1      36.741 -22.340 -18.418  0.00  0.00    -0.201 F 
ATOM      2  C   UNL     1      34.393 -22.335 -18.751  0.00  0.00    +0.173 C 
ATOM      3  C   UNL     1      34.624 -20.011 -20.239  0.00  0.00    +0.054 C 
ATOM      4  C   UNL     1      35.645 -21.775 -18.943  0.00  0.00    +0.176 C 
ATOM      5  C   UNL     1      33.253 -21.759 -19.287  0.00  0.00    +0.041 C 
ATOM      6  C   UNL     1      35.761 -20.605 -19.693  0.00  0.00    +0.047 C 
ATOM      7  C   UNL     1      33.370 -20.588 -20.036  0.00  0.00    +0.018 C 
ENDROOT
BRANCH   3  10
ATOM      8  O   UNL     1      34.569 -17.500 -25.065  0.00  0.00    -0.274 OA
ATOM      9  O   UNL     1      34.411 -19.575 -23.202  0.00  0.00    -0.252 OA
ATOM     10  N   UNL     1      34.740 -18.841 -20.990  0.00  0.00    -0.268 N 
ATOM     11  N   UNL     1      34.815 -17.333 -22.751  0.00  0.00    -0.239 N 
ATOM     12  C   UNL     1      34.772 -16.831 -24.054  0.00  0.00    +0.234 C 
ATOM     13  C   UNL     1      34.633 -18.683 -22.388  0.00  0.00    +0.310 C 
ATOM     14  H   UNL     1      34.922 -18.020 -20.479  0.00  0.00    +0.156 HD
ATOM     15  H   UNL     1      34.988 -16.691 -22.025  0.00  0.00    +0.159 HD
BRANCH  12  16
ATOM     16  C   UNL     1      35.012 -15.334 -24.075  0.00  0.00    +0.112 C 
BRANCH  16  18
ATOM     17  F   UNL     1      32.094 -12.551 -20.159  0.00  0.00    -0.204 F 
ATOM     18  C   UNL     1      34.229 -14.589 -23.026  0.00  0.00    -0.013 C 
ATOM     19  C   UNL     1      34.548 -14.761 -21.686  0.00  0.00    -0.001 C 
ATOM     20  C   UNL     1      33.203 -13.741 -23.414  0.00  0.00    -0.001 C 
ATOM     21  C   UNL     1      33.823 -14.070 -20.714  0.00  0.00    +0.029 C 
ATOM     22  C   UNL     1      32.478 -13.050 -22.442  0.00  0.00    +0.029 C 
ATOM     23  C   UNL     1      32.789 -13.214 -21.093  0.00  0.00    +0.140 C 
ENDBRANCH  16  18
ENDBRANCH  12  16
ENDBRANCH   3  10
BRANCH   2  24
ATOM     24  O   UNL     1      34.277 -23.495 -18.010  0.00  0.00    -0.451 OA
BRANCH  24  28
ATOM     25  N   UNL     1      34.896 -23.195 -13.405  0.00  0.00    -0.297 N 
ATOM     26  N   UNL     1      32.604 -23.171 -14.146  0.00  0.00    -0.229 NA
ATOM     27  C   UNL     1      34.565 -23.338 -15.608  0.00  0.00    +0.067 C 
ATOM     28  C   UNL     1      33.752 -23.390 -16.752  0.00  0.00    +0.150 C 
ATOM     29  C   UNL     1      33.929 -23.230 -14.375  0.00  0.00    +0.135 C 
ATOM     30  C   UNL     1      35.961 -23.367 -15.351  0.00  0.00    +0.022 C 
ATOM     31  C   UNL     1      36.134 -23.277 -13.986  0.00  0.00    +0.063 C 
ATOM     32  C   UNL     1      32.371 -23.332 -16.572  0.00  0.00    +0.058 C 
ATOM     33  C   UNL     1      31.870 -23.227 -15.281  0.00  0.00    +0.103 C 
ATOM     34  H   UNL     1      34.727 -23.121 -12.437  0.00  0.00    +0.154 HD
ENDBRANCH  24  28
ENDBRANCH   2  24
TORSDOF 5
ENDMDL
MODEL 4
REMARK VINA RESULT:     -12.4      1.727      2.241
REMARK  Name = 11560856
REMARK  5 active torsions:
REMARK  status: ('A' for Active; 'I' for Inactive)
REMARK    1  A    between atoms: C_2  and  O_24
REMARK    2  A    between atoms: C_3  and  N_10
REMARK    3  A    between atoms: C_12  and  C_16
REMARK    4  A    between atoms: C_16  and  C_18
REMARK    5  A    between atoms: O_24  and  C_28
REMARK                            x       y       z     vdW  Elec       q    Type
REMARK                         _______ _______ _______ _____ _____    ______ ____
ROOT
ATOM      1  F   UNL     1      30.562 -11.360 -20.778  0.00  0.00    -0.201 F 
ATOM      2  C   UNL     1      32.031 -10.640 -22.495  0.00  0.00    +0.173 C 
ATOM      3  C   UNL     1      33.499 -12.968 -22.195  0.00  0.00    +0.054 C 
ATOM      4  C   UNL     1      31.638 -11.571 -21.548  0.00  0.00    +0.176 C 
ATOM      5  C   UNL     1      33.142 -10.847 -23.295  0.00  0.00    +0.041 C 
ATOM      6  C   UNL     1      32.376 -12.744 -21.398  0.00  0.00    +0.047 C 
ATOM      7  C   UNL     1      33.881 -12.020 -23.144  0.00  0.00    +0.018 C 
ENDROOT
BRANCH   3  10
ATOM      8  O   UNL     1      34.833 -17.938 -23.963  0.00  0.00    -0.274 OA
ATOM      9  O   UNL     1      33.565 -15.450 -23.884  0.00  0.00    -0.252 OA
ATOM     10  N   UNL     1      34.236 -14.143 -22.045  0.00  0.00    -0.268 N 
ATOM     11  N   UNL     1      35.127 -16.260 -22.368  0.00  0.00    -0.239 N 
ATOM     12  C   UNL     1      35.367 -17.512 -22.941  0.00  0.00    +0.234 C 
ATOM     13  C   UNL     1      34.236 -15.290 -22.868  0.00  0.00    +0.310 C 
ATOM     14  H   UNL     1      34.835 -14.177 -21.265  0.00  0.00    +0.156 HD
ATOM     15  H   UNL     1      35.620 -16.039 -21.546  0.00  0.00    +0.159 HD
BRANCH  12  16
ATOM     16  C   UNL     1      36.384 -18.299 -22.138  0.00  0.00    +0.112 C 
BRANCH  16  18
ATOM     17  F   UNL     1      34.052 -21.981 -18.588  0.00  0.00    -0.204 F 
ATOM     18  C   UNL     1      35.759 -19.287 -21.187  0.00  0.00    -0.013 C 
ATOM     19  C   UNL     1      36.567 -19.990 -20.304  0.00  0.00    -0.001 C 
ATOM     20  C   UNL     1      34.386 -19.478 -21.207  0.00  0.00    -0.001 C 
ATOM     21  C   UNL     1      35.988 -20.904 -19.424  0.00  0.00    +0.029 C 
ATOM     22  C   UNL     1      33.807 -20.392 -20.327  0.00  0.00    +0.029 C 
ATOM     23  C   UNL     1      34.607 -21.104 -19.435  0.00  0.00    +0.140 C 
ENDBRANCH  16  18
ENDBRANCH  12  16
ENDBRANCH   3  10
BRANCH   2  24
ATOM     24  O   UNL     1      31.299  -9.478 -22.645  0.00  0.00    -0.451 OA
BRANCH  24  28
ATOM     25  N   UNL     1      32.196  -4.909 -22.636  0.00  0.00    -0.297 N 
ATOM     26  N   UNL     1      32.679  -6.064 -20.577  0.00  0.00    -0.229 NA
ATOM     27  C   UNL     1      31.778  -7.102 -22.607  0.00  0.00    +0.067 C 
ATOM     28  C   UNL     1      31.743  -8.363 -21.990  0.00  0.00    +0.150 C 
ATOM     29  C   UNL     1      32.246  -6.031 -21.851  0.00  0.00    +0.135 C 
ATOM     30  C   UNL     1      31.439  -6.587 -23.886  0.00  0.00    +0.022 C 
ATOM     31  C   UNL     1      31.707  -5.234 -23.874  0.00  0.00    +0.063 C 
ATOM     32  C   UNL     1      32.179  -8.453 -20.669  0.00  0.00    +0.058 C 
ATOM     33  C   UNL     1      32.625  -7.301 -20.033  0.00  0.00    +0.103 C 
ATOM     34  H   UNL     1      32.469  -4.006 -22.352  0.00  0.00    +0.154 HD
ENDBRANCH  24  28
ENDBRANCH   2  24
TORSDOF 5
ENDMDL
MODEL 5
REMARK VINA RESULT:     -12.2      2.880     11.246
REMARK  Name = 11560856
REMARK  5 active torsions:
REMARK  status: ('A' for Active; 'I' for Inactive)
REMARK    1  A    between atoms: C_2  and  O_24
REMARK    2  A    between atoms: C_3  and  N_10
REMARK    3  A    between atoms: C_12  and  C_16
REMARK    4  A    between atoms: C_16  and  C_18
REMARK    5  A    between atoms: O_24  and  C_28
REMARK                            x       y       z     vdW  Elec       q    Type
REMARK                         _______ _______ _______ _____ _____    ______ ____
ROOT
ATOM      1  F   UNL     1      34.740 -19.267 -24.065  0.00  0.00    -0.201 F 
ATOM      2  C   UNL     1      35.342 -18.455 -21.919  0.00  0.00    +0.173 C 
ATOM      3  C   UNL     1      34.788 -15.875 -22.757  0.00  0.00    +0.054 C 
ATOM      4  C   UNL     1      34.900 -18.244 -23.215  0.00  0.00    +0.176 C 
ATOM      5  C   UNL     1      35.513 -17.404 -21.033  0.00  0.00    +0.041 C 
ATOM      6  C   UNL     1      34.620 -16.944 -23.636  0.00  0.00    +0.047 C 
ATOM      7  C   UNL     1      35.234 -16.105 -21.456  0.00  0.00    +0.018 C 
ENDROOT
BRANCH   3  10
ATOM      8  O   UNL     1      32.182 -11.156 -22.022  0.00  0.00    -0.274 OA
ATOM      9  O   UNL     1      33.012 -13.780 -21.544  0.00  0.00    -0.252 OA
ATOM     10  N   UNL     1      34.506 -14.575 -23.179  0.00  0.00    -0.268 N 
ATOM     11  N   UNL     1      33.650 -12.424 -23.318  0.00  0.00    -0.239 N 
ATOM     12  C   UNL     1      32.918 -11.277 -22.998  0.00  0.00    +0.234 C 
ATOM     13  C   UNL     1      33.661 -13.621 -22.574  0.00  0.00    +0.310 C 
ATOM     14  H   UNL     1      34.955 -14.286 -24.005  0.00  0.00    +0.156 HD
ATOM     15  H   UNL     1      34.204 -12.393 -24.131  0.00  0.00    +0.159 HD
BRANCH  12  16
ATOM     16  C   UNL     1      33.143 -10.178 -24.019  0.00  0.00    +0.112 C 
BRANCH  16  18
ATOM     17  F   UNL     1      32.733  -5.006 -21.857  0.00  0.00    -0.204 F 
ATOM     18  C   UNL     1      33.033  -8.793 -23.439  0.00  0.00    -0.013 C 
ATOM     19  C   UNL     1      34.178  -8.144 -22.999  0.00  0.00    -0.001 C 
ATOM     20  C   UNL     1      31.789  -8.185 -23.354  0.00  0.00    -0.001 C 
ATOM     21  C   UNL     1      34.076  -6.860 -22.462  0.00  0.00    +0.029 C 
ATOM     22  C   UNL     1      31.687  -6.901 -22.817  0.00  0.00    +0.029 C 
ATOM     23  C   UNL     1      32.830  -6.239 -22.372  0.00  0.00    +0.140 C 
ENDBRANCH  16  18
ENDBRANCH  12  16
ENDBRANCH   3  10
BRANCH   2  24
ATOM     24  O   UNL     1      35.619 -19.742 -21.501  0.00  0.00    -0.451 OA
BRANCH  24  28
ATOM     25  N   UNL     1      34.828 -22.247 -17.656  0.00  0.00    -0.297 N 
ATOM     26  N   UNL     1      32.861 -21.529 -18.849  0.00  0.00    -0.229 NA
ATOM     27  C   UNL     1      35.173 -21.044 -19.506  0.00  0.00    +0.067 C 
ATOM     28  C   UNL     1      34.739 -20.326 -20.633  0.00  0.00    +0.150 C 
ATOM     29  C   UNL     1      34.195 -21.599 -18.685  0.00  0.00    +0.135 C 
ATOM     30  C   UNL     1      36.429 -21.380 -18.935  0.00  0.00    +0.022 C 
ATOM     31  C   UNL     1      36.184 -22.120 -17.798  0.00  0.00    +0.063 C 
ATOM     32  C   UNL     1      33.366 -20.222 -20.850  0.00  0.00    +0.058 C 
ATOM     33  C   UNL     1      32.500 -20.828 -19.949  0.00  0.00    +0.103 C 
ATOM     34  H   UNL     1      34.375 -22.729 -16.927  0.00  0.00    +0.154 HD
ENDBRANCH  24  28
ENDBRANCH   2  24
TORSDOF 5
ENDMDL
MODEL 6
REMARK VINA RESULT:     -12.1      5.370      9.130
REMARK  Name = 11560856
REMARK  5 active torsions:
REMARK  status: ('A' for Active; 'I' for Inactive)
REMARK    1  A    between atoms: C_2  and  O_24
REMARK    2  A    between atoms: C_3  and  N_10
REMARK    3  A    between atoms: C_12  and  C_16
REMARK    4  A    between atoms: C_16  and  C_18
REMARK    5  A    between atoms: O_24  and  C_28
REMARK                            x       y       z     vdW  Elec       q    Type
REMARK                         _______ _______ _______ _____ _____    ______ ____
ROOT
ATOM      1  F   UNL     1      36.976 -21.171 -19.823  0.00  0.00    -0.201 F 
ATOM      2  C   UNL     1      35.005 -20.134 -20.641  0.00  0.00    +0.173 C 
ATOM      3  C   UNL     1      33.499 -21.629 -18.863  0.00  0.00    +0.054 C 
ATOM      4  C   UNL     1      35.644 -21.024 -19.793  0.00  0.00    +0.176 C 
ATOM      5  C   UNL     1      33.630 -19.975 -20.620  0.00  0.00    +0.041 C 
ATOM      6  C   UNL     1      34.885 -21.776 -18.897  0.00  0.00    +0.047 C 
ATOM      7  C   UNL     1      32.871 -20.728 -19.724  0.00  0.00    +0.018 C 
ENDROOT
BRANCH   3  10
ATOM      8  O   UNL     1      33.118 -24.388 -14.190  0.00  0.00    -0.274 OA
ATOM      9  O   UNL     1      34.259 -22.865 -16.235  0.00  0.00    -0.252 OA
ATOM     10  N   UNL     1      32.740 -22.381 -17.966  0.00  0.00    -0.268 N 
ATOM     11  N   UNL     1      32.069 -23.631 -16.131  0.00  0.00    -0.239 N 
ATOM     12  C   UNL     1      32.125 -24.304 -14.908  0.00  0.00    +0.234 C 
ATOM     13  C   UNL     1      33.141 -22.944 -16.736  0.00  0.00    +0.310 C 
ATOM     14  H   UNL     1      31.804 -22.538 -18.223  0.00  0.00    +0.156 HD
ATOM     15  H   UNL     1      31.210 -23.639 -16.611  0.00  0.00    +0.159 HD
BRANCH  12  16
ATOM     16  C   UNL     1      30.788 -24.932 -14.563  0.00  0.00    +0.112 C 
BRANCH  16  18
ATOM     17  F   UNL     1      26.393 -21.951 -16.406  0.00  0.00    -0.204 F 
ATOM     18  C   UNL     1      29.609 -24.133 -15.056  0.00  0.00    -0.013 C 
ATOM     19  C   UNL     1      29.275 -22.945 -14.422  0.00  0.00    -0.001 C 
ATOM     20  C   UNL     1      28.876 -24.597 -16.139  0.00  0.00    -0.001 C 
ATOM     21  C   UNL     1      28.184 -22.206 -14.879  0.00  0.00    +0.029 C 
ATOM     22  C   UNL     1      27.785 -23.858 -16.596  0.00  0.00    +0.029 C 
ATOM     23  C   UNL     1      27.440 -22.662 -15.967  0.00  0.00    +0.140 C 
ENDBRANCH  16  18
ENDBRANCH  12  16
ENDBRANCH   3  10
BRANCH   2  24
ATOM     24  O   UNL     1      35.757 -19.388 -21.528  0.00  0.00    -0.451 OA
BRANCH  24  28
ATOM     25  N   UNL     1      34.212 -15.720 -23.944  0.00  0.00    -0.297 N 
ATOM     26  N   UNL     1      33.779 -17.872 -24.937  0.00  0.00    -0.229 NA
ATOM     27  C   UNL     1      34.940 -17.500 -22.810  0.00  0.00    +0.067 C 
ATOM     28  C   UNL     1      35.119 -18.881 -22.625  0.00  0.00    +0.150 C 
ATOM     29  C   UNL     1      34.278 -17.088 -23.963  0.00  0.00    +0.135 C 
ATOM     30  C   UNL     1      35.276 -16.326 -22.086  0.00  0.00    +0.022 C 
ATOM     31  C   UNL     1      34.816 -15.245 -22.809  0.00  0.00    +0.063 C 
ATOM     32  C   UNL     1      34.622 -19.738 -23.606  0.00  0.00    +0.058 C 
ATOM     33  C   UNL     1      33.979 -19.190 -24.708  0.00  0.00    +0.103 C 
ATOM     34  H   UNL     1      33.795 -15.162 -24.641  0.00  0.00    +0.154 HD
ENDBRANCH  24  28
ENDBRANCH   2  24
TORSDOF 5
ENDMDL
MODEL 7
REMARK VINA RESULT:     -11.9      5.241     12.883
REMARK  Name = 11560856
REMARK  5 active torsions:
REMARK  status: ('A' for Active; 'I' for Inactive)
REMARK    1  A    between atoms: C_2  and  O_24
REMARK    2  A    between atoms: C_3  and  N_10
REMARK    3  A    between atoms: C_12  and  C_16
REMARK    4  A    between atoms: C_16  and  C_18
REMARK    5  A    between atoms: O_24  and  C_28
REMARK                            x       y       z     vdW  Elec       q    Type
REMARK                         _______ _______ _______ _____ _____    ______ ____
ROOT
ATOM      1  F   UNL     1      32.248 -23.967 -16.295  0.00  0.00    -0.201 F 
ATOM      2  C   UNL     1      34.520 -23.412 -15.900  0.00  0.00    +0.173 C 
ATOM      3  C   UNL     1      34.569 -21.987 -18.273  0.00  0.00    +0.054 C 
ATOM      4  C   UNL     1      33.374 -23.349 -16.676  0.00  0.00    +0.176 C 
ATOM      5  C   UNL     1      35.689 -22.779 -16.284  0.00  0.00    +0.041 C 
ATOM      6  C   UNL     1      33.399 -22.630 -17.871  0.00  0.00    +0.047 C 
ATOM      7  C   UNL     1      35.714 -22.061 -17.480  0.00  0.00    +0.018 C 
ENDROOT
BRANCH   3  10
ATOM      8  O   UNL     1      37.131 -18.586 -21.661  0.00  0.00    -0.274 OA
ATOM      9  O   UNL     1      36.675 -20.170 -19.405  0.00  0.00    -0.252 OA
ATOM     10  N   UNL     1      34.593 -21.267 -19.468  0.00  0.00    -0.268 N 
ATOM     11  N   UNL     1      35.243 -19.882 -21.211  0.00  0.00    -0.239 N 
ATOM     12  C   UNL     1      36.020 -19.006 -21.975  0.00  0.00    +0.234 C 
ATOM     13  C   UNL     1      35.609 -20.421 -19.962  0.00  0.00    +0.310 C 
ATOM     14  H   UNL     1      33.799 -21.360 -20.041  0.00  0.00    +0.156 HD
ATOM     15  H   UNL     1      34.367 -20.143 -21.576  0.00  0.00    +0.159 HD
BRANCH  12  16
ATOM     16  C   UNL     1      35.315 -18.627 -23.264  0.00  0.00    +0.112 C 
BRANCH  16  18
ATOM     17  F   UNL     1      33.601 -13.275 -23.374  0.00  0.00    -0.204 F 
ATOM     18  C   UNL     1      34.857 -17.193 -23.294  0.00  0.00    -0.013 C 
ATOM     19  C   UNL     1      34.281 -16.684 -24.449  0.00  0.00    -0.001 C 
ATOM     20  C   UNL     1      35.015 -16.402 -22.165  0.00  0.00    -0.001 C 
ATOM     21  C   UNL     1      33.856 -15.355 -24.477  0.00  0.00    +0.029 C 
ATOM     22  C   UNL     1      34.590 -15.074 -22.192  0.00  0.00    +0.029 C 
ATOM     23  C   UNL     1      34.010 -14.551 -23.347  0.00  0.00    +0.140 C 
ENDBRANCH  16  18
ENDBRANCH  12  16
ENDBRANCH   3  10
BRANCH   2  24
ATOM     24  O   UNL     1      34.495 -24.123 -14.716  0.00  0.00    -0.451 OA
BRANCH  24  28
ATOM     25  N   UNL     1      38.239 -24.532 -11.978  0.00  0.00    -0.297 N 
ATOM     26  N   UNL     1      37.990 -26.242 -13.657  0.00  0.00    -0.229 NA
ATOM     27  C   UNL     1      36.454 -24.364 -13.309  0.00  0.00    +0.067 C 
ATOM     28  C   UNL     1      35.629 -24.797 -14.360  0.00  0.00    +0.150 C 
ATOM     29  C   UNL     1      37.585 -25.124 -13.027  0.00  0.00    +0.135 C 
ATOM     30  C   UNL     1      36.443 -23.283 -12.387  0.00  0.00    +0.022 C 
ATOM     31  C   UNL     1      37.554 -23.413 -11.581  0.00  0.00    +0.063 C 
ATOM     32  C   UNL     1      36.003 -25.952 -15.046  0.00  0.00    +0.058 C 
ATOM     33  C   UNL     1      37.162 -26.612 -14.660  0.00  0.00    +0.103 C 
ATOM     34  H   UNL     1      39.074 -24.861 -11.572  0.00  0.00    +0.154 HD
ENDBRANCH  24  28
ENDBRANCH   2  24
TORSDOF 5
ENDMDL
MODEL 8
REMARK VINA RESULT:     -11.6      1.291      2.138
REMARK  Name = 11560856
REMARK  5 active torsions:
REMARK  status: ('A' for Active; 'I' for Inactive)
REMARK    1  A    between atoms: C_2  and  O_24
REMARK    2  A    between atoms: C_3  and  N_10
REMARK    3  A    between atoms: C_12  and  C_16
REMARK    4  A    between atoms: C_16  and  C_18
REMARK    5  A    between atoms: O_24  and  C_28
REMARK                            x       y       z     vdW  Elec       q    Type
REMARK                         _______ _______ _______ _____ _____    ______ ____
ROOT
ATOM      1  F   UNL     1      34.061 -11.140 -25.708  0.00  0.00    -0.201 F 
ATOM      2  C   UNL     1      32.870 -11.107 -23.657  0.00  0.00    +0.173 C 
ATOM      3  C   UNL     1      33.644 -13.723 -23.183  0.00  0.00    +0.054 C 
ATOM      4  C   UNL     1      33.665 -11.757 -24.587  0.00  0.00    +0.176 C 
ATOM      5  C   UNL     1      32.454 -11.736 -22.496  0.00  0.00    +0.041 C 
ATOM      6  C   UNL     1      34.055 -13.074 -24.347  0.00  0.00    +0.047 C 
ATOM      7  C   UNL     1      32.844 -13.054 -22.257  0.00  0.00    +0.018 C 
ENDROOT
BRANCH   3  10
ATOM      8  O   UNL     1      35.945 -17.424 -19.925  0.00  0.00    -0.274 OA
ATOM      9  O   UNL     1      35.008 -14.942 -20.802  0.00  0.00    -0.252 OA
ATOM     10  N   UNL     1      34.036 -15.041 -22.943  0.00  0.00    -0.268 N 
ATOM     11  N   UNL     1      34.900 -16.954 -21.958  0.00  0.00    -0.239 N 
ATOM     12  C   UNL     1      35.515 -17.785 -21.017  0.00  0.00    +0.234 C 
ATOM     13  C   UNL     1      34.678 -15.571 -21.804  0.00  0.00    +0.310 C 
ATOM     14  H   UNL     1      33.840 -15.683 -23.662  0.00  0.00    +0.156 HD
ATOM     15  H   UNL     1      34.599 -17.369 -22.798  0.00  0.00    +0.159 HD
BRANCH  12  16
ATOM     16  C   UNL     1      35.590 -19.217 -21.514  0.00  0.00    +0.112 C 
BRANCH  16  18
ATOM     17  F   UNL     1      33.732 -22.978 -17.773  0.00  0.00    -0.204 F 
ATOM     18  C   UNL     1      35.092 -20.224 -20.511  0.00  0.00    -0.013 C 
ATOM     19  C   UNL     1      33.727 -20.369 -20.308  0.00  0.00    -0.001 C 
ATOM     20  C   UNL     1      36.006 -20.993 -19.805  0.00  0.00    -0.001 C 
ATOM     21  C   UNL     1      33.266 -21.302 -19.379  0.00  0.00    +0.029 C 
ATOM     22  C   UNL     1      35.545 -21.926 -18.876  0.00  0.00    +0.029 C 
ATOM     23  C   UNL     1      34.176 -22.082 -18.665  0.00  0.00    +0.140 C 
ENDBRANCH  16  18
ENDBRANCH  12  16
ENDBRANCH   3  10
BRANCH   2  24
ATOM     24  O   UNL     1      32.485  -9.802 -23.893  0.00  0.00    -0.451 OA
BRANCH  24  28
ATOM     25  N   UNL     1      33.188  -7.108 -20.161  0.00  0.00    -0.297 N 
ATOM     26  N   UNL     1      34.695  -6.740 -22.005  0.00  0.00    -0.229 NA
ATOM     27  C   UNL     1      32.877  -8.384 -21.967  0.00  0.00    +0.067 C 
ATOM     28  C   UNL     1      33.190  -8.812 -23.268  0.00  0.00    +0.150 C 
ATOM     29  C   UNL     1      33.659  -7.369 -21.422  0.00  0.00    +0.135 C 
ATOM     30  C   UNL     1      31.910  -8.731 -20.987  0.00  0.00    +0.022 C 
ATOM     31  C   UNL     1      32.127  -7.929 -19.887  0.00  0.00    +0.063 C 
ATOM     32  C   UNL     1      34.256  -8.193 -23.918  0.00  0.00    +0.058 C 
ATOM     33  C   UNL     1      34.951  -7.190 -23.254  0.00  0.00    +0.103 C 
ATOM     34  H   UNL     1      33.558  -6.433 -19.547  0.00  0.00    +0.154 HD
ENDBRANCH  24  28
ENDBRANCH   2  24
TORSDOF 5
ENDMDL
MODEL 9
REMARK VINA RESULT:     -11.6      1.903      2.660
REMARK  Name = 11560856
REMARK  5 active torsions:
REMARK  status: ('A' for Active; 'I' for Inactive)
REMARK    1  A    between atoms: C_2  and  O_24
REMARK    2  A    between atoms: C_3  and  N_10
REMARK    3  A    between atoms: C_12  and  C_16
REMARK    4  A    between atoms: C_16  and  C_18
REMARK    5  A    between atoms: O_24  and  C_28
REMARK                            x       y       z     vdW  Elec       q    Type
REMARK                         _______ _______ _______ _____ _____    ______ ____
ROOT
ATOM      1  F   UNL     1      31.082 -10.596 -21.187  0.00  0.00    -0.201 F 
ATOM      2  C   UNL     1      32.427 -10.278 -23.115  0.00  0.00    +0.173 C 
ATOM      3  C   UNL     1      33.347 -12.879 -22.884  0.00  0.00    +0.054 C 
ATOM      4  C   UNL     1      31.964 -11.071 -22.077  0.00  0.00    +0.176 C 
ATOM      5  C   UNL     1      33.340 -10.757 -24.039  0.00  0.00    +0.041 C 
ATOM      6  C   UNL     1      32.427 -12.381 -21.962  0.00  0.00    +0.047 C 
ATOM      7  C   UNL     1      33.803 -12.068 -23.922  0.00  0.00    +0.018 C 
ENDROOT
BRANCH   3  10
ATOM      8  O   UNL     1      35.522 -16.849 -19.865  0.00  0.00    -0.274 OA
ATOM      9  O   UNL     1      34.507 -14.331 -20.526  0.00  0.00    -0.252 OA
ATOM     10  N   UNL     1      33.808 -14.191 -22.769  0.00  0.00    -0.268 N 
ATOM     11  N   UNL     1      34.695 -16.166 -21.937  0.00  0.00    -0.239 N 
ATOM     12  C   UNL     1      35.255 -17.081 -21.041  0.00  0.00    +0.234 C 
ATOM     13  C   UNL     1      34.348 -14.834 -21.635  0.00  0.00    +0.310 C 
ATOM     14  H   UNL     1      33.750 -14.739 -23.584  0.00  0.00    +0.156 HD
ATOM     15  H   UNL     1      34.529 -16.478 -22.856  0.00  0.00    +0.159 HD
BRANCH  12  16
ATOM     16  C   UNL     1      35.500 -18.422 -21.706  0.00  0.00    +0.112 C 
BRANCH  16  18
ATOM     17  F   UNL     1      34.676 -22.798 -18.275  0.00  0.00    -0.204 F 
ATOM     18  C   UNL     1      35.279 -19.594 -20.786  0.00  0.00    -0.013 C 
ATOM     19  C   UNL     1      33.985 -20.016 -20.516  0.00  0.00    -0.001 C 
ATOM     20  C   UNL     1      36.373 -20.235 -20.223  0.00  0.00    -0.001 C 
ATOM     21  C   UNL     1      33.780 -21.102 -19.664  0.00  0.00    +0.029 C 
ATOM     22  C   UNL     1      36.169 -21.321 -19.371  0.00  0.00    +0.029 C 
ATOM     23  C   UNL     1      34.873 -21.755 -19.093  0.00  0.00    +0.140 C 
ENDBRANCH  16  18
ENDBRANCH  12  16
ENDBRANCH   3  10
BRANCH   2  24
ATOM     24  O   UNL     1      31.968  -8.980 -23.230  0.00  0.00    -0.451 OA
BRANCH  24  28
ATOM     25  N   UNL     1      33.066  -4.640 -24.510  0.00  0.00    -0.297 N 
ATOM     26  N   UNL     1      34.886  -5.956 -23.639  0.00  0.00    -0.229 NA
ATOM     27  C   UNL     1      32.572  -6.728 -23.888  0.00  0.00    +0.067 C 
ATOM     28  C   UNL     1      32.900  -7.991 -23.369  0.00  0.00    +0.150 C 
ATOM     29  C   UNL     1      33.597  -5.790 -23.987  0.00  0.00    +0.135 C 
ATOM     30  C   UNL     1      31.394  -6.102 -24.373  0.00  0.00    +0.022 C 
ATOM     31  C   UNL     1      31.728  -4.818 -24.748  0.00  0.00    +0.063 C 
ATOM     32  C   UNL     1      34.223  -8.216 -22.993  0.00  0.00    +0.058 C 
ATOM     33  C   UNL     1      35.146  -7.190 -23.148  0.00  0.00    +0.103 C 
ATOM     34  H   UNL     1      33.569  -3.813 -24.688  0.00  0.00    +0.154 HD
ENDBRANCH  24  28
ENDBRANCH   2  24
TORSDOF 5
ENDMDL
