MODEL 1
REMARK VINA RESULT:     -11.9      0.000      0.000
REMARK  Name = 52920501
REMARK  9 active torsions:
REMARK  status: ('A' for Active; 'I' for Inactive)
REMARK    1  A    between atoms: N_1  and  C_12
REMARK    2  A    between atoms: C_5  and  O_27
REMARK    3  A    between atoms: C_9  and  C_15
REMARK    4  A    between atoms: C_15  and  S_16
REMARK    5  A    between atoms: S_16  and  N_19
REMARK    6  A    between atoms: N_19  and  C_21
REMARK    7  A    between atoms: C_21  and  C_22
REMARK    8  A    between atoms: C_22  and  N_23
REMARK    9  A    between atoms: O_27  and  C_35
REMARK                            x       y       z     vdW  Elec       q    Type
REMARK                         _______ _______ _______ _____ _____    ______ ____
ROOT
ATOM      1  N   UNL     1      32.698 -22.385 -18.230  0.00  0.00    -0.247 N 
ATOM      2  N   UNL     1      33.283 -22.865 -16.009  0.00  0.00    -0.300 NA
ATOM      3  N   UNL     1      31.072 -23.348 -16.838  0.00  0.00    -0.170 NA
ATOM      4  C   UNL     1      32.333 -22.891 -16.963  0.00  0.00    +0.152 C 
ATOM      5  C   UNL     1      32.900 -23.355 -14.812  0.00  0.00    +0.295 C 
ATOM      6  C   UNL     1      31.639 -23.853 -14.554  0.00  0.00    +0.094 C 
ATOM      7  C   UNL     1      30.758 -23.824 -15.615  0.00  0.00    +0.118 C 
ATOM      8  H   UNL     1      31.973 -22.424 -18.896  0.00  0.00    +0.165 HD
ENDROOT
BRANCH   1  12
ATOM      9  C   UNL     1      35.060 -20.489 -20.359  0.00  0.00    +0.004 C 
ATOM     10  C   UNL     1      33.874 -21.033 -19.867  0.00  0.00    +0.013 C 
ATOM     11  C   UNL     1      36.268 -20.751 -19.711  0.00  0.00    -0.002 C 
ATOM     12  C   UNL     1      33.894 -21.836 -18.727  0.00  0.00    +0.057 C 
ATOM     13  C   UNL     1      36.289 -21.555 -18.571  0.00  0.00    +0.001 C 
ATOM     14  C   UNL     1      35.102 -22.098 -18.080  0.00  0.00    +0.015 C 
BRANCH   9  15
ATOM     15  C   UNL     1      35.038 -19.629 -21.577  0.00  0.00    +0.195 C 
BRANCH  15  16
ATOM     16  S   UNL     1      36.114 -18.261 -21.294  0.00  0.00    +0.045 S 
ATOM     17  O   UNL     1      35.637 -17.532 -20.131  0.00  0.00    -0.157 OA
ATOM     18  O   UNL     1      37.483 -18.751 -21.339  0.00  0.00    -0.157 OA
BRANCH  16  19
ATOM     19  N   UNL     1      35.837 -17.330 -22.702  0.00  0.00    -0.185 NA
ATOM     20  H   UNL     1      35.343 -17.929 -23.364  0.00  0.00    +0.148 HD
BRANCH  19  21
ATOM     21  C   UNL     1      35.062 -16.080 -22.591  0.00  0.00    +0.068 C 
BRANCH  21  22
ATOM     22  C   UNL     1      34.432 -15.759 -23.939  0.00  0.00    -0.058 C 
BRANCH  22  23
ATOM     23  N   UNL     1      33.426 -14.715 -23.789  0.00  0.00    +0.385 N 
ATOM     24  C   UNL     1      33.737 -13.859 -22.643  0.00  0.00    -0.101 C 
ATOM     25  C   UNL     1      33.330 -13.912 -25.010  0.00  0.00    -0.101 C 
ATOM     26  H   UNL     1      32.524 -15.163 -23.624  0.00  0.00    -0.080 HD
ENDBRANCH  22  23
ENDBRANCH  21  22
ENDBRANCH  19  21
ENDBRANCH  16  19
ENDBRANCH  15  16
ENDBRANCH   9  15
ENDBRANCH   1  12
BRANCH   5  27
ATOM     27  O   UNL     1      33.843 -23.350 -13.798  0.00  0.00    -0.427 OA
BRANCH  27  35
ATOM     28  N   UNL     1      38.982 -24.766 -15.080  0.00  0.00    -0.316 N 
ATOM     29  C   UNL     1      36.931 -25.250 -14.347  0.00  0.00    +0.017 C 
ATOM     30  C   UNL     1      37.748 -24.218 -14.816  0.00  0.00    +0.048 C 
ATOM     31  C   UNL     1      38.976 -26.105 -14.796  0.00  0.00    +0.026 C 
ATOM     32  C   UNL     1      37.719 -26.435 -14.340  0.00  0.00    +0.012 C 
ATOM     33  C   UNL     1      35.598 -24.956 -13.999  0.00  0.00    +0.039 C 
ATOM     34  C   UNL     1      37.295 -22.901 -14.954  0.00  0.00    +0.018 C 
ATOM     35  C   UNL     1      35.132 -23.643 -14.132  0.00  0.00    +0.148 C 
ATOM     36  C   UNL     1      35.969 -22.633 -14.602  0.00  0.00    +0.039 C 
ATOM     37  C   UNL     1      40.178 -26.936 -14.990  0.00  0.00    +0.047 C 
ATOM     38  H   UNL     1      39.758 -24.267 -15.424  0.00  0.00    +0.152 HD
ENDBRANCH  27  35
ENDBRANCH   5  27
TORSDOF 9
ENDMDL
MODEL 2
REMARK VINA RESULT:     -11.0      2.760     10.032
REMARK  Name = 52920501
REMARK  9 active torsions:
REMARK  status: ('A' for Active; 'I' for Inactive)
REMARK    1  A    between atoms: N_1  and  C_12
REMARK    2  A    between atoms: C_5  and  O_27
REMARK    3  A    between atoms: C_9  and  C_15
REMARK    4  A    between atoms: C_15  and  S_16
REMARK    5  A    between atoms: S_16  and  N_19
REMARK    6  A    between atoms: N_19  and  C_21
REMARK    7  A    between atoms: C_21  and  C_22
REMARK    8  A    between atoms: C_22  and  N_23
REMARK    9  A    between atoms: O_27  and  C_35
REMARK                            x       y       z     vdW  Elec       q    Type
REMARK                         _______ _______ _______ _____ _____    ______ ____
ROOT
ATOM      1  N   UNL     1      34.235 -22.793 -17.154  0.00  0.00    -0.247 N 
ATOM      2  N   UNL     1      35.066 -21.277 -18.741  0.00  0.00    -0.300 NA
ATOM      3  N   UNL     1      32.758 -21.971 -18.782  0.00  0.00    -0.170 NA
ATOM      4  C   UNL     1      34.009 -21.973 -18.281  0.00  0.00    +0.152 C 
ATOM      5  C   UNL     1      34.814 -20.505 -19.819  0.00  0.00    +0.295 C 
ATOM      6  C   UNL     1      33.578 -20.415 -20.425  0.00  0.00    +0.094 C 
ATOM      7  C   UNL     1      32.577 -21.178 -19.859  0.00  0.00    +0.118 C 
ATOM      8  H   UNL     1      33.435 -23.283 -16.853  0.00  0.00    +0.165 HD
ENDROOT
BRANCH   1  12
ATOM      9  C   UNL     1      36.500 -24.312 -14.650  0.00  0.00    +0.004 C 
ATOM     10  C   UNL     1      35.364 -24.061 -15.420  0.00  0.00    +0.013 C 
ATOM     11  C   UNL     1      37.651 -23.546 -14.835  0.00  0.00    -0.002 C 
ATOM     12  C   UNL     1      35.380 -23.046 -16.376  0.00  0.00    +0.057 C 
ATOM     13  C   UNL     1      37.667 -22.530 -15.792  0.00  0.00    +0.001 C 
ATOM     14  C   UNL     1      36.531 -22.280 -16.562  0.00  0.00    +0.015 C 
BRANCH   9  15
ATOM     15  C   UNL     1      36.483 -25.398 -13.628  0.00  0.00    +0.195 C 
BRANCH  15  16
ATOM     16  S   UNL     1      35.995 -24.687 -12.089  0.00  0.00    +0.045 S 
ATOM     17  O   UNL     1      36.657 -25.411 -11.016  0.00  0.00    -0.157 OA
ATOM     18  O   UNL     1      36.142 -23.244 -12.196  0.00  0.00    -0.157 OA
BRANCH  16  19
ATOM     19  N   UNL     1      34.324 -25.052 -12.075  0.00  0.00    -0.185 NA
ATOM     20  H   UNL     1      34.036 -25.096 -11.098  0.00  0.00    +0.148 HD
BRANCH  19  21
ATOM     21  C   UNL     1      33.388 -24.141 -12.759  0.00  0.00    +0.068 C 
BRANCH  21  22
ATOM     22  C   UNL     1      32.204 -24.939 -13.285  0.00  0.00    -0.058 C 
BRANCH  22  23
ATOM     23  N   UNL     1      31.567 -24.230 -14.389  0.00  0.00    +0.385 N 
ATOM     24  C   UNL     1      30.134 -24.525 -14.431  0.00  0.00    -0.101 C 
ATOM     25  C   UNL     1      31.786 -22.788 -14.271  0.00  0.00    -0.101 C 
ATOM     26  H   UNL     1      31.990 -24.553 -15.259  0.00  0.00    -0.080 HD
ENDBRANCH  22  23
ENDBRANCH  21  22
ENDBRANCH  19  21
ENDBRANCH  16  19
ENDBRANCH  15  16
ENDBRANCH   9  15
ENDBRANCH   1  12
BRANCH   5  27
ATOM     27  O   UNL     1      35.870 -19.769 -20.328  0.00  0.00    -0.427 OA
BRANCH  27  35
ATOM     28  N   UNL     1      34.648 -15.468 -23.501  0.00  0.00    -0.316 N 
ATOM     29  C   UNL     1      34.971 -16.415 -21.507  0.00  0.00    +0.017 C 
ATOM     30  C   UNL     1      34.974 -16.653 -22.883  0.00  0.00    +0.048 C 
ATOM     31  C   UNL     1      34.439 -14.490 -22.567  0.00  0.00    +0.026 C 
ATOM     32  C   UNL     1      34.631 -15.046 -21.322  0.00  0.00    +0.012 C 
ATOM     33  C   UNL     1      35.276 -17.477 -20.633  0.00  0.00    +0.039 C 
ATOM     34  C   UNL     1      35.270 -17.907 -23.431  0.00  0.00    +0.018 C 
ATOM     35  C   UNL     1      35.573 -18.736 -21.167  0.00  0.00    +0.148 C 
ATOM     36  C   UNL     1      35.569 -18.946 -22.544  0.00  0.00    +0.039 C 
ATOM     37  C   UNL     1      34.074 -13.117 -22.962  0.00  0.00    +0.047 C 
ATOM     38  H   UNL     1      34.577 -15.341 -24.475  0.00  0.00    +0.152 HD
ENDBRANCH  27  35
ENDBRANCH   5  27
TORSDOF 9
ENDMDL
MODEL 3
REMARK VINA RESULT:     -10.9      3.580     11.737
REMARK  Name = 52920501
REMARK  9 active torsions:
REMARK  status: ('A' for Active; 'I' for Inactive)
REMARK    1  A    between atoms: N_1  and  C_12
REMARK    2  A    between atoms: C_5  and  O_27
REMARK    3  A    between atoms: C_9  and  C_15
REMARK    4  A    between atoms: C_15  and  S_16
REMARK    5  A    between atoms: S_16  and  N_19
REMARK    6  A    between atoms: N_19  and  C_21
REMARK    7  A    between atoms: C_21  and  C_22
REMARK    8  A    between atoms: C_22  and  N_23
REMARK    9  A    between atoms: O_27  and  C_35
REMARK                            x       y       z     vdW  Elec       q    Type
REMARK                         _______ _______ _______ _____ _____    ______ ____
ROOT
ATOM      1  N   UNL     1      34.656 -19.195 -22.877  0.00  0.00    -0.247 N 
ATOM      2  N   UNL     1      34.786 -16.906 -22.376  0.00  0.00    -0.300 NA
ATOM      3  N   UNL     1      34.230 -17.657 -24.598  0.00  0.00    -0.170 NA
ATOM      4  C   UNL     1      34.552 -17.853 -23.304  0.00  0.00    +0.152 C 
ATOM      5  C   UNL     1      34.679 -15.636 -22.820  0.00  0.00    +0.295 C 
ATOM      6  C   UNL     1      34.356 -15.302 -24.119  0.00  0.00    +0.094 C 
ATOM      7  C   UNL     1      34.141 -16.364 -24.972  0.00  0.00    +0.118 C 
ATOM      8  H   UNL     1      34.477 -19.853 -23.587  0.00  0.00    +0.165 HD
ENDROOT
BRANCH   1  12
ATOM      9  C   UNL     1      34.255 -20.885 -19.607  0.00  0.00    +0.004 C 
ATOM     10  C   UNL     1      33.949 -20.309 -20.840  0.00  0.00    +0.013 C 
ATOM     11  C   UNL     1      35.578 -20.926 -19.167  0.00  0.00    -0.002 C 
ATOM     12  C   UNL     1      34.964 -19.776 -21.633  0.00  0.00    +0.057 C 
ATOM     13  C   UNL     1      36.595 -20.393 -19.959  0.00  0.00    +0.001 C 
ATOM     14  C   UNL     1      36.287 -19.817 -21.192  0.00  0.00    +0.015 C 
BRANCH   9  15
ATOM     15  C   UNL     1      33.169 -21.456 -18.760  0.00  0.00    +0.195 C 
BRANCH  15  16
ATOM     16  S   UNL     1      33.741 -22.991 -18.106  0.00  0.00    +0.045 S 
ATOM     17  O   UNL     1      33.855 -23.944 -19.199  0.00  0.00    -0.157 OA
ATOM     18  O   UNL     1      34.888 -22.716 -17.255  0.00  0.00    -0.157 OA
BRANCH  16  19
ATOM     19  N   UNL     1      32.427 -23.430 -17.103  0.00  0.00    -0.185 NA
ATOM     20  H   UNL     1      32.165 -24.384 -17.354  0.00  0.00    +0.148 HD
BRANCH  19  21
ATOM     21  C   UNL     1      32.606 -23.402 -15.640  0.00  0.00    +0.068 C 
BRANCH  21  22
ATOM     22  C   UNL     1      31.255 -23.182 -14.974  0.00  0.00    -0.058 C 
BRANCH  22  23
ATOM     23  N   UNL     1      30.229 -23.980 -15.634  0.00  0.00    +0.385 N 
ATOM     24  C   UNL     1      29.844 -25.119 -14.799  0.00  0.00    -0.101 C 
ATOM     25  C   UNL     1      29.057 -23.159 -15.945  0.00  0.00    -0.101 C 
ATOM     26  H   UNL     1      30.617 -24.335 -16.508  0.00  0.00    -0.080 HD
ENDBRANCH  22  23
ENDBRANCH  21  22
ENDBRANCH  19  21
ENDBRANCH  16  19
ENDBRANCH  15  16
ENDBRANCH   9  15
ENDBRANCH   1  12
BRANCH   5  27
ATOM     27  O   UNL     1      34.910 -14.626 -21.901  0.00  0.00    -0.427 OA
BRANCH  27  35
ATOM     28  N   UNL     1      31.311 -10.493 -21.738  0.00  0.00    -0.316 N 
ATOM     29  C   UNL     1      33.119 -11.498 -22.575  0.00  0.00    +0.017 C 
ATOM     30  C   UNL     1      32.102 -11.614 -21.625  0.00  0.00    +0.048 C 
ATOM     31  C   UNL     1      31.791  -9.674 -22.724  0.00  0.00    +0.026 C 
ATOM     32  C   UNL     1      32.911 -10.269 -23.261  0.00  0.00    +0.012 C 
ATOM     33  C   UNL     1      34.079 -12.525 -22.671  0.00  0.00    +0.039 C 
ATOM     34  C   UNL     1      31.996 -12.711 -20.763  0.00  0.00    +0.018 C 
ATOM     35  C   UNL     1      33.986 -13.628 -21.815  0.00  0.00    +0.148 C 
ATOM     36  C   UNL     1      32.960 -13.718 -20.876  0.00  0.00    +0.039 C 
ATOM     37  C   UNL     1      31.127  -8.400 -23.053  0.00  0.00    +0.047 C 
ATOM     38  H   UNL     1      30.514 -10.307 -21.190  0.00  0.00    +0.152 HD
ENDBRANCH  27  35
ENDBRANCH   5  27
TORSDOF 9
ENDMDL
MODEL 4
REMARK VINA RESULT:     -10.8      3.487     12.273
REMARK  Name = 52920501
REMARK  9 active torsions:
REMARK  status: ('A' for Active; 'I' for Inactive)
REMARK    1  A    between atoms: N_1  and  C_12
REMARK    2  A    between atoms: C_5  and  O_27
REMARK    3  A    between atoms: C_9  and  C_15
REMARK    4  A    between atoms: C_15  and  S_16
REMARK    5  A    between atoms: S_16  and  N_19
REMARK    6  A    between atoms: N_19  and  C_21
REMARK    7  A    between atoms: C_21  and  C_22
REMARK    8  A    between atoms: C_22  and  N_23
REMARK    9  A    between atoms: O_27  and  C_35
REMARK                            x       y       z     vdW  Elec       q    Type
REMARK                         _______ _______ _______ _____ _____    ______ ____
ROOT
ATOM      1  N   UNL     1      34.880 -18.069 -23.466  0.00  0.00    -0.247 N 
ATOM      2  N   UNL     1      34.514 -15.891 -22.673  0.00  0.00    -0.300 NA
ATOM      3  N   UNL     1      34.071 -16.462 -24.972  0.00  0.00    -0.170 NA
ATOM      4  C   UNL     1      34.468 -16.742 -23.716  0.00  0.00    +0.152 C 
ATOM      5  C   UNL     1      34.115 -14.632 -22.947  0.00  0.00    +0.295 C 
ATOM      6  C   UNL     1      33.685 -14.218 -24.191  0.00  0.00    +0.094 C 
ATOM      7  C   UNL     1      33.685 -15.185 -25.176  0.00  0.00    +0.118 C 
ATOM      8  H   UNL     1      34.830 -18.655 -24.256  0.00  0.00    +0.165 HD
ENDROOT
BRANCH   1  12
ATOM      9  C   UNL     1      34.935 -20.109 -20.377  0.00  0.00    +0.004 C 
ATOM     10  C   UNL     1      34.470 -19.466 -21.524  0.00  0.00    +0.013 C 
ATOM     11  C   UNL     1      36.278 -20.004 -20.014  0.00  0.00    -0.002 C 
ATOM     12  C   UNL     1      35.348 -18.719 -22.309  0.00  0.00    +0.057 C 
ATOM     13  C   UNL     1      37.156 -19.257 -20.798  0.00  0.00    +0.001 C 
ATOM     14  C   UNL     1      36.691 -18.613 -21.946  0.00  0.00    +0.015 C 
BRANCH   9  15
ATOM     15  C   UNL     1      33.996 -20.909 -19.538  0.00  0.00    +0.195 C 
BRANCH  15  16
ATOM     16  S   UNL     1      34.864 -22.332 -18.959  0.00  0.00    +0.045 S 
ATOM     17  O   UNL     1      35.424 -23.028 -20.106  0.00  0.00    -0.157 OA
ATOM     18  O   UNL     1      35.725 -21.915 -17.864  0.00  0.00    -0.157 OA
BRANCH  16  19
ATOM     19  N   UNL     1      33.580 -23.254 -18.305  0.00  0.00    -0.185 NA
ATOM     20  H   UNL     1      33.741 -24.224 -18.576  0.00  0.00    +0.148 HD
BRANCH  19  21
ATOM     21  C   UNL     1      33.365 -23.243 -16.847  0.00  0.00    +0.068 C 
BRANCH  21  22
ATOM     22  C   UNL     1      31.879 -23.079 -16.560  0.00  0.00    -0.058 C 
BRANCH  22  23
ATOM     23  N   UNL     1      31.527 -23.755 -15.317  0.00  0.00    +0.385 N 
ATOM     24  C   UNL     1      32.049 -23.019 -14.164  0.00  0.00    -0.101 C 
ATOM     25  C   UNL     1      30.075 -23.907 -15.206  0.00  0.00    -0.101 C 
ATOM     26  H   UNL     1      31.951 -24.682 -15.328  0.00  0.00    -0.080 HD
ENDBRANCH  22  23
ENDBRANCH  21  22
ENDBRANCH  19  21
ENDBRANCH  16  19
ENDBRANCH  15  16
ENDBRANCH   9  15
ENDBRANCH   1  12
BRANCH   5  27
ATOM     27  O   UNL     1      34.143 -13.720 -21.906  0.00  0.00    -0.427 OA
BRANCH  27  35
ATOM     28  N   UNL     1      31.113  -9.189 -22.492  0.00  0.00    -0.316 N 
ATOM     29  C   UNL     1      32.895 -10.442 -22.974  0.00  0.00    +0.017 C 
ATOM     30  C   UNL     1      31.728 -10.388 -22.210  0.00  0.00    +0.048 C 
ATOM     31  C   UNL     1      31.849  -8.485 -23.407  0.00  0.00    +0.026 C 
ATOM     32  C   UNL     1      32.959  -9.235 -23.724  0.00  0.00    +0.012 C 
ATOM     33  C   UNL     1      33.721 -11.578 -22.872  0.00  0.00    +0.039 C 
ATOM     34  C   UNL     1      31.344 -11.418 -21.345  0.00  0.00    +0.018 C 
ATOM     35  C   UNL     1      33.350 -12.617 -22.011  0.00  0.00    +0.148 C 
ATOM     36  C   UNL     1      32.179 -12.536 -21.259  0.00  0.00    +0.039 C 
ATOM     37  C   UNL     1      31.414  -7.160 -23.884  0.00  0.00    +0.047 C 
ATOM     38  H   UNL     1      30.266  -8.882 -22.095  0.00  0.00    +0.152 HD
ENDBRANCH  27  35
ENDBRANCH   5  27
TORSDOF 9
ENDMDL
MODEL 5
REMARK VINA RESULT:     -10.4      4.061      8.610
REMARK  Name = 52920501
REMARK  9 active torsions:
REMARK  status: ('A' for Active; 'I' for Inactive)
REMARK    1  A    between atoms: N_1  and  C_12
REMARK    2  A    between atoms: C_5  and  O_27
REMARK    3  A    between atoms: C_9  and  C_15
REMARK    4  A    between atoms: C_15  and  S_16
REMARK    5  A    between atoms: S_16  and  N_19
REMARK    6  A    between atoms: N_19  and  C_21
REMARK    7  A    between atoms: C_21  and  C_22
REMARK    8  A    between atoms: C_22  and  N_23
REMARK    9  A    between atoms: O_27  and  C_35
REMARK                            x       y       z     vdW  Elec       q    Type
REMARK                         _______ _______ _______ _____ _____    ______ ____
ROOT
ATOM      1  N   UNL     1      33.170 -15.541 -24.962  0.00  0.00    -0.247 N 
ATOM      2  N   UNL     1      34.516 -16.700 -23.429  0.00  0.00    -0.300 NA
ATOM      3  N   UNL     1      33.253 -17.881 -25.108  0.00  0.00    -0.170 NA
ATOM      4  C   UNL     1      33.671 -16.768 -24.475  0.00  0.00    +0.152 C 
ATOM      5  C   UNL     1      34.975 -17.891 -22.990  0.00  0.00    +0.295 C 
ATOM      6  C   UNL     1      34.624 -19.102 -23.550  0.00  0.00    +0.094 C 
ATOM      7  C   UNL     1      33.751 -19.035 -24.617  0.00  0.00    +0.118 C 
ATOM      8  H   UNL     1      32.557 -15.638 -25.726  0.00  0.00    +0.165 HD
ENDROOT
BRANCH   1  12
ATOM      9  C   UNL     1      33.627 -12.552 -22.824  0.00  0.00    +0.004 C 
ATOM     10  C   UNL     1      33.423 -13.876 -23.214  0.00  0.00    +0.013 C 
ATOM     11  C   UNL     1      33.784 -11.558 -23.790  0.00  0.00    -0.002 C 
ATOM     12  C   UNL     1      33.376 -14.206 -24.568  0.00  0.00    +0.057 C 
ATOM     13  C   UNL     1      33.737 -11.887 -25.145  0.00  0.00    +0.001 C 
ATOM     14  C   UNL     1      33.532 -13.211 -25.534  0.00  0.00    +0.015 C 
BRANCH   9  15
ATOM     15  C   UNL     1      33.679 -12.201 -21.376  0.00  0.00    +0.195 C 
BRANCH  15  16
ATOM     16  S   UNL     1      32.050 -12.372 -20.719  0.00  0.00    +0.045 S 
ATOM     17  O   UNL     1      31.105 -11.831 -21.682  0.00  0.00    -0.157 OA
ATOM     18  O   UNL     1      31.904 -13.736 -20.237  0.00  0.00    -0.157 OA
BRANCH  16  19
ATOM     19  N   UNL     1      32.135 -11.335 -19.361  0.00  0.00    -0.185 NA
ATOM     20  H   UNL     1      33.118 -11.097 -19.227  0.00  0.00    +0.148 HD
BRANCH  19  21
ATOM     21  C   UNL     1      31.383 -10.067 -19.382  0.00  0.00    +0.068 C 
BRANCH  21  22
ATOM     22  C   UNL     1      32.353  -8.911 -19.583  0.00  0.00    -0.058 C 
BRANCH  22  23
ATOM     23  N   UNL     1      31.984  -8.141 -20.764  0.00  0.00    +0.385 N 
ATOM     24  C   UNL     1      32.074  -6.705 -20.492  0.00  0.00    -0.101 C 
ATOM     25  C   UNL     1      32.836  -8.496 -21.900  0.00  0.00    -0.101 C 
ATOM     26  H   UNL     1      31.017  -8.366 -21.001  0.00  0.00    -0.080 HD
ENDBRANCH  22  23
ENDBRANCH  21  22
ENDBRANCH  19  21
ENDBRANCH  16  19
ENDBRANCH  15  16
ENDBRANCH   9  15
ENDBRANCH   1  12
BRANCH   5  27
ATOM     27  O   UNL     1      35.848 -17.873 -21.916  0.00  0.00    -0.427 OA
BRANCH  27  35
ATOM     28  N   UNL     1      35.364 -22.063 -18.413  0.00  0.00    -0.316 N 
ATOM     29  C   UNL     1      34.499 -20.559 -19.816  0.00  0.00    +0.017 C 
ATOM     30  C   UNL     1      35.690 -21.023 -19.253  0.00  0.00    +0.048 C 
ATOM     31  C   UNL     1      34.012 -22.273 -18.423  0.00  0.00    +0.026 C 
ATOM     32  C   UNL     1      33.448 -21.357 -19.283  0.00  0.00    +0.012 C 
ATOM     33  C   UNL     1      34.550 -19.484 -20.725  0.00  0.00    +0.039 C 
ATOM     34  C   UNL     1      36.936 -20.462 -19.556  0.00  0.00    +0.018 C 
ATOM     35  C   UNL     1      35.789 -18.913 -21.037  0.00  0.00    +0.148 C 
ATOM     36  C   UNL     1      36.963 -19.396 -20.461  0.00  0.00    +0.039 C 
ATOM     37  C   UNL     1      33.394 -23.333 -17.606  0.00  0.00    +0.047 C 
ATOM     38  H   UNL     1      36.010 -22.581 -17.881  0.00  0.00    +0.152 HD
ENDBRANCH  27  35
ENDBRANCH   5  27
TORSDOF 9
ENDMDL
MODEL 6
REMARK VINA RESULT:     -10.3      5.203      9.751
REMARK  Name = 52920501
REMARK  9 active torsions:
REMARK  status: ('A' for Active; 'I' for Inactive)
REMARK    1  A    between atoms: N_1  and  C_12
REMARK    2  A    between atoms: C_5  and  O_27
REMARK    3  A    between atoms: C_9  and  C_15
REMARK    4  A    between atoms: C_15  and  S_16
REMARK    5  A    between atoms: S_16  and  N_19
REMARK    6  A    between atoms: N_19  and  C_21
REMARK    7  A    between atoms: C_21  and  C_22
REMARK    8  A    between atoms: C_22  and  N_23
REMARK    9  A    between atoms: O_27  and  C_35
REMARK                            x       y       z     vdW  Elec       q    Type
REMARK                         _______ _______ _______ _____ _____    ______ ____
ROOT
ATOM      1  N   UNL     1      33.126 -14.439 -24.353  0.00  0.00    -0.247 N 
ATOM      2  N   UNL     1      34.512 -15.745 -22.983  0.00  0.00    -0.300 NA
ATOM      3  N   UNL     1      33.688 -16.598 -25.082  0.00  0.00    -0.170 NA
ATOM      4  C   UNL     1      33.810 -15.653 -24.128  0.00  0.00    +0.152 C 
ATOM      5  C   UNL     1      35.152 -16.919 -22.800  0.00  0.00    +0.295 C 
ATOM      6  C   UNL     1      35.108 -17.965 -23.700  0.00  0.00    +0.094 C 
ATOM      7  C   UNL     1      34.353 -17.745 -24.834  0.00  0.00    +0.118 C 
ATOM      8  H   UNL     1      32.627 -14.416 -25.202  0.00  0.00    +0.165 HD
ENDROOT
BRANCH   1  12
ATOM      9  C   UNL     1      33.572 -10.923 -23.282  0.00  0.00    +0.004 C 
ATOM     10  C   UNL     1      33.677 -12.098 -24.026  0.00  0.00    +0.013 C 
ATOM     11  C   UNL     1      32.811 -10.904 -22.113  0.00  0.00    -0.002 C 
ATOM     12  C   UNL     1      33.021 -13.253 -23.603  0.00  0.00    +0.057 C 
ATOM     13  C   UNL     1      32.153 -12.059 -21.689  0.00  0.00    +0.001 C 
ATOM     14  C   UNL     1      32.259 -13.234 -22.434  0.00  0.00    +0.015 C 
BRANCH   9  15
ATOM     15  C   UNL     1      34.273  -9.688 -23.735  0.00  0.00    +0.195 C 
BRANCH  15  16
ATOM     16  S   UNL     1      33.269  -8.304 -23.302  0.00  0.00    +0.045 S 
ATOM     17  O   UNL     1      31.931  -8.524 -23.826  0.00  0.00    -0.157 OA
ATOM     18  O   UNL     1      33.464  -8.034 -21.887  0.00  0.00    -0.157 OA
BRANCH  16  19
ATOM     19  N   UNL     1      34.030  -7.056 -24.191  0.00  0.00    -0.185 NA
ATOM     20  H   UNL     1      33.629  -7.069 -25.129  0.00  0.00    +0.148 HD
BRANCH  19  21
ATOM     21  C   UNL     1      33.934  -5.669 -23.700  0.00  0.00    +0.068 C 
BRANCH  21  22
ATOM     22  C   UNL     1      32.488  -5.204 -23.789  0.00  0.00    -0.058 C 
BRANCH  22  23
ATOM     23  N   UNL     1      32.052  -4.663 -22.507  0.00  0.00    +0.385 N 
ATOM     24  C   UNL     1      31.619  -3.272 -22.655  0.00  0.00    -0.101 C 
ATOM     25  C   UNL     1      30.970  -5.473 -21.945  0.00  0.00    -0.101 C 
ATOM     26  H   UNL     1      32.844  -4.689 -21.865  0.00  0.00    -0.080 HD
ENDBRANCH  22  23
ENDBRANCH  21  22
ENDBRANCH  19  21
ENDBRANCH  16  19
ENDBRANCH  15  16
ENDBRANCH   9  15
ENDBRANCH   1  12
BRANCH   5  27
ATOM     27  O   UNL     1      35.889 -17.061 -21.637  0.00  0.00    -0.427 OA
BRANCH  27  35
ATOM     28  N   UNL     1      35.497 -21.922 -19.131  0.00  0.00    -0.316 N 
ATOM     29  C   UNL     1      34.592 -20.127 -20.100  0.00  0.00    +0.017 C 
ATOM     30  C   UNL     1      35.801 -20.726 -19.739  0.00  0.00    +0.048 C 
ATOM     31  C   UNL     1      34.140 -22.101 -19.094  0.00  0.00    +0.026 C 
ATOM     32  C   UNL     1      33.552 -21.007 -19.686  0.00  0.00    +0.012 C 
ATOM     33  C   UNL     1      34.619 -18.877 -20.747  0.00  0.00    +0.039 C 
ATOM     34  C   UNL     1      37.042 -20.132 -19.996  0.00  0.00    +0.018 C 
ATOM     35  C   UNL     1      35.854 -18.271 -21.011  0.00  0.00    +0.148 C 
ATOM     36  C   UNL     1      37.045 -18.891 -20.640  0.00  0.00    +0.039 C 
ATOM     37  C   UNL     1      33.543 -23.307 -18.492  0.00  0.00    +0.047 C 
ATOM     38  H   UNL     1      36.159 -22.558 -18.774  0.00  0.00    +0.152 HD
ENDBRANCH  27  35
ENDBRANCH   5  27
TORSDOF 9
ENDMDL
MODEL 7
REMARK VINA RESULT:     -10.1      7.843     16.901
REMARK  Name = 52920501
REMARK  9 active torsions:
REMARK  status: ('A' for Active; 'I' for Inactive)
REMARK    1  A    between atoms: N_1  and  C_12
REMARK    2  A    between atoms: C_5  and  O_27
REMARK    3  A    between atoms: C_9  and  C_15
REMARK    4  A    between atoms: C_15  and  S_16
REMARK    5  A    between atoms: S_16  and  N_19
REMARK    6  A    between atoms: N_19  and  C_21
REMARK    7  A    between atoms: C_21  and  C_22
REMARK    8  A    between atoms: C_22  and  N_23
REMARK    9  A    between atoms: O_27  and  C_35
REMARK                            x       y       z     vdW  Elec       q    Type
REMARK                         _______ _______ _______ _____ _____    ______ ____
ROOT
ATOM      1  N   UNL     1      33.102  -8.517 -21.906  0.00  0.00    -0.247 N 
ATOM      2  N   UNL     1      32.070  -6.709 -22.990  0.00  0.00    -0.300 NA
ATOM      3  N   UNL     1      31.947  -6.950 -20.595  0.00  0.00    -0.170 NA
ATOM      4  C   UNL     1      32.335  -7.333 -21.827  0.00  0.00    +0.152 C 
ATOM      5  C   UNL     1      31.335  -5.583 -22.877  0.00  0.00    +0.295 C 
ATOM      6  C   UNL     1      30.877  -5.084 -21.675  0.00  0.00    +0.094 C 
ATOM      7  C   UNL     1      31.217  -5.816 -20.556  0.00  0.00    +0.118 C 
ATOM      8  H   UNL     1      33.272  -8.939 -21.033  0.00  0.00    +0.165 HD
ENDROOT
BRANCH   1  12
ATOM      9  C   UNL     1      33.728 -11.139 -24.444  0.00  0.00    +0.004 C 
ATOM     10  C   UNL     1      33.163 -10.452 -23.370  0.00  0.00    +0.013 C 
ATOM     11  C   UNL     1      34.803 -10.584 -25.138  0.00  0.00    -0.002 C 
ATOM     12  C   UNL     1      33.671  -9.210 -22.990  0.00  0.00    +0.057 C 
ATOM     13  C   UNL     1      35.312  -9.342 -24.759  0.00  0.00    +0.001 C 
ATOM     14  C   UNL     1      34.746  -8.655 -23.685  0.00  0.00    +0.015 C 
BRANCH   9  15
ATOM     15  C   UNL     1      33.183 -12.467 -24.850  0.00  0.00    +0.195 C 
BRANCH  15  16
ATOM     16  S   UNL     1      33.366 -13.569 -23.484  0.00  0.00    +0.045 S 
ATOM     17  O   UNL     1      34.698 -13.396 -22.929  0.00  0.00    -0.157 OA
ATOM     18  O   UNL     1      32.195 -13.426 -22.634  0.00  0.00    -0.157 OA
BRANCH  16  19
ATOM     19  N   UNL     1      33.270 -15.084 -24.272  0.00  0.00    -0.185 NA
ATOM     20  H   UNL     1      32.902 -14.912 -25.207  0.00  0.00    +0.148 HD
BRANCH  19  21
ATOM     21  C   UNL     1      34.497 -15.885 -24.431  0.00  0.00    +0.068 C 
BRANCH  21  22
ATOM     22  C   UNL     1      34.159 -17.360 -24.264  0.00  0.00    -0.058 C 
BRANCH  22  23
ATOM     23  N   UNL     1      35.105 -17.995 -23.356  0.00  0.00    +0.385 N 
ATOM     24  C   UNL     1      35.385 -17.126 -22.211  0.00  0.00    -0.101 C 
ATOM     25  C   UNL     1      34.592 -19.288 -22.897  0.00  0.00    -0.101 C 
ATOM     26  H   UNL     1      35.976 -18.154 -23.863  0.00  0.00    -0.080 HD
ENDBRANCH  22  23
ENDBRANCH  21  22
ENDBRANCH  19  21
ENDBRANCH  16  19
ENDBRANCH  15  16
ENDBRANCH   9  15
ENDBRANCH   1  12
BRANCH   5  27
ATOM     27  O   UNL     1      31.036  -4.905 -24.047  0.00  0.00    -0.427 OA
BRANCH  27  35
ATOM     28  N   UNL     1      35.298  -2.726 -26.720  0.00  0.00    -0.316 N 
ATOM     29  C   UNL     1      34.248  -4.441 -25.753  0.00  0.00    +0.017 C 
ATOM     30  C   UNL     1      34.145  -3.082 -26.058  0.00  0.00    +0.048 C 
ATOM     31  C   UNL     1      36.125  -3.809 -26.845  0.00  0.00    +0.026 C 
ATOM     32  C   UNL     1      35.503  -4.886 -26.256  0.00  0.00    +0.012 C 
ATOM     33  C   UNL     1      33.189  -5.065 -25.067  0.00  0.00    +0.039 C 
ATOM     34  C   UNL     1      33.029  -2.313 -25.709  0.00  0.00    +0.018 C 
ATOM     35  C   UNL     1      32.066  -4.308 -24.711  0.00  0.00    +0.148 C 
ATOM     36  C   UNL     1      31.990  -2.954 -25.028  0.00  0.00    +0.039 C 
ATOM     37  C   UNL     1      37.433  -3.701 -27.517  0.00  0.00    +0.047 C 
ATOM     38  H   UNL     1      35.499  -1.822 -27.057  0.00  0.00    +0.152 HD
ENDBRANCH  27  35
ENDBRANCH   5  27
TORSDOF 9
ENDMDL
MODEL 8
REMARK VINA RESULT:     -10.0      2.738     11.558
REMARK  Name = 52920501
REMARK  9 active torsions:
REMARK  status: ('A' for Active; 'I' for Inactive)
REMARK    1  A    between atoms: N_1  and  C_12
REMARK    2  A    between atoms: C_5  and  O_27
REMARK    3  A    between atoms: C_9  and  C_15
REMARK    4  A    between atoms: C_15  and  S_16
REMARK    5  A    between atoms: S_16  and  N_19
REMARK    6  A    between atoms: N_19  and  C_21
REMARK    7  A    between atoms: C_21  and  C_22
REMARK    8  A    between atoms: C_22  and  N_23
REMARK    9  A    between atoms: O_27  and  C_35
REMARK                            x       y       z     vdW  Elec       q    Type
REMARK                         _______ _______ _______ _____ _____    ______ ____
ROOT
ATOM      1  N   UNL     1      34.743 -19.623 -22.301  0.00  0.00    -0.247 N 
ATOM      2  N   UNL     1      34.971 -17.313 -22.645  0.00  0.00    -0.300 NA
ATOM      3  N   UNL     1      33.634 -18.660 -24.131  0.00  0.00    -0.170 NA
ATOM      4  C   UNL     1      34.434 -18.475 -23.063  0.00  0.00    +0.152 C 
ATOM      5  C   UNL     1      34.656 -16.238 -23.397  0.00  0.00    +0.295 C 
ATOM      6  C   UNL     1      33.847 -16.293 -24.513  0.00  0.00    +0.094 C 
ATOM      7  C   UNL     1      33.360 -17.543 -24.837  0.00  0.00    +0.118 C 
ATOM      8  H   UNL     1      34.329 -20.449 -22.643  0.00  0.00    +0.165 HD
ENDROOT
BRANCH   1  12
ATOM      9  C   UNL     1      35.980 -21.026 -19.106  0.00  0.00    +0.004 C 
ATOM     10  C   UNL     1      35.204 -20.834 -20.249  0.00  0.00    +0.013 C 
ATOM     11  C   UNL     1      37.077 -20.200 -18.862  0.00  0.00    -0.002 C 
ATOM     12  C   UNL     1      35.525 -19.818 -21.148  0.00  0.00    +0.057 C 
ATOM     13  C   UNL     1      37.399 -19.183 -19.760  0.00  0.00    +0.001 C 
ATOM     14  C   UNL     1      36.622 -18.991 -20.903  0.00  0.00    +0.015 C 
BRANCH   9  15
ATOM     15  C   UNL     1      35.637 -22.114 -18.146  0.00  0.00    +0.195 C 
BRANCH  15  16
ATOM     16  S   UNL     1      33.942 -22.539 -18.391  0.00  0.00    +0.045 S 
ATOM     17  O   UNL     1      33.195 -21.321 -18.657  0.00  0.00    -0.157 OA
ATOM     18  O   UNL     1      33.891 -23.648 -19.330  0.00  0.00    -0.157 OA
BRANCH  16  19
ATOM     19  N   UNL     1      33.527 -23.135 -16.842  0.00  0.00    -0.185 NA
ATOM     20  H   UNL     1      33.300 -24.123 -16.953  0.00  0.00    +0.148 HD
BRANCH  19  21
ATOM     21  C   UNL     1      34.514 -23.039 -15.752  0.00  0.00    +0.068 C 
BRANCH  21  22
ATOM     22  C   UNL     1      34.649 -24.395 -15.076  0.00  0.00    -0.058 C 
BRANCH  22  23
ATOM     23  N   UNL     1      35.873 -24.446 -14.285  0.00  0.00    +0.385 N 
ATOM     24  C   UNL     1      36.986 -23.840 -15.019  0.00  0.00    -0.101 C 
ATOM     25  C   UNL     1      35.686 -23.772 -12.999  0.00  0.00    -0.101 C 
ATOM     26  H   UNL     1      36.097 -25.426 -14.109  0.00  0.00    -0.080 HD
ENDBRANCH  22  23
ENDBRANCH  21  22
ENDBRANCH  19  21
ENDBRANCH  16  19
ENDBRANCH  15  16
ENDBRANCH   9  15
ENDBRANCH   1  12
BRANCH   5  27
ATOM     27  O   UNL     1      35.183 -15.019 -23.006  0.00  0.00    -0.427 OA
BRANCH  27  35
ATOM     28  N   UNL     1      31.745 -11.011 -21.533  0.00  0.00    -0.316 N 
ATOM     29  C   UNL     1      33.287 -11.883 -22.890  0.00  0.00    +0.017 C 
ATOM     30  C   UNL     1      32.537 -12.118 -21.735  0.00  0.00    +0.048 C 
ATOM     31  C   UNL     1      31.966 -10.086 -22.518  0.00  0.00    +0.026 C 
ATOM     32  C   UNL     1      32.916 -10.597 -23.373  0.00  0.00    +0.012 C 
ATOM     33  C   UNL     1      34.190 -12.872 -23.325  0.00  0.00    +0.039 C 
ATOM     34  C   UNL     1      32.648 -13.297 -20.991  0.00  0.00    +0.018 C 
ATOM     35  C   UNL     1      34.311 -14.057 -22.591  0.00  0.00    +0.148 C 
ATOM     36  C   UNL     1      33.551 -14.265 -21.442  0.00  0.00    +0.039 C 
ATOM     37  C   UNL     1      31.243  -8.801 -22.540  0.00  0.00    +0.047 C 
ATOM     38  H   UNL     1      31.110 -10.899 -20.789  0.00  0.00    +0.152 HD
ENDBRANCH  27  35
ENDBRANCH   5  27
TORSDOF 9
ENDMDL
MODEL 9
REMARK VINA RESULT:      -9.9      3.940     12.348
REMARK  Name = 52920501
REMARK  9 active torsions:
REMARK  status: ('A' for Active; 'I' for Inactive)
REMARK    1  A    between atoms: N_1  and  C_12
REMARK    2  A    between atoms: C_5  and  O_27
REMARK    3  A    between atoms: C_9  and  C_15
REMARK    4  A    between atoms: C_15  and  S_16
REMARK    5  A    between atoms: S_16  and  N_19
REMARK    6  A    between atoms: N_19  and  C_21
REMARK    7  A    between atoms: C_21  and  C_22
REMARK    8  A    between atoms: C_22  and  N_23
REMARK    9  A    between atoms: O_27  and  C_35
REMARK                            x       y       z     vdW  Elec       q    Type
REMARK                         _______ _______ _______ _____ _____    ______ ____
ROOT
ATOM      1  N   UNL     1      34.472 -15.379 -24.546  0.00  0.00    -0.247 N 
ATOM      2  N   UNL     1      33.240 -14.090 -23.021  0.00  0.00    -0.300 NA
ATOM      3  N   UNL     1      33.991 -13.152 -25.110  0.00  0.00    -0.170 NA
ATOM      4  C   UNL     1      33.871 -14.146 -24.209  0.00  0.00    +0.152 C 
ATOM      5  C   UNL     1      32.678 -12.898 -22.731  0.00  0.00    +0.295 C 
ATOM      6  C   UNL     1      32.730 -11.802 -23.567  0.00  0.00    +0.094 C 
ATOM      7  C   UNL     1      33.406 -11.989 -24.755  0.00  0.00    +0.118 C 
ATOM      8  H   UNL     1      34.921 -15.374 -25.423  0.00  0.00    +0.165 HD
ENDROOT
BRANCH   1  12
ATOM      9  C   UNL     1      35.117 -17.891 -21.904  0.00  0.00    +0.004 C 
ATOM     10  C   UNL     1      35.037 -16.667 -22.569  0.00  0.00    +0.013 C 
ATOM     11  C   UNL     1      34.713 -19.061 -22.548  0.00  0.00    -0.002 C 
ATOM     12  C   UNL     1      34.553 -16.613 -23.875  0.00  0.00    +0.057 C 
ATOM     13  C   UNL     1      34.229 -19.008 -23.855  0.00  0.00    +0.001 C 
ATOM     14  C   UNL     1      34.149 -17.783 -24.519  0.00  0.00    +0.015 C 
BRANCH   9  15
ATOM     15  C   UNL     1      35.634 -17.949 -20.507  0.00  0.00    +0.195 C 
BRANCH  15  16
ATOM     16  S   UNL     1      37.145 -18.858 -20.525  0.00  0.00    +0.045 S 
ATOM     17  O   UNL     1      37.794 -18.649 -21.809  0.00  0.00    -0.157 OA
ATOM     18  O   UNL     1      37.857 -18.568 -19.290  0.00  0.00    -0.157 OA
BRANCH  16  19
ATOM     19  N   UNL     1      36.562 -20.464 -20.437  0.00  0.00    -0.185 NA
ATOM     20  H   UNL     1      37.247 -21.057 -20.906  0.00  0.00    +0.148 HD
BRANCH  19  21
ATOM     21  C   UNL     1      36.311 -21.060 -19.112  0.00  0.00    +0.068 C 
BRANCH  21  22
ATOM     22  C   UNL     1      35.198 -22.092 -19.229  0.00  0.00    -0.058 C 
BRANCH  22  23
ATOM     23  N   UNL     1      33.972 -21.584 -18.629  0.00  0.00    +0.385 N 
ATOM     24  C   UNL     1      33.104 -20.993 -19.650  0.00  0.00    -0.101 C 
ATOM     25  C   UNL     1      33.264 -22.650 -17.917  0.00  0.00    -0.101 C 
ATOM     26  H   UNL     1      34.223 -20.857 -17.958  0.00  0.00    -0.080 HD
ENDBRANCH  22  23
ENDBRANCH  21  22
ENDBRANCH  19  21
ENDBRANCH  16  19
ENDBRANCH  15  16
ENDBRANCH   9  15
ENDBRANCH   1  12
BRANCH   5  27
ATOM     27  O   UNL     1      32.016 -12.791 -21.520  0.00  0.00    -0.427 OA
BRANCH  27  35
ATOM     28  N   UNL     1      32.016  -7.790 -19.272  0.00  0.00    -0.316 N 
ATOM     29  C   UNL     1      31.991  -9.156 -21.036  0.00  0.00    +0.017 C 
ATOM     30  C   UNL     1      32.021  -9.116 -19.640  0.00  0.00    +0.048 C 
ATOM     31  C   UNL     1      31.984  -6.991 -20.383  0.00  0.00    +0.026 C 
ATOM     32  C   UNL     1      31.967  -7.808 -21.491  0.00  0.00    +0.012 C 
ATOM     33  C   UNL     1      31.989 -10.409 -21.679  0.00  0.00    +0.039 C 
ATOM     34  C   UNL     1      32.051 -10.272 -18.853  0.00  0.00    +0.018 C 
ATOM     35  C   UNL     1      32.018 -11.574 -20.905  0.00  0.00    +0.148 C 
ATOM     36  C   UNL     1      32.048 -11.505 -19.513  0.00  0.00    +0.039 C 
ATOM     37  C   UNL     1      31.972  -5.521 -20.270  0.00  0.00    +0.047 C 
ATOM     38  H   UNL     1      32.033  -7.463 -18.343  0.00  0.00    +0.152 HD
ENDBRANCH  27  35
ENDBRANCH   5  27
TORSDOF 9
ENDMDL
