MODEL 1
REMARK VINA RESULT:     -11.8      0.000      0.000
REMARK  Name = 9865515
REMARK  6 active torsions:
REMARK  status: ('A' for Active; 'I' for Inactive)
REMARK    1  A    between atoms: C_1  and  C_20
REMARK    2  A    between atoms: C_2  and  C_9
REMARK    3  A    between atoms: N_8  and  C_11
REMARK    4  A    between atoms: C_12  and  N_17
REMARK    5  A    between atoms: C_20  and  N_21
REMARK    6  A    between atoms: C_25  and  C_30
REMARK                            x       y       z     vdW  Elec       q    Type
REMARK                         _______ _______ _______ _____ _____    ______ ____
ROOT
ATOM      1  C   UNL     1      33.981 -23.647 -15.644  0.00  0.00    -0.002 C 
ATOM      2  C   UNL     1      33.863 -22.109 -17.968  0.00  0.00    +0.054 C 
ATOM      3  C   UNL     1      32.753 -23.406 -16.259  0.00  0.00    -0.002 C 
ATOM      4  C   UNL     1      35.150 -23.119 -16.191  0.00  0.00    -0.002 C 
ATOM      5  C   UNL     1      32.693 -22.636 -17.420  0.00  0.00    +0.004 C 
ATOM      6  C   UNL     1      35.091 -22.350 -17.353  0.00  0.00    +0.004 C 
ENDROOT
BRANCH   2   9
ATOM      7  O   UNL     1      32.707 -21.155 -19.748  0.00  0.00    -0.270 OA
ATOM      8  N   UNL     1      35.010 -20.730 -19.593  0.00  0.00    -0.279 N 
ATOM      9  C   UNL     1      33.800 -21.304 -19.178  0.00  0.00    +0.250 C 
ATOM     10  H   UNL     1      35.795 -20.939 -19.039  0.00  0.00    +0.155 HD
BRANCH   8  11
ATOM     11  C   UNL     1      35.248 -19.888 -20.708  0.00  0.00    +0.064 C 
ATOM     12  C   UNL     1      36.380 -19.090 -20.752  0.00  0.00    +0.055 C 
ATOM     13  C   UNL     1      34.324 -19.886 -21.740  0.00  0.00    +0.016 C 
ATOM     14  C   UNL     1      36.593 -18.268 -21.859  0.00  0.00    +0.015 C 
ATOM     15  C   UNL     1      34.537 -19.065 -22.847  0.00  0.00    +0.001 C 
ATOM     16  C   UNL     1      35.672 -18.255 -22.907  0.00  0.00    +0.001 C 
BRANCH  12  17
ATOM     17  N   UNL     1      37.326 -19.088 -19.704  0.00  0.00    -0.356 N 
ATOM     18  H   UNL     1      37.226 -18.461 -18.951  0.00  0.00    +0.142 HD
ATOM     19  H   UNL     1      38.086 -19.714 -19.725  0.00  0.00    +0.142 HD
ENDBRANCH  12  17
ENDBRANCH   8  11
ENDBRANCH   2   9
BRANCH   1  20
ATOM     20  C   UNL     1      34.045 -24.471 -14.402  0.00  0.00    +0.124 C 
BRANCH  20  21
ATOM     21  N   UNL     1      34.587 -23.705 -13.300  0.00  0.00    -0.264 N 
ATOM     22  N   UNL     1      36.702 -24.701 -13.502  0.00  0.00    -0.338 NA
ATOM     23  N   UNL     1      36.274 -23.038 -11.812  0.00  0.00    -0.170 NA
ATOM     24  C   UNL     1      35.894 -23.819 -12.858  0.00  0.00    +0.145 C 
ATOM     25  C   UNL     1      37.968 -24.786 -13.045  0.00  0.00    +0.147 C 
ATOM     26  C   UNL     1      38.455 -24.040 -11.991  0.00  0.00    +0.055 C 
ATOM     27  C   UNL     1      37.554 -23.174 -11.406  0.00  0.00    +0.114 C 
ATOM     28  H   UNL     1      33.993 -23.068 -12.841  0.00  0.00    +0.160 HD
BRANCH  25  30
ATOM     29  N   UNL     1      41.014 -26.651 -14.108  0.00  0.00    -0.242 NA
ATOM     30  C   UNL     1      38.810 -25.729 -13.743  0.00  0.00    +0.050 C 
ATOM     31  C   UNL     1      38.281 -26.601 -14.689  0.00  0.00    +0.006 C 
ATOM     32  C   UNL     1      40.171 -25.795 -13.491  0.00  0.00    +0.101 C 
ATOM     33  C   UNL     1      39.117 -27.497 -15.345  0.00  0.00    +0.021 C 
ATOM     34  C   UNL     1      40.465 -27.483 -15.021  0.00  0.00    +0.099 C 
ENDBRANCH  25  30
ENDBRANCH  20  21
ENDBRANCH   1  20
TORSDOF 6
ENDMDL
MODEL 2
REMARK VINA RESULT:     -11.7      3.851      6.618
REMARK  Name = 9865515
REMARK  6 active torsions:
REMARK  status: ('A' for Active; 'I' for Inactive)
REMARK    1  A    between atoms: C_1  and  C_20
REMARK    2  A    between atoms: C_2  and  C_9
REMARK    3  A    between atoms: N_8  and  C_11
REMARK    4  A    between atoms: C_12  and  N_17
REMARK    5  A    between atoms: C_20  and  N_21
REMARK    6  A    between atoms: C_25  and  C_30
REMARK                            x       y       z     vdW  Elec       q    Type
REMARK                         _______ _______ _______ _____ _____    ______ ____
ROOT
ATOM      1  C   UNL     1      35.065 -19.494 -21.141  0.00  0.00    -0.002 C 
ATOM      2  C   UNL     1      34.838 -17.393 -22.961  0.00  0.00    +0.054 C 
ATOM      3  C   UNL     1      34.533 -19.724 -22.409  0.00  0.00    -0.002 C 
ATOM      4  C   UNL     1      35.484 -18.213 -20.782  0.00  0.00    -0.002 C 
ATOM      5  C   UNL     1      34.419 -18.674 -23.319  0.00  0.00    +0.004 C 
ATOM      6  C   UNL     1      35.370 -17.162 -21.692  0.00  0.00    +0.004 C 
ENDROOT
BRANCH   2   9
ATOM      7  O   UNL     1      35.107 -16.462 -25.076  0.00  0.00    -0.270 OA
ATOM      8  N   UNL     1      34.130 -15.123 -23.415  0.00  0.00    -0.279 N 
ATOM      9  C   UNL     1      34.716 -16.296 -23.909  0.00  0.00    +0.250 C 
ATOM     10  H   UNL     1      33.871 -15.141 -22.466  0.00  0.00    +0.155 HD
BRANCH   8  11
ATOM     11  C   UNL     1      33.861 -13.914 -24.105  0.00  0.00    +0.064 C 
ATOM     12  C   UNL     1      33.978 -12.697 -23.454  0.00  0.00    +0.055 C 
ATOM     13  C   UNL     1      33.482 -13.987 -25.435  0.00  0.00    +0.016 C 
ATOM     14  C   UNL     1      33.708 -11.521 -24.153  0.00  0.00    +0.015 C 
ATOM     15  C   UNL     1      33.212 -12.811 -26.134  0.00  0.00    +0.001 C 
ATOM     16  C   UNL     1      33.325 -11.577 -25.493  0.00  0.00    +0.001 C 
BRANCH  12  17
ATOM     17  N   UNL     1      34.365 -12.616 -22.098  0.00  0.00    -0.356 N 
ATOM     18  H   UNL     1      34.757 -11.784 -21.747  0.00  0.00    +0.142 HD
ATOM     19  H   UNL     1      34.243 -13.392 -21.504  0.00  0.00    +0.142 HD
ENDBRANCH  12  17
ENDBRANCH   8  11
ENDBRANCH   2   9
BRANCH   1  20
ATOM     20  C   UNL     1      35.189 -20.618 -20.167  0.00  0.00    +0.124 C 
BRANCH  20  21
ATOM     21  N   UNL     1      33.887 -21.050 -19.708  0.00  0.00    -0.264 N 
ATOM     22  N   UNL     1      34.786 -22.135 -17.831  0.00  0.00    -0.338 NA
ATOM     23  N   UNL     1      32.412 -22.135 -18.241  0.00  0.00    -0.170 NA
ATOM     24  C   UNL     1      33.690 -21.796 -18.559  0.00  0.00    +0.145 C 
ATOM     25  C   UNL     1      34.557 -22.861 -16.718  0.00  0.00    +0.147 C 
ATOM     26  C   UNL     1      33.301 -23.258 -16.306  0.00  0.00    +0.055 C 
ATOM     27  C   UNL     1      32.255 -22.863 -17.115  0.00  0.00    +0.114 C 
ATOM     28  H   UNL     1      33.099 -20.799 -20.242  0.00  0.00    +0.160 HD
BRANCH  25  30
ATOM     29  N   UNL     1      36.760 -24.581 -14.253  0.00  0.00    -0.242 NA
ATOM     30  C   UNL     1      35.735 -23.210 -15.960  0.00  0.00    +0.050 C 
ATOM     31  C   UNL     1      36.945 -22.557 -16.171  0.00  0.00    +0.006 C 
ATOM     32  C   UNL     1      35.697 -24.207 -14.998  0.00  0.00    +0.101 C 
ATOM     33  C   UNL     1      38.062 -22.914 -15.425  0.00  0.00    +0.021 C 
ATOM     34  C   UNL     1      37.919 -23.924 -14.486  0.00  0.00    +0.099 C 
ENDBRANCH  25  30
ENDBRANCH  20  21
ENDBRANCH   1  20
TORSDOF 6
ENDMDL
MODEL 3
REMARK VINA RESULT:     -11.2      7.905     12.091
REMARK  Name = 9865515
REMARK  6 active torsions:
REMARK  status: ('A' for Active; 'I' for Inactive)
REMARK    1  A    between atoms: C_1  and  C_20
REMARK    2  A    between atoms: C_2  and  C_9
REMARK    3  A    between atoms: N_8  and  C_11
REMARK    4  A    between atoms: C_12  and  N_17
REMARK    5  A    between atoms: C_20  and  N_21
REMARK    6  A    between atoms: C_25  and  C_30
REMARK                            x       y       z     vdW  Elec       q    Type
REMARK                         _______ _______ _______ _____ _____    ______ ____
ROOT
ATOM      1  C   UNL     1      33.959 -13.607 -22.282  0.00  0.00    -0.002 C 
ATOM      2  C   UNL     1      32.476 -11.248 -22.158  0.00  0.00    +0.054 C 
ATOM      3  C   UNL     1      33.036 -13.417 -21.254  0.00  0.00    -0.002 C 
ATOM      4  C   UNL     1      34.140 -12.618 -23.249  0.00  0.00    -0.002 C 
ATOM      5  C   UNL     1      32.295 -12.237 -21.191  0.00  0.00    +0.004 C 
ATOM      6  C   UNL     1      33.398 -11.439 -23.186  0.00  0.00    +0.004 C 
ENDROOT
BRANCH   2   9
ATOM      7  O   UNL     1      30.464 -10.081 -22.088  0.00  0.00    -0.270 OA
ATOM      8  N   UNL     1      32.450  -8.832 -22.008  0.00  0.00    -0.279 N 
ATOM      9  C   UNL     1      31.704 -10.016 -22.091  0.00  0.00    +0.250 C 
ATOM     10  H   UNL     1      33.428  -8.940 -22.022  0.00  0.00    +0.155 HD
BRANCH   8  11
ATOM     11  C   UNL     1      31.978  -7.500 -21.907  0.00  0.00    +0.064 C 
ATOM     12  C   UNL     1      31.948  -6.860 -20.678  0.00  0.00    +0.055 C 
ATOM     13  C   UNL     1      31.550  -6.865 -23.061  0.00  0.00    +0.016 C 
ATOM     14  C   UNL     1      31.479  -5.548 -20.604  0.00  0.00    +0.015 C 
ATOM     15  C   UNL     1      31.081  -5.554 -22.986  0.00  0.00    +0.001 C 
ATOM     16  C   UNL     1      31.045  -4.895 -21.757  0.00  0.00    +0.001 C 
BRANCH  12  17
ATOM     17  N   UNL     1      32.384  -7.501 -19.498  0.00  0.00    -0.356 N 
ATOM     18  H   UNL     1      31.838  -8.214 -19.095  0.00  0.00    +0.142 HD
ATOM     19  H   UNL     1      33.234  -7.235 -19.078  0.00  0.00    +0.142 HD
ENDBRANCH  12  17
ENDBRANCH   8  11
ENDBRANCH   2   9
BRANCH   1  20
ATOM     20  C   UNL     1      34.751 -14.870 -22.351  0.00  0.00    +0.124 C 
BRANCH  20  21
ATOM     21  N   UNL     1      34.355 -15.667 -23.492  0.00  0.00    -0.264 N 
ATOM     22  N   UNL     1      34.869 -17.681 -22.402  0.00  0.00    -0.338 NA
ATOM     23  N   UNL     1      34.009 -17.677 -24.653  0.00  0.00    -0.170 NA
ATOM     24  C   UNL     1      34.413 -17.050 -23.516  0.00  0.00    +0.145 C 
ATOM     25  C   UNL     1      34.912 -19.028 -22.460  0.00  0.00    +0.147 C 
ATOM     26  C   UNL     1      34.526 -19.761 -23.565  0.00  0.00    +0.055 C 
ATOM     27  C   UNL     1      34.079 -19.025 -24.643  0.00  0.00    +0.114 C 
ATOM     28  H   UNL     1      34.026 -15.201 -24.293  0.00  0.00    +0.160 HD
BRANCH  25  30
ATOM     29  N   UNL     1      37.144 -19.919 -19.612  0.00  0.00    -0.242 NA
ATOM     30  C   UNL     1      35.399 -19.679 -21.267  0.00  0.00    +0.050 C 
ATOM     31  C   UNL     1      34.647 -20.658 -20.626  0.00  0.00    +0.006 C 
ATOM     32  C   UNL     1      36.630 -19.349 -20.724  0.00  0.00    +0.101 C 
ATOM     33  C   UNL     1      35.142 -21.268 -19.479  0.00  0.00    +0.021 C 
ATOM     34  C   UNL     1      36.386 -20.867 -19.017  0.00  0.00    +0.099 C 
ENDBRANCH  25  30
ENDBRANCH  20  21
ENDBRANCH   1  20
TORSDOF 6
ENDMDL
MODEL 4
REMARK VINA RESULT:     -11.1      6.571     10.835
REMARK  Name = 9865515
REMARK  6 active torsions:
REMARK  status: ('A' for Active; 'I' for Inactive)
REMARK    1  A    between atoms: C_1  and  C_20
REMARK    2  A    between atoms: C_2  and  C_9
REMARK    3  A    between atoms: N_8  and  C_11
REMARK    4  A    between atoms: C_12  and  N_17
REMARK    5  A    between atoms: C_20  and  N_21
REMARK    6  A    between atoms: C_25  and  C_30
REMARK                            x       y       z     vdW  Elec       q    Type
REMARK                         _______ _______ _______ _____ _____    ______ ____
ROOT
ATOM      1  C   UNL     1      34.214 -15.557 -23.522  0.00  0.00    -0.002 C 
ATOM      2  C   UNL     1      33.779 -12.850 -24.034  0.00  0.00    +0.054 C 
ATOM      3  C   UNL     1      33.747 -15.150 -24.772  0.00  0.00    -0.002 C 
ATOM      4  C   UNL     1      34.464 -14.611 -22.529  0.00  0.00    -0.002 C 
ATOM      5  C   UNL     1      33.529 -13.797 -25.028  0.00  0.00    +0.004 C 
ATOM      6  C   UNL     1      34.247 -13.257 -22.785  0.00  0.00    +0.004 C 
ENDROOT
BRANCH   2   9
ATOM      7  O   UNL     1      33.059 -11.103 -25.391  0.00  0.00    -0.270 OA
ATOM      8  N   UNL     1      33.888 -10.558 -23.264  0.00  0.00    -0.279 N 
ATOM      9  C   UNL     1      33.549 -11.438 -24.301  0.00  0.00    +0.250 C 
ATOM     10  H   UNL     1      34.268 -10.973 -22.457  0.00  0.00    +0.155 HD
BRANCH   8  11
ATOM     11  C   UNL     1      33.753  -9.147 -23.227  0.00  0.00    +0.064 C 
ATOM     12  C   UNL     1      32.596  -8.568 -22.732  0.00  0.00    +0.055 C 
ATOM     13  C   UNL     1      34.803  -8.375 -23.698  0.00  0.00    +0.016 C 
ATOM     14  C   UNL     1      32.487  -7.177 -22.707  0.00  0.00    +0.015 C 
ATOM     15  C   UNL     1      34.693  -6.985 -23.672  0.00  0.00    +0.001 C 
ATOM     16  C   UNL     1      33.535  -6.386 -23.177  0.00  0.00    +0.001 C 
BRANCH  12  17
ATOM     17  N   UNL     1      31.524  -9.350 -22.251  0.00  0.00    -0.356 N 
ATOM     18  H   UNL     1      31.525  -9.668 -21.319  0.00  0.00    +0.142 HD
ATOM     19  H   UNL     1      30.773  -9.577 -22.847  0.00  0.00    +0.142 HD
ENDBRANCH  12  17
ENDBRANCH   8  11
ENDBRANCH   2   9
BRANCH   1  20
ATOM     20  C   UNL     1      34.450 -17.005 -23.249  0.00  0.00    +0.124 C 
BRANCH  20  21
ATOM     21  N   UNL     1      35.839 -17.252 -22.928  0.00  0.00    -0.264 N 
ATOM     22  N   UNL     1      35.298 -18.923 -21.372  0.00  0.00    -0.338 NA
ATOM     23  N   UNL     1      37.593 -18.326 -21.799  0.00  0.00    -0.170 NA
ATOM     24  C   UNL     1      36.255 -18.195 -22.005  0.00  0.00    +0.145 C 
ATOM     25  C   UNL     1      35.739 -19.833 -20.480  0.00  0.00    +0.147 C 
ATOM     26  C   UNL     1      37.073 -20.045 -20.196  0.00  0.00    +0.055 C 
ATOM     27  C   UNL     1      37.964 -19.254 -20.892  0.00  0.00    +0.114 C 
ATOM     28  H   UNL     1      36.525 -16.719 -23.392  0.00  0.00    +0.160 HD
BRANCH  25  30
ATOM     29  N   UNL     1      32.352 -21.040 -19.500  0.00  0.00    -0.242 NA
ATOM     30  C   UNL     1      34.706 -20.596 -19.819  0.00  0.00    +0.050 C 
ATOM     31  C   UNL     1      35.026 -21.587 -18.896  0.00  0.00    +0.006 C 
ATOM     32  C   UNL     1      33.366 -20.364 -20.083  0.00  0.00    +0.101 C 
ATOM     33  C   UNL     1      34.010 -22.304 -18.275  0.00  0.00    +0.021 C 
ATOM     34  C   UNL     1      32.700 -21.995 -18.609  0.00  0.00    +0.099 C 
ENDBRANCH  25  30
ENDBRANCH  20  21
ENDBRANCH   1  20
TORSDOF 6
ENDMDL
MODEL 5
REMARK VINA RESULT:     -11.0      2.871      4.504
REMARK  Name = 9865515
REMARK  6 active torsions:
REMARK  status: ('A' for Active; 'I' for Inactive)
REMARK    1  A    between atoms: C_1  and  C_20
REMARK    2  A    between atoms: C_2  and  C_9
REMARK    3  A    between atoms: N_8  and  C_11
REMARK    4  A    between atoms: C_12  and  N_17
REMARK    5  A    between atoms: C_20  and  N_21
REMARK    6  A    between atoms: C_25  and  C_30
REMARK                            x       y       z     vdW  Elec       q    Type
REMARK                         _______ _______ _______ _____ _____    ______ ____
ROOT
ATOM      1  C   UNL     1      35.726 -20.982 -19.339  0.00  0.00    -0.002 C 
ATOM      2  C   UNL     1      35.412 -19.014 -21.291  0.00  0.00    +0.054 C 
ATOM      3  C   UNL     1      34.473 -20.760 -19.910  0.00  0.00    -0.002 C 
ATOM      4  C   UNL     1      36.822 -20.220 -19.743  0.00  0.00    -0.002 C 
ATOM      5  C   UNL     1      34.316 -19.776 -20.886  0.00  0.00    +0.004 C 
ATOM      6  C   UNL     1      36.665 -19.236 -20.719  0.00  0.00    +0.004 C 
ENDROOT
BRANCH   2   9
ATOM      7  O   UNL     1      35.573 -18.238 -23.478  0.00  0.00    -0.270 OA
ATOM      8  N   UNL     1      34.697 -16.775 -21.866  0.00  0.00    -0.279 N 
ATOM      9  C   UNL     1      35.248 -17.986 -22.307  0.00  0.00    +0.250 C 
ATOM     10  H   UNL     1      34.489 -16.723 -20.906  0.00  0.00    +0.155 HD
BRANCH   8  11
ATOM     11  C   UNL     1      34.401 -15.615 -22.625  0.00  0.00    +0.064 C 
ATOM     12  C   UNL     1      34.339 -14.375 -22.010  0.00  0.00    +0.055 C 
ATOM     13  C   UNL     1      34.175 -15.758 -23.984  0.00  0.00    +0.016 C 
ATOM     14  C   UNL     1      34.045 -13.247 -22.777  0.00  0.00    +0.015 C 
ATOM     15  C   UNL     1      33.881 -14.631 -24.751  0.00  0.00    +0.001 C 
ATOM     16  C   UNL     1      33.816 -13.375 -24.147  0.00  0.00    +0.001 C 
BRANCH  12  17
ATOM     17  N   UNL     1      34.569 -14.222 -20.625  0.00  0.00    -0.356 N 
ATOM     18  H   UNL     1      33.838 -14.380 -19.985  0.00  0.00    +0.142 HD
ATOM     19  H   UNL     1      35.460 -13.957 -20.300  0.00  0.00    +0.142 HD
ENDBRANCH  12  17
ENDBRANCH   8  11
ENDBRANCH   2   9
BRANCH   1  20
ATOM     20  C   UNL     1      35.895 -22.036 -18.296  0.00  0.00    +0.124 C 
BRANCH  20  21
ATOM     21  N   UNL     1      34.638 -22.318 -17.638  0.00  0.00    -0.264 N 
ATOM     22  N   UNL     1      35.687 -23.490 -15.896  0.00  0.00    -0.338 NA
ATOM     23  N   UNL     1      33.292 -23.227 -15.944  0.00  0.00    -0.170 NA
ATOM     24  C   UNL     1      34.536 -23.034 -16.457  0.00  0.00    +0.145 C 
ATOM     25  C   UNL     1      35.551 -24.183 -14.747  0.00  0.00    +0.147 C 
ATOM     26  C   UNL     1      34.335 -24.436 -14.143  0.00  0.00    +0.055 C 
ATOM     27  C   UNL     1      33.229 -23.928 -14.793  0.00  0.00    +0.114 C 
ATOM     28  H   UNL     1      33.811 -21.982 -18.052  0.00  0.00    +0.160 HD
BRANCH  25  30
ATOM     29  N   UNL     1      39.201 -24.661 -14.170  0.00  0.00    -0.242 NA
ATOM     30  C   UNL     1      36.784 -24.659 -14.167  0.00  0.00    +0.050 C 
ATOM     31  C   UNL     1      36.778 -25.541 -13.091  0.00  0.00    +0.006 C 
ATOM     32  C   UNL     1      38.012 -24.253 -14.665  0.00  0.00    +0.101 C 
ATOM     33  C   UNL     1      37.981 -25.984 -12.555  0.00  0.00    +0.021 C 
ATOM     34  C   UNL     1      39.156 -25.518 -13.125  0.00  0.00    +0.099 C 
ENDBRANCH  25  30
ENDBRANCH  20  21
ENDBRANCH   1  20
TORSDOF 6
ENDMDL
MODEL 6
REMARK VINA RESULT:     -10.9      8.380     12.775
REMARK  Name = 9865515
REMARK  6 active torsions:
REMARK  status: ('A' for Active; 'I' for Inactive)
REMARK    1  A    between atoms: C_1  and  C_20
REMARK    2  A    between atoms: C_2  and  C_9
REMARK    3  A    between atoms: N_8  and  C_11
REMARK    4  A    between atoms: C_12  and  N_17
REMARK    5  A    between atoms: C_20  and  N_21
REMARK    6  A    between atoms: C_25  and  C_30
REMARK                            x       y       z     vdW  Elec       q    Type
REMARK                         _______ _______ _______ _____ _____    ______ ____
ROOT
ATOM      1  C   UNL     1      33.837 -13.075 -22.806  0.00  0.00    -0.002 C 
ATOM      2  C   UNL     1      32.397 -10.704 -22.517  0.00  0.00    +0.054 C 
ATOM      3  C   UNL     1      34.169 -11.959 -23.574  0.00  0.00    -0.002 C 
ATOM      4  C   UNL     1      32.785 -13.005 -21.893  0.00  0.00    -0.002 C 
ATOM      5  C   UNL     1      33.449 -10.774 -23.431  0.00  0.00    +0.004 C 
ATOM      6  C   UNL     1      32.065 -11.819 -21.749  0.00  0.00    +0.004 C 
ENDROOT
BRANCH   2   9
ATOM      7  O   UNL     1      30.408  -9.523 -22.268  0.00  0.00    -0.270 OA
ATOM      8  N   UNL     1      32.403  -8.290 -22.329  0.00  0.00    -0.279 N 
ATOM      9  C   UNL     1      31.644  -9.468 -22.370  0.00  0.00    +0.250 C 
ATOM     10  H   UNL     1      33.376  -8.405 -22.423  0.00  0.00    +0.155 HD
BRANCH   8  11
ATOM     11  C   UNL     1      31.952  -6.956 -22.169  0.00  0.00    +0.064 C 
ATOM     12  C   UNL     1      31.696  -6.168 -23.279  0.00  0.00    +0.055 C 
ATOM     13  C   UNL     1      31.779  -6.470 -20.883  0.00  0.00    +0.016 C 
ATOM     14  C   UNL     1      31.253  -4.857 -23.097  0.00  0.00    +0.015 C 
ATOM     15  C   UNL     1      31.337  -5.160 -20.702  0.00  0.00    +0.001 C 
ATOM     16  C   UNL     1      31.074  -4.353 -21.809  0.00  0.00    +0.001 C 
BRANCH  12  17
ATOM     17  N   UNL     1      31.869  -6.658 -24.592  0.00  0.00    -0.356 N 
ATOM     18  H   UNL     1      31.226  -7.303 -24.966  0.00  0.00    +0.142 HD
ATOM     19  H   UNL     1      32.632  -6.353 -25.135  0.00  0.00    +0.142 HD
ENDBRANCH  12  17
ENDBRANCH   8  11
ENDBRANCH   2   9
BRANCH   1  20
ATOM     20  C   UNL     1      34.608 -14.343 -22.958  0.00  0.00    +0.124 C 
BRANCH  20  21
ATOM     21  N   UNL     1      34.001 -15.201 -23.952  0.00  0.00    -0.264 N 
ATOM     22  N   UNL     1      34.735 -17.153 -22.876  0.00  0.00    -0.338 NA
ATOM     23  N   UNL     1      33.449 -17.271 -24.910  0.00  0.00    -0.170 NA
ATOM     24  C   UNL     1      34.064 -16.584 -23.911  0.00  0.00    +0.145 C 
ATOM     25  C   UNL     1      34.776 -18.501 -22.867  0.00  0.00    +0.147 C 
ATOM     26  C   UNL     1      34.186 -19.293 -23.832  0.00  0.00    +0.055 C 
ATOM     27  C   UNL     1      33.529 -18.616 -24.839  0.00  0.00    +0.114 C 
ATOM     28  H   UNL     1      33.517 -14.779 -24.698  0.00  0.00    +0.160 HD
BRANCH  25  30
ATOM     29  N   UNL     1      37.506 -19.184 -20.424  0.00  0.00    -0.242 NA
ATOM     30  C   UNL     1      35.494 -19.087 -21.760  0.00  0.00    +0.050 C 
ATOM     31  C   UNL     1      34.916 -20.080 -20.975  0.00  0.00    +0.006 C 
ATOM     32  C   UNL     1      36.780 -18.678 -21.444  0.00  0.00    +0.101 C 
ATOM     33  C   UNL     1      35.632 -20.625 -19.916  0.00  0.00    +0.021 C 
ATOM     34  C   UNL     1      36.912 -20.147 -19.683  0.00  0.00    +0.099 C 
ENDBRANCH  25  30
ENDBRANCH  20  21
ENDBRANCH   1  20
TORSDOF 6
ENDMDL
MODEL 7
REMARK VINA RESULT:     -10.9      2.434      4.118
REMARK  Name = 9865515
REMARK  6 active torsions:
REMARK  status: ('A' for Active; 'I' for Inactive)
REMARK    1  A    between atoms: C_1  and  C_20
REMARK    2  A    between atoms: C_2  and  C_9
REMARK    3  A    between atoms: N_8  and  C_11
REMARK    4  A    between atoms: C_12  and  N_17
REMARK    5  A    between atoms: C_20  and  N_21
REMARK    6  A    between atoms: C_25  and  C_30
REMARK                            x       y       z     vdW  Elec       q    Type
REMARK                         _______ _______ _______ _____ _____    ______ ____
ROOT
ATOM      1  C   UNL     1      34.337 -22.398 -18.517  0.00  0.00    -0.002 C 
ATOM      2  C   UNL     1      35.134 -20.272 -20.137  0.00  0.00    +0.054 C 
ATOM      3  C   UNL     1      33.384 -21.663 -19.223  0.00  0.00    -0.002 C 
ATOM      4  C   UNL     1      35.688 -22.069 -18.621  0.00  0.00    -0.002 C 
ATOM      5  C   UNL     1      33.783 -20.599 -20.032  0.00  0.00    +0.004 C 
ATOM      6  C   UNL     1      36.087 -21.006 -19.431  0.00  0.00    +0.004 C 
ENDROOT
BRANCH   2   9
ATOM      7  O   UNL     1      36.760 -18.903 -21.084  0.00  0.00    -0.270 OA
ATOM      8  N   UNL     1      34.520 -18.475 -21.638  0.00  0.00    -0.279 N 
ATOM      9  C   UNL     1      35.550 -19.161 -20.979  0.00  0.00    +0.250 C 
ATOM     10  H   UNL     1      33.608 -18.795 -21.456  0.00  0.00    +0.155 HD
BRANCH   8  11
ATOM     11  C   UNL     1      34.622 -17.380 -22.532  0.00  0.00    +0.064 C 
ATOM     12  C   UNL     1      34.504 -17.579 -23.898  0.00  0.00    +0.055 C 
ATOM     13  C   UNL     1      34.843 -16.119 -22.004  0.00  0.00    +0.016 C 
ATOM     14  C   UNL     1      34.609 -16.486 -24.759  0.00  0.00    +0.015 C 
ATOM     15  C   UNL     1      34.948 -15.026 -22.864  0.00  0.00    +0.001 C 
ATOM     16  C   UNL     1      34.831 -15.210 -24.242  0.00  0.00    +0.001 C 
BRANCH  12  17
ATOM     17  N   UNL     1      34.278 -18.863 -24.443  0.00  0.00    -0.356 N 
ATOM     18  H   UNL     1      33.458 -19.041 -24.958  0.00  0.00    +0.142 HD
ATOM     19  H   UNL     1      34.940 -19.579 -24.308  0.00  0.00    +0.142 HD
ENDBRANCH  12  17
ENDBRANCH   8  11
ENDBRANCH   2   9
BRANCH   1  20
ATOM     20  C   UNL     1      33.911 -23.537 -17.652  0.00  0.00    +0.124 C 
BRANCH  20  21
ATOM     21  N   UNL     1      32.815 -23.149 -16.790  0.00  0.00    -0.264 N 
ATOM     22  N   UNL     1      33.913 -23.918 -14.863  0.00  0.00    -0.338 NA
ATOM     23  N   UNL     1      31.721 -22.927 -14.727  0.00  0.00    -0.170 NA
ATOM     24  C   UNL     1      32.817 -23.337 -15.419  0.00  0.00    +0.145 C 
ATOM     25  C   UNL     1      33.880 -24.085 -13.526  0.00  0.00    +0.147 C 
ATOM     26  C   UNL     1      32.818 -23.704 -12.730  0.00  0.00    +0.055 C 
ATOM     27  C   UNL     1      31.755 -23.125 -13.392  0.00  0.00    +0.114 C 
ATOM     28  H   UNL     1      32.026 -22.730 -17.202  0.00  0.00    +0.160 HD
BRANCH  25  30
ATOM     29  N   UNL     1      36.318 -25.309 -10.986  0.00  0.00    -0.242 NA
ATOM     30  C   UNL     1      35.054 -24.703 -12.955  0.00  0.00    +0.050 C 
ATOM     31  C   UNL     1      36.031 -25.271 -13.766  0.00  0.00    +0.006 C 
ATOM     32  C   UNL     1      35.244 -24.748 -11.584  0.00  0.00    +0.101 C 
ATOM     33  C   UNL     1      37.151 -25.858 -13.188  0.00  0.00    +0.021 C 
ATOM     34  C   UNL     1      37.246 -25.851 -11.806  0.00  0.00    +0.099 C 
ENDBRANCH  25  30
ENDBRANCH  20  21
ENDBRANCH   1  20
TORSDOF 6
ENDMDL
MODEL 8
REMARK VINA RESULT:     -10.9      7.713     14.613
REMARK  Name = 9865515
REMARK  6 active torsions:
REMARK  status: ('A' for Active; 'I' for Inactive)
REMARK    1  A    between atoms: C_1  and  C_20
REMARK    2  A    between atoms: C_2  and  C_9
REMARK    3  A    between atoms: N_8  and  C_11
REMARK    4  A    between atoms: C_12  and  N_17
REMARK    5  A    between atoms: C_20  and  N_21
REMARK    6  A    between atoms: C_25  and  C_30
REMARK                            x       y       z     vdW  Elec       q    Type
REMARK                         _______ _______ _______ _____ _____    ______ ____
ROOT
ATOM      1  C   UNL     1      33.849 -13.751 -22.799  0.00  0.00    -0.002 C 
ATOM      2  C   UNL     1      34.838 -16.304 -22.272  0.00  0.00    +0.054 C 
ATOM      3  C   UNL     1      34.172 -14.117 -21.493  0.00  0.00    -0.002 C 
ATOM      4  C   UNL     1      34.020 -14.661 -23.842  0.00  0.00    -0.002 C 
ATOM      5  C   UNL     1      34.666 -15.394 -21.229  0.00  0.00    +0.004 C 
ATOM      6  C   UNL     1      34.515 -15.938 -23.578  0.00  0.00    +0.004 C 
ENDROOT
BRANCH   2   9
ATOM      7  O   UNL     1      36.151 -18.153 -22.794  0.00  0.00    -0.270 OA
ATOM      8  N   UNL     1      34.905 -18.231 -20.807  0.00  0.00    -0.279 N 
ATOM      9  C   UNL     1      35.352 -17.638 -21.996  0.00  0.00    +0.250 C 
ATOM     10  H   UNL     1      34.270 -17.699 -20.276  0.00  0.00    +0.155 HD
BRANCH   8  11
ATOM     11  C   UNL     1      35.250 -19.496 -20.270  0.00  0.00    +0.064 C 
ATOM     12  C   UNL     1      36.557 -19.767 -19.902  0.00  0.00    +0.055 C 
ATOM     13  C   UNL     1      34.249 -20.444 -20.129  0.00  0.00    +0.016 C 
ATOM     14  C   UNL     1      36.872 -21.021 -19.376  0.00  0.00    +0.015 C 
ATOM     15  C   UNL     1      34.564 -21.697 -19.604  0.00  0.00    +0.001 C 
ATOM     16  C   UNL     1      35.876 -21.986 -19.228  0.00  0.00    +0.001 C 
BRANCH  12  17
ATOM     17  N   UNL     1      37.581 -18.805 -20.043  0.00  0.00    -0.356 N 
ATOM     18  H   UNL     1      38.342 -18.800 -19.417  0.00  0.00    +0.142 HD
ATOM     19  H   UNL     1      37.535 -18.139 -20.767  0.00  0.00    +0.142 HD
ENDBRANCH  12  17
ENDBRANCH   8  11
ENDBRANCH   2   9
BRANCH   1  20
ATOM     20  C   UNL     1      33.321 -12.384 -23.083  0.00  0.00    +0.124 C 
BRANCH  20  21
ATOM     21  N   UNL     1      34.148 -11.702 -24.055  0.00  0.00    -0.264 N 
ATOM     22  N   UNL     1      33.685  -9.594 -23.135  0.00  0.00    -0.338 NA
ATOM     23  N   UNL     1      35.131  -9.818 -25.049  0.00  0.00    -0.170 NA
ATOM     24  C   UNL     1      34.326 -10.330 -24.080  0.00  0.00    +0.145 C 
ATOM     25  C   UNL     1      33.882  -8.261 -23.188  0.00  0.00    +0.147 C 
ATOM     26  C   UNL     1      34.677  -7.640 -24.130  0.00  0.00    +0.055 C 
ATOM     27  C   UNL     1      35.283  -8.477 -25.044  0.00  0.00    +0.114 C 
ATOM     28  H   UNL     1      34.608 -12.245 -24.736  0.00  0.00    +0.160 HD
BRANCH  25  30
ATOM     29  N   UNL     1      32.061  -7.448 -20.040  0.00  0.00    -0.242 NA
ATOM     30  C   UNL     1      33.192  -7.497 -22.175  0.00  0.00    +0.050 C 
ATOM     31  C   UNL     1      32.986  -6.129 -22.324  0.00  0.00    +0.006 C 
ATOM     32  C   UNL     1      32.715  -8.103 -21.024  0.00  0.00    +0.101 C 
ATOM     33  C   UNL     1      32.318  -5.421 -21.332  0.00  0.00    +0.021 C 
ATOM     34  C   UNL     1      31.879  -6.120 -20.219  0.00  0.00    +0.099 C 
ENDBRANCH  25  30
ENDBRANCH  20  21
ENDBRANCH   1  20
TORSDOF 6
ENDMDL
MODEL 9
REMARK VINA RESULT:     -10.8      4.419     11.101
REMARK  Name = 9865515
REMARK  6 active torsions:
REMARK  status: ('A' for Active; 'I' for Inactive)
REMARK    1  A    between atoms: C_1  and  C_20
REMARK    2  A    between atoms: C_2  and  C_9
REMARK    3  A    between atoms: N_8  and  C_11
REMARK    4  A    between atoms: C_12  and  N_17
REMARK    5  A    between atoms: C_20  and  N_21
REMARK    6  A    between atoms: C_25  and  C_30
REMARK                            x       y       z     vdW  Elec       q    Type
REMARK                         _______ _______ _______ _____ _____    ______ ____
ROOT
ATOM      1  C   UNL     1      35.256 -20.271 -20.094  0.00  0.00    -0.002 C 
ATOM      2  C   UNL     1      34.030 -22.175 -18.467  0.00  0.00    +0.054 C 
ATOM      3  C   UNL     1      33.868 -20.404 -20.101  0.00  0.00    -0.002 C 
ATOM      4  C   UNL     1      36.032 -21.090 -19.274  0.00  0.00    -0.002 C 
ATOM      5  C   UNL     1      33.255 -21.357 -19.288  0.00  0.00    +0.004 C 
ATOM      6  C   UNL     1      35.419 -22.042 -18.460  0.00  0.00    +0.004 C 
ENDROOT
BRANCH   2   9
ATOM      7  O   UNL     1      33.460 -24.369 -17.940  0.00  0.00    -0.270 OA
ATOM      8  N   UNL     1      32.756 -22.679 -16.472  0.00  0.00    -0.279 N 
ATOM      9  C   UNL     1      33.391 -23.171 -17.620  0.00  0.00    +0.250 C 
ATOM     10  H   UNL     1      32.783 -21.703 -16.352  0.00  0.00    +0.155 HD
BRANCH   8  11
ATOM     11  C   UNL     1      32.078 -23.406 -15.460  0.00  0.00    +0.064 C 
ATOM     12  C   UNL     1      30.696 -23.495 -15.471  0.00  0.00    +0.055 C 
ATOM     13  C   UNL     1      32.833 -24.015 -14.472  0.00  0.00    +0.016 C 
ATOM     14  C   UNL     1      30.051 -24.215 -14.464  0.00  0.00    +0.015 C 
ATOM     15  C   UNL     1      32.189 -24.735 -13.466  0.00  0.00    +0.001 C 
ATOM     16  C   UNL     1      30.797 -24.835 -13.462  0.00  0.00    +0.001 C 
BRANCH  12  17
ATOM     17  N   UNL     1      29.921 -22.877 -16.476  0.00  0.00    -0.356 N 
ATOM     18  H   UNL     1      29.498 -23.423 -17.178  0.00  0.00    +0.142 HD
ATOM     19  H   UNL     1      29.802 -21.899 -16.475  0.00  0.00    +0.142 HD
ENDBRANCH  12  17
ENDBRANCH   8  11
ENDBRANCH   2   9
BRANCH   1  20
ATOM     20  C   UNL     1      35.913 -19.251 -20.963  0.00  0.00    +0.124 C 
BRANCH  20  21
ATOM     21  N   UNL     1      35.520 -19.419 -22.346  0.00  0.00    -0.264 N 
ATOM     22  N   UNL     1      34.833 -17.184 -22.539  0.00  0.00    -0.338 NA
ATOM     23  N   UNL     1      34.662 -18.696 -24.407  0.00  0.00    -0.170 NA
ATOM     24  C   UNL     1      34.989 -18.402 -23.120  0.00  0.00    +0.145 C 
ATOM     25  C   UNL     1      34.314 -16.216 -23.321  0.00  0.00    +0.147 C 
ATOM     26  C   UNL     1      33.948 -16.409 -24.638  0.00  0.00    +0.055 C 
ATOM     27  C   UNL     1      34.147 -17.682 -25.133  0.00  0.00    +0.114 C 
ATOM     28  H   UNL     1      35.637 -20.306 -22.758  0.00  0.00    +0.160 HD
BRANCH  25  30
ATOM     29  N   UNL     1      33.678 -12.569 -22.891  0.00  0.00    -0.242 NA
ATOM     30  C   UNL     1      34.156 -14.930 -22.685  0.00  0.00    +0.050 C 
ATOM     31  C   UNL     1      34.320 -14.784 -21.311  0.00  0.00    +0.006 C 
ATOM     32  C   UNL     1      33.838 -13.801 -23.423  0.00  0.00    +0.101 C 
ATOM     33  C   UNL     1      34.163 -13.532 -20.727  0.00  0.00    +0.021 C 
ATOM     34  C   UNL     1      33.845 -12.466 -21.553  0.00  0.00    +0.099 C 
ENDBRANCH  25  30
ENDBRANCH  20  21
ENDBRANCH   1  20
TORSDOF 6
ENDMDL
