MODEL 1
REMARK VINA RESULT:     -11.7      0.000      0.000
REMARK  Name = 44123754
REMARK  11 active torsions:
REMARK  status: ('A' for Active; 'I' for Inactive)
REMARK    1  A    between atoms: C_3  and  C_22
REMARK    2  A    between atoms: C_4  and  C_7
REMARK    3  A    between atoms: N_6  and  C_15
REMARK    4  A    between atoms: C_8  and  N_12
REMARK    5  A    between atoms: C_15  and  O_16
REMARK    6  A    between atoms: O_16  and  P_17
REMARK    7  A    between atoms: P_17  and  O_20
REMARK    8  A    between atoms: C_22  and  C_23
REMARK    9  A    between atoms: C_26  and  C_29
REMARK   10  A    between atoms: C_29  and  O_30
REMARK   11  A    between atoms: O_30  and  C_32
REMARK                            x       y       z     vdW  Elec       q    Type
REMARK                         _______ _______ _______ _____ _____    ______ ____
ROOT
ATOM      1  O   UNL     1      34.875 -24.773 -15.988  0.00  0.00    -0.354 OA
ATOM      2  N   UNL     1      34.156 -24.364 -17.105  0.00  0.00    -0.081 NA
ATOM      3  C   UNL     1      33.727 -23.134 -16.809  0.00  0.00    +0.105 C 
ATOM      4  C   UNL     1      34.859 -23.783 -15.058  0.00  0.00    +0.175 C 
ATOM      5  C   UNL     1      34.142 -22.717 -15.532  0.00  0.00    +0.058 C 
ENDROOT
BRANCH   4   7
ATOM      6  N   UNL     1      37.552 -24.598 -12.661  0.00  0.00    -0.266 N 
ATOM      7  C   UNL     1      35.571 -24.064 -13.833  0.00  0.00    +0.048 C 
ATOM      8  C   UNL     1      36.930 -24.343 -13.820  0.00  0.00    +0.156 C 
ATOM      9  C   UNL     1      34.878 -24.055 -12.628  0.00  0.00    +0.003 C 
ATOM     10  C   UNL     1      36.909 -24.596 -11.486  0.00  0.00    +0.064 C 
ATOM     11  C   UNL     1      35.550 -24.324 -11.438  0.00  0.00    +0.016 C 
BRANCH   8  12
ATOM     12  N   UNL     1      37.671 -24.362 -15.022  0.00  0.00    -0.303 NA
ATOM     13  H   UNL     1      38.622 -24.105 -15.018  0.00  0.00    +0.121 HD
ATOM     14  H   UNL     1      37.237 -24.632 -15.863  0.00  0.00    +0.121 HD
ENDBRANCH   8  12
BRANCH   6  15
ATOM     15  C   UNL     1      38.987 -24.892 -12.648  0.00  0.00    +0.251 C 
BRANCH  15  16
ATOM     16  O   UNL     1      39.227 -26.019 -13.480  0.00  0.00    -0.250 OA
BRANCH  16  17
ATOM     17  P   UNL     1      40.565 -26.051 -14.417  0.00  0.00    +0.504 P 
ATOM     18  O   UNL     1      41.555 -27.052 -13.862  0.00  0.00    -0.225 OA
ATOM     19  O   UNL     1      40.990 -24.626 -14.695  0.00  0.00    -0.116 OA
BRANCH  17  20
ATOM     20  O   UNL     1      39.918 -26.664 -15.786  0.00  0.00    -0.301 OA
ATOM     21  H   UNL     1      40.459 -26.398 -16.547  0.00  0.00    +0.222 HD
ENDBRANCH  17  20
ENDBRANCH  16  17
ENDBRANCH  15  16
ENDBRANCH   6  15
ENDBRANCH   4   7
BRANCH   3  22
ATOM     22  C   UNL     1      32.918 -22.384 -17.784  0.00  0.00    +0.075 C 
BRANCH  22  23
ATOM     23  C   UNL     1      33.724 -21.547 -18.768  0.00  0.00    -0.016 C 
ATOM     24  C   UNL     1      35.118 -21.607 -18.756  0.00  0.00    -0.004 C 
ATOM     25  C   UNL     1      33.070 -20.721 -19.682  0.00  0.00    -0.004 C 
ATOM     26  C   UNL     1      35.202 -20.015 -20.571  0.00  0.00    +0.021 C 
ATOM     27  C   UNL     1      35.857 -20.841 -19.657  0.00  0.00    -0.001 C 
ATOM     28  C   UNL     1      33.809 -19.955 -20.583  0.00  0.00    -0.001 C 
BRANCH  26  29
ATOM     29  C   UNL     1      35.992 -19.198 -21.536  0.00  0.00    +0.234 C 
BRANCH  29  30
ATOM     30  O   UNL     1      35.748 -17.817 -21.296  0.00  0.00    -0.455 OA
BRANCH  30  32
ATOM     31  N   UNL     1      35.301 -15.720 -22.185  0.00  0.00    -0.210 NA
ATOM     32  C   UNL     1      35.398 -17.055 -22.380  0.00  0.00    +0.225 C 
ATOM     33  C   UNL     1      35.167 -17.680 -23.594  0.00  0.00    +0.058 C 
ATOM     34  C   UNL     1      34.814 -16.885 -24.679  0.00  0.00    +0.006 C 
ATOM     35  C   UNL     1      34.957 -14.980 -23.262  0.00  0.00    +0.102 C 
ATOM     36  C   UNL     1      34.705 -15.508 -24.518  0.00  0.00    +0.021 C 
ENDBRANCH  30  32
ENDBRANCH  29  30
ENDBRANCH  26  29
ENDBRANCH  22  23
ENDBRANCH   3  22
TORSDOF 11
ENDMDL
MODEL 2
REMARK VINA RESULT:     -11.3      4.276      6.055
REMARK  Name = 44123754
REMARK  11 active torsions:
REMARK  status: ('A' for Active; 'I' for Inactive)
REMARK    1  A    between atoms: C_3  and  C_22
REMARK    2  A    between atoms: C_4  and  C_7
REMARK    3  A    between atoms: N_6  and  C_15
REMARK    4  A    between atoms: C_8  and  N_12
REMARK    5  A    between atoms: C_15  and  O_16
REMARK    6  A    between atoms: O_16  and  P_17
REMARK    7  A    between atoms: P_17  and  O_20
REMARK    8  A    between atoms: C_22  and  C_23
REMARK    9  A    between atoms: C_26  and  C_29
REMARK   10  A    between atoms: C_29  and  O_30
REMARK   11  A    between atoms: O_30  and  C_32
REMARK                            x       y       z     vdW  Elec       q    Type
REMARK                         _______ _______ _______ _____ _____    ______ ____
ROOT
ATOM      1  O   UNL     1      34.249 -23.167 -18.289  0.00  0.00    -0.354 OA
ATOM      2  N   UNL     1      35.029 -22.533 -19.249  0.00  0.00    -0.081 NA
ATOM      3  C   UNL     1      35.814 -21.700 -18.561  0.00  0.00    +0.105 C 
ATOM      4  C   UNL     1      34.585 -22.700 -17.059  0.00  0.00    +0.175 C 
ATOM      5  C   UNL     1      35.577 -21.763 -17.177  0.00  0.00    +0.058 C 
ENDROOT
BRANCH   4   7
ATOM      6  N   UNL     1      31.846 -23.637 -14.761  0.00  0.00    -0.266 N 
ATOM      7  C   UNL     1      33.853 -23.270 -15.952  0.00  0.00    +0.048 C 
ATOM      8  C   UNL     1      32.486 -23.089 -15.803  0.00  0.00    +0.156 C 
ATOM      9  C   UNL     1      34.536 -24.026 -15.004  0.00  0.00    +0.003 C 
ATOM     10  C   UNL     1      32.479 -24.368 -13.834  0.00  0.00    +0.064 C 
ATOM     11  C   UNL     1      33.846 -24.582 -13.932  0.00  0.00    +0.016 C 
BRANCH   8  12
ATOM     12  N   UNL     1      31.755 -22.330 -16.742  0.00  0.00    -0.303 NA
ATOM     13  H   UNL     1      31.312 -21.495 -16.463  0.00  0.00    +0.121 HD
ATOM     14  H   UNL     1      31.689 -22.635 -17.676  0.00  0.00    +0.121 HD
ENDBRANCH   8  12
BRANCH   6  15
ATOM     15  C   UNL     1      30.402 -23.446 -14.604  0.00  0.00    +0.251 C 
BRANCH  15  16
ATOM     16  O   UNL     1      29.744 -24.014 -15.728  0.00  0.00    -0.250 OA
BRANCH  16  17
ATOM     17  P   UNL     1      28.363 -23.332 -16.275  0.00  0.00    +0.504 P 
ATOM     18  O   UNL     1      27.491 -22.932 -15.105  0.00  0.00    -0.225 OA
ATOM     19  O   UNL     1      27.808 -24.198 -17.385  0.00  0.00    -0.116 OA
BRANCH  17  20
ATOM     20  O   UNL     1      28.982 -21.979 -16.949  0.00  0.00    -0.301 OA
ATOM     21  H   UNL     1      28.356 -21.246 -16.836  0.00  0.00    +0.222 HD
ENDBRANCH  17  20
ENDBRANCH  16  17
ENDBRANCH  15  16
ENDBRANCH   6  15
ENDBRANCH   4   7
BRANCH   3  22
ATOM     22  C   UNL     1      36.786 -20.852 -19.271  0.00  0.00    +0.075 C 
BRANCH  22  23
ATOM     23  C   UNL     1      36.209 -20.074 -20.446  0.00  0.00    -0.016 C 
ATOM     24  C   UNL     1      37.050 -19.314 -21.260  0.00  0.00    -0.004 C 
ATOM     25  C   UNL     1      34.840 -20.120 -20.710  0.00  0.00    -0.004 C 
ATOM     26  C   UNL     1      35.153 -18.648 -22.599  0.00  0.00    +0.021 C 
ATOM     27  C   UNL     1      36.523 -18.601 -22.336  0.00  0.00    -0.001 C 
ATOM     28  C   UNL     1      34.312 -19.407 -21.786  0.00  0.00    -0.001 C 
BRANCH  26  29
ATOM     29  C   UNL     1      34.590 -17.887 -23.751  0.00  0.00    +0.234 C 
BRANCH  29  30
ATOM     30  O   UNL     1      35.434 -16.781 -24.046  0.00  0.00    -0.455 OA
BRANCH  30  32
ATOM     31  N   UNL     1      34.246 -15.060 -25.050  0.00  0.00    -0.210 NA
ATOM     32  C   UNL     1      34.874 -15.534 -23.951  0.00  0.00    +0.225 C 
ATOM     33  C   UNL     1      34.977 -14.841 -22.756  0.00  0.00    +0.058 C 
ATOM     34  C   UNL     1      34.399 -13.578 -22.684  0.00  0.00    +0.006 C 
ATOM     35  C   UNL     1      33.695 -13.830 -24.942  0.00  0.00    +0.102 C 
ATOM     36  C   UNL     1      33.743 -13.056 -23.794  0.00  0.00    +0.021 C 
ENDBRANCH  30  32
ENDBRANCH  29  30
ENDBRANCH  26  29
ENDBRANCH  22  23
ENDBRANCH   3  22
TORSDOF 11
ENDMDL
MODEL 3
REMARK VINA RESULT:     -11.2      6.217     13.515
REMARK  Name = 44123754
REMARK  11 active torsions:
REMARK  status: ('A' for Active; 'I' for Inactive)
REMARK    1  A    between atoms: C_3  and  C_22
REMARK    2  A    between atoms: C_4  and  C_7
REMARK    3  A    between atoms: N_6  and  C_15
REMARK    4  A    between atoms: C_8  and  N_12
REMARK    5  A    between atoms: C_15  and  O_16
REMARK    6  A    between atoms: O_16  and  P_17
REMARK    7  A    between atoms: P_17  and  O_20
REMARK    8  A    between atoms: C_22  and  C_23
REMARK    9  A    between atoms: C_26  and  C_29
REMARK   10  A    between atoms: C_29  and  O_30
REMARK   11  A    between atoms: O_30  and  C_32
REMARK                            x       y       z     vdW  Elec       q    Type
REMARK                         _______ _______ _______ _____ _____    ______ ____
ROOT
ATOM      1  O   UNL     1      33.298 -13.888 -24.487  0.00  0.00    -0.354 OA
ATOM      2  N   UNL     1      33.940 -14.976 -25.064  0.00  0.00    -0.081 NA
ATOM      3  C   UNL     1      34.685 -15.498 -24.085  0.00  0.00    +0.105 C 
ATOM      4  C   UNL     1      33.672 -13.785 -23.185  0.00  0.00    +0.175 C 
ATOM      5  C   UNL     1      34.554 -14.787 -22.879  0.00  0.00    +0.058 C 
ENDROOT
BRANCH   4   7
ATOM      6  N   UNL     1      32.578 -10.398 -22.187  0.00  0.00    -0.266 N 
ATOM      7  C   UNL     1      33.080 -12.692 -22.449  0.00  0.00    +0.048 C 
ATOM      8  C   UNL     1      33.141 -11.382 -22.902  0.00  0.00    +0.156 C 
ATOM      9  C   UNL     1      32.429 -12.957 -21.249  0.00  0.00    +0.003 C 
ATOM     10  C   UNL     1      31.945 -10.625 -21.029  0.00  0.00    +0.064 C 
ATOM     11  C   UNL     1      31.854 -11.915 -20.527  0.00  0.00    +0.016 C 
BRANCH   8  12
ATOM     12  N   UNL     1      33.793 -11.071 -24.115  0.00  0.00    -0.303 NA
ATOM     13  H   UNL     1      34.758 -11.240 -24.212  0.00  0.00    +0.121 HD
ATOM     14  H   UNL     1      33.282 -10.686 -24.863  0.00  0.00    +0.121 HD
ENDBRANCH   8  12
BRANCH   6  15
ATOM     15  C   UNL     1      32.643  -9.015 -22.667  0.00  0.00    +0.251 C 
BRANCH  15  16
ATOM     16  O   UNL     1      31.969  -8.180 -21.735  0.00  0.00    -0.250 OA
BRANCH  16  17
ATOM     17  P   UNL     1      32.733  -6.861 -21.147  0.00  0.00    +0.504 P 
ATOM     18  O   UNL     1      31.713  -5.842 -20.685  0.00  0.00    -0.225 OA
ATOM     19  O   UNL     1      33.826  -6.467 -22.117  0.00  0.00    -0.116 OA
BRANCH  17  20
ATOM     20  O   UNL     1      33.438  -7.524 -19.831  0.00  0.00    -0.301 OA
ATOM     21  H   UNL     1      32.850  -8.198 -19.454  0.00  0.00    +0.222 HD
ENDBRANCH  17  20
ENDBRANCH  16  17
ENDBRANCH  15  16
ENDBRANCH   6  15
ENDBRANCH   4   7
BRANCH   3  22
ATOM     22  C   UNL     1      35.515 -16.685 -24.346  0.00  0.00    +0.075 C 
BRANCH  22  23
ATOM     23  C   UNL     1      35.511 -17.720 -23.228  0.00  0.00    -0.016 C 
ATOM     24  C   UNL     1      34.440 -18.604 -23.099  0.00  0.00    -0.004 C 
ATOM     25  C   UNL     1      36.579 -17.783 -22.333  0.00  0.00    -0.004 C 
ATOM     26  C   UNL     1      35.504 -19.614 -21.181  0.00  0.00    +0.021 C 
ATOM     27  C   UNL     1      34.436 -19.551 -22.076  0.00  0.00    -0.001 C 
ATOM     28  C   UNL     1      36.575 -18.730 -21.309  0.00  0.00    -0.001 C 
BRANCH  26  29
ATOM     29  C   UNL     1      35.501 -20.629 -20.088  0.00  0.00    +0.234 C 
BRANCH  29  30
ATOM     30  O   UNL     1      34.161 -21.010 -19.800  0.00  0.00    -0.455 OA
BRANCH  30  32
ATOM     31  N   UNL     1      32.677 -22.041 -18.346  0.00  0.00    -0.210 NA
ATOM     32  C   UNL     1      33.954 -21.713 -18.642  0.00  0.00    +0.225 C 
ATOM     33  C   UNL     1      35.044 -22.045 -17.855  0.00  0.00    +0.058 C 
ATOM     34  C   UNL     1      34.808 -22.760 -16.686  0.00  0.00    +0.006 C 
ATOM     35  C   UNL     1      32.486 -22.737 -17.202  0.00  0.00    +0.102 C 
ATOM     36  C   UNL     1      33.507 -23.117 -16.346  0.00  0.00    +0.021 C 
ENDBRANCH  30  32
ENDBRANCH  29  30
ENDBRANCH  26  29
ENDBRANCH  22  23
ENDBRANCH   3  22
TORSDOF 11
ENDMDL
MODEL 4
REMARK VINA RESULT:     -11.1      5.900     13.461
REMARK  Name = 44123754
REMARK  11 active torsions:
REMARK  status: ('A' for Active; 'I' for Inactive)
REMARK    1  A    between atoms: C_3  and  C_22
REMARK    2  A    between atoms: C_4  and  C_7
REMARK    3  A    between atoms: N_6  and  C_15
REMARK    4  A    between atoms: C_8  and  N_12
REMARK    5  A    between atoms: C_15  and  O_16
REMARK    6  A    between atoms: O_16  and  P_17
REMARK    7  A    between atoms: P_17  and  O_20
REMARK    8  A    between atoms: C_22  and  C_23
REMARK    9  A    between atoms: C_26  and  C_29
REMARK   10  A    between atoms: C_29  and  O_30
REMARK   11  A    between atoms: O_30  and  C_32
REMARK                            x       y       z     vdW  Elec       q    Type
REMARK                         _______ _______ _______ _____ _____    ______ ____
ROOT
ATOM      1  O   UNL     1      34.734 -14.133 -21.979  0.00  0.00    -0.354 OA
ATOM      2  N   UNL     1      35.128 -15.465 -22.020  0.00  0.00    -0.081 NA
ATOM      3  C   UNL     1      34.989 -15.828 -23.298  0.00  0.00    +0.105 C 
ATOM      4  C   UNL     1      34.371 -13.734 -23.225  0.00  0.00    +0.175 C 
ATOM      5  C   UNL     1      34.515 -14.776 -24.102  0.00  0.00    +0.058 C 
ENDROOT
BRANCH   4   7
ATOM      6  N   UNL     1      32.671 -10.516 -22.580  0.00  0.00    -0.266 N 
ATOM      7  C   UNL     1      33.935 -12.362 -23.340  0.00  0.00    +0.048 C 
ATOM      8  C   UNL     1      33.049 -11.794 -22.436  0.00  0.00    +0.156 C 
ATOM      9  C   UNL     1      34.416 -11.583 -24.387  0.00  0.00    +0.003 C 
ATOM     10  C   UNL     1      33.118  -9.744 -23.579  0.00  0.00    +0.064 C 
ATOM     11  C   UNL     1      34.006 -10.258 -24.512  0.00  0.00    +0.016 C 
BRANCH   8  12
ATOM     12  N   UNL     1      32.537 -12.550 -21.359  0.00  0.00    -0.303 NA
ATOM     13  H   UNL     1      33.099 -13.234 -20.928  0.00  0.00    +0.121 HD
ATOM     14  H   UNL     1      31.619 -12.394 -21.041  0.00  0.00    +0.121 HD
ENDBRANCH   8  12
BRANCH   6  15
ATOM     15  C   UNL     1      31.735  -9.917 -21.625  0.00  0.00    +0.251 C 
BRANCH  15  16
ATOM     16  O   UNL     1      31.794  -8.504 -21.758  0.00  0.00    -0.250 OA
BRANCH  16  17
ATOM     17  P   UNL     1      32.468  -7.616 -20.563  0.00  0.00    +0.504 P 
ATOM     18  O   UNL     1      32.781  -8.505 -19.379  0.00  0.00    -0.225 OA
ATOM     19  O   UNL     1      31.649  -6.357 -20.381  0.00  0.00    -0.116 OA
BRANCH  17  20
ATOM     20  O   UNL     1      33.871  -7.207 -21.292  0.00  0.00    -0.301 OA
ATOM     21  H   UNL     1      34.590  -7.757 -20.941  0.00  0.00    +0.222 HD
ENDBRANCH  17  20
ENDBRANCH  16  17
ENDBRANCH  15  16
ENDBRANCH   6  15
ENDBRANCH   4   7
BRANCH   3  22
ATOM     22  C   UNL     1      35.323 -17.200 -23.714  0.00  0.00    +0.075 C 
BRANCH  22  23
ATOM     23  C   UNL     1      35.605 -18.159 -22.564  0.00  0.00    -0.016 C 
ATOM     24  C   UNL     1      34.584 -18.966 -22.063  0.00  0.00    -0.004 C 
ATOM     25  C   UNL     1      36.886 -18.231 -22.014  0.00  0.00    -0.004 C 
ATOM     26  C   UNL     1      36.123 -19.917 -20.461  0.00  0.00    +0.021 C 
ATOM     27  C   UNL     1      34.843 -19.845 -21.011  0.00  0.00    -0.001 C 
ATOM     28  C   UNL     1      37.144 -19.110 -20.963  0.00  0.00    -0.001 C 
BRANCH  26  29
ATOM     29  C   UNL     1      36.400 -20.858 -19.338  0.00  0.00    +0.234 C 
BRANCH  29  30
ATOM     30  O   UNL     1      35.509 -21.964 -19.419  0.00  0.00    -0.455 OA
BRANCH  30  32
ATOM     31  N   UNL     1      35.562 -22.501 -17.162  0.00  0.00    -0.210 NA
ATOM     32  C   UNL     1      34.826 -22.291 -18.277  0.00  0.00    +0.225 C 
ATOM     33  C   UNL     1      33.445 -22.386 -18.324  0.00  0.00    +0.058 C 
ATOM     34  C   UNL     1      32.775 -22.718 -17.151  0.00  0.00    +0.006 C 
ATOM     35  C   UNL     1      34.876 -22.820 -16.041  0.00  0.00    +0.102 C 
ATOM     36  C   UNL     1      33.497 -22.940 -15.984  0.00  0.00    +0.021 C 
ENDBRANCH  30  32
ENDBRANCH  29  30
ENDBRANCH  26  29
ENDBRANCH  22  23
ENDBRANCH   3  22
TORSDOF 11
ENDMDL
MODEL 5
REMARK VINA RESULT:     -11.1      5.921     12.623
REMARK  Name = 44123754
REMARK  11 active torsions:
REMARK  status: ('A' for Active; 'I' for Inactive)
REMARK    1  A    between atoms: C_3  and  C_22
REMARK    2  A    between atoms: C_4  and  C_7
REMARK    3  A    between atoms: N_6  and  C_15
REMARK    4  A    between atoms: C_8  and  N_12
REMARK    5  A    between atoms: C_15  and  O_16
REMARK    6  A    between atoms: O_16  and  P_17
REMARK    7  A    between atoms: P_17  and  O_20
REMARK    8  A    between atoms: C_22  and  C_23
REMARK    9  A    between atoms: C_26  and  C_29
REMARK   10  A    between atoms: C_29  and  O_30
REMARK   11  A    between atoms: O_30  and  C_32
REMARK                            x       y       z     vdW  Elec       q    Type
REMARK                         _______ _______ _______ _____ _____    ______ ____
ROOT
ATOM      1  O   UNL     1      35.000 -15.900 -21.386  0.00  0.00    -0.354 OA
ATOM      2  N   UNL     1      35.560 -17.014 -20.772  0.00  0.00    -0.081 NA
ATOM      3  C   UNL     1      35.963 -17.797 -21.776  0.00  0.00    +0.105 C 
ATOM      4  C   UNL     1      35.081 -16.044 -22.734  0.00  0.00    +0.175 C 
ATOM      5  C   UNL     1      35.686 -17.235 -23.035  0.00  0.00    +0.058 C 
ENDROOT
BRANCH   4   7
ATOM      6  N   UNL     1      33.851 -12.706 -23.739  0.00  0.00    -0.266 N 
ATOM      7  C   UNL     1      34.535 -14.956 -23.512  0.00  0.00    +0.048 C 
ATOM      8  C   UNL     1      34.360 -13.687 -22.981  0.00  0.00    +0.156 C 
ATOM      9  C   UNL     1      34.174 -15.184 -24.836  0.00  0.00    +0.003 C 
ATOM     10  C   UNL     1      33.494 -12.898 -25.016  0.00  0.00    +0.064 C 
ATOM     11  C   UNL     1      33.647 -14.147 -25.600  0.00  0.00    +0.016 C 
BRANCH   8  12
ATOM     12  N   UNL     1      34.714 -13.413 -21.642  0.00  0.00    -0.303 NA
ATOM     13  H   UNL     1      34.268 -13.893 -20.907  0.00  0.00    +0.121 HD
ATOM     14  H   UNL     1      35.407 -12.743 -21.444  0.00  0.00    +0.121 HD
ENDBRANCH   8  12
BRANCH   6  15
ATOM     15  C   UNL     1      33.666 -11.366 -23.177  0.00  0.00    +0.251 C 
BRANCH  15  16
ATOM     16  O   UNL     1      32.793 -11.458 -22.060  0.00  0.00    -0.250 OA
BRANCH  16  17
ATOM     17  P   UNL     1      31.849 -10.181 -21.675  0.00  0.00    +0.504 P 
ATOM     18  O   UNL     1      31.807  -9.208 -22.834  0.00  0.00    -0.225 OA
ATOM     19  O   UNL     1      32.225  -9.707 -20.289  0.00  0.00    -0.116 OA
BRANCH  17  20
ATOM     20  O   UNL     1      30.404 -10.936 -21.578  0.00  0.00    -0.301 OA
ATOM     21  H   UNL     1      29.776 -10.373 -21.099  0.00  0.00    +0.222 HD
ENDBRANCH  17  20
ENDBRANCH  16  17
ENDBRANCH  15  16
ENDBRANCH   6  15
ENDBRANCH   4   7
BRANCH   3  22
ATOM     22  C   UNL     1      36.614 -19.085 -21.488  0.00  0.00    +0.075 C 
BRANCH  22  23
ATOM     23  C   UNL     1      35.808 -20.015 -20.590  0.00  0.00    -0.016 C 
ATOM     24  C   UNL     1      36.464 -20.868 -19.702  0.00  0.00    -0.004 C 
ATOM     25  C   UNL     1      34.414 -20.014 -20.654  0.00  0.00    -0.004 C 
ATOM     26  C   UNL     1      34.334 -21.719 -18.945  0.00  0.00    +0.021 C 
ATOM     27  C   UNL     1      35.727 -21.720 -18.880  0.00  0.00    -0.001 C 
ATOM     28  C   UNL     1      33.678 -20.866 -19.832  0.00  0.00    -0.001 C 
BRANCH  26  29
ATOM     29  C   UNL     1      33.546 -22.627 -18.064  0.00  0.00    +0.234 C 
BRANCH  29  30
ATOM     30  O   UNL     1      32.232 -22.107 -17.902  0.00  0.00    -0.455 OA
BRANCH  30  32
ATOM     31  N   UNL     1      30.212 -22.365 -16.789  0.00  0.00    -0.210 NA
ATOM     32  C   UNL     1      31.560 -22.470 -16.764  0.00  0.00    +0.225 C 
ATOM     33  C   UNL     1      32.284 -22.918 -15.671  0.00  0.00    +0.058 C 
ATOM     34  C   UNL     1      31.579 -23.281 -14.528  0.00  0.00    +0.006 C 
ATOM     35  C   UNL     1      29.561 -22.728 -15.661  0.00  0.00    +0.102 C 
ATOM     36  C   UNL     1      30.191 -23.188 -14.515  0.00  0.00    +0.021 C 
ENDBRANCH  30  32
ENDBRANCH  29  30
ENDBRANCH  26  29
ENDBRANCH  22  23
ENDBRANCH   3  22
TORSDOF 11
ENDMDL
MODEL 6
REMARK VINA RESULT:     -11.0      3.792      7.359
REMARK  Name = 44123754
REMARK  11 active torsions:
REMARK  status: ('A' for Active; 'I' for Inactive)
REMARK    1  A    between atoms: C_3  and  C_22
REMARK    2  A    between atoms: C_4  and  C_7
REMARK    3  A    between atoms: N_6  and  C_15
REMARK    4  A    between atoms: C_8  and  N_12
REMARK    5  A    between atoms: C_15  and  O_16
REMARK    6  A    between atoms: O_16  and  P_17
REMARK    7  A    between atoms: P_17  and  O_20
REMARK    8  A    between atoms: C_22  and  C_23
REMARK    9  A    between atoms: C_26  and  C_29
REMARK   10  A    between atoms: C_29  and  O_30
REMARK   11  A    between atoms: O_30  and  C_32
REMARK                            x       y       z     vdW  Elec       q    Type
REMARK                         _______ _______ _______ _____ _____    ______ ____
ROOT
ATOM      1  O   UNL     1      36.537 -19.115 -21.487  0.00  0.00    -0.354 OA
ATOM      2  N   UNL     1      36.666 -18.269 -22.582  0.00  0.00    -0.081 NA
ATOM      3  C   UNL     1      35.431 -18.159 -23.080  0.00  0.00    +0.105 C 
ATOM      4  C   UNL     1      35.238 -19.487 -21.358  0.00  0.00    +0.175 C 
ATOM      5  C   UNL     1      34.492 -18.906 -22.348  0.00  0.00    +0.058 C 
ENDROOT
BRANCH   4   7
ATOM      6  N   UNL     1      35.615 -21.603 -18.350  0.00  0.00    -0.266 N 
ATOM      7  C   UNL     1      34.948 -20.373 -20.254  0.00  0.00    +0.048 C 
ATOM      8  C   UNL     1      35.928 -20.780 -19.361  0.00  0.00    +0.156 C 
ATOM      9  C   UNL     1      33.647 -20.835 -20.078  0.00  0.00    +0.003 C 
ATOM     10  C   UNL     1      34.372 -22.062 -18.158  0.00  0.00    +0.064 C 
ATOM     11  C   UNL     1      33.351 -21.689 -19.020  0.00  0.00    +0.016 C 
BRANCH   8  12
ATOM     12  N   UNL     1      37.260 -20.335 -19.504  0.00  0.00    -0.303 NA
ATOM     13  H   UNL     1      38.000 -20.869 -19.135  0.00  0.00    +0.121 HD
ATOM     14  H   UNL     1      37.448 -19.490 -19.972  0.00  0.00    +0.121 HD
ENDBRANCH   8  12
BRANCH   6  15
ATOM     15  C   UNL     1      36.651 -22.032 -17.407  0.00  0.00    +0.251 C 
BRANCH  15  16
ATOM     16  O   UNL     1      36.038 -22.790 -16.373  0.00  0.00    -0.250 OA
BRANCH  16  17
ATOM     17  P   UNL     1      36.953 -23.344 -15.138  0.00  0.00    +0.504 P 
ATOM     18  O   UNL     1      36.270 -23.045 -13.821  0.00  0.00    -0.225 OA
ATOM     19  O   UNL     1      38.385 -22.917 -15.374  0.00  0.00    -0.116 OA
BRANCH  17  20
ATOM     20  O   UNL     1      36.848 -24.949 -15.426  0.00  0.00    -0.301 OA
ATOM     21  H   UNL     1      36.796 -25.426 -14.583  0.00  0.00    +0.222 HD
ENDBRANCH  17  20
ENDBRANCH  16  17
ENDBRANCH  15  16
ENDBRANCH   6  15
ENDBRANCH   4   7
BRANCH   3  22
ATOM     22  C   UNL     1      35.190 -17.323 -24.267  0.00  0.00    +0.075 C 
BRANCH  22  23
ATOM     23  C   UNL     1      34.734 -15.902 -23.961  0.00  0.00    -0.016 C 
ATOM     24  C   UNL     1      33.948 -15.208 -24.880  0.00  0.00    -0.004 C 
ATOM     25  C   UNL     1      35.102 -15.295 -22.759  0.00  0.00    -0.004 C 
ATOM     26  C   UNL     1      33.899 -13.300 -23.399  0.00  0.00    +0.021 C 
ATOM     27  C   UNL     1      33.531 -13.907 -24.600  0.00  0.00    -0.001 C 
ATOM     28  C   UNL     1      34.685 -13.994 -22.479  0.00  0.00    -0.001 C 
BRANCH  26  29
ATOM     29  C   UNL     1      33.450 -11.911 -23.098  0.00  0.00    +0.234 C 
BRANCH  29  30
ATOM     30  O   UNL     1      33.845 -11.047 -24.157  0.00  0.00    -0.455 OA
BRANCH  30  32
ATOM     31  N   UNL     1      33.207  -9.095 -23.077  0.00  0.00    -0.210 NA
ATOM     32  C   UNL     1      34.127  -9.748 -23.822  0.00  0.00    +0.225 C 
ATOM     33  C   UNL     1      35.317  -9.186 -24.254  0.00  0.00    +0.058 C 
ATOM     34  C   UNL     1      35.580  -7.867 -23.900  0.00  0.00    +0.006 C 
ATOM     35  C   UNL     1      33.498  -7.815 -22.751  0.00  0.00    +0.102 C 
ATOM     36  C   UNL     1      34.658  -7.162 -23.134  0.00  0.00    +0.021 C 
ENDBRANCH  30  32
ENDBRANCH  29  30
ENDBRANCH  26  29
ENDBRANCH  22  23
ENDBRANCH   3  22
TORSDOF 11
ENDMDL
MODEL 7
REMARK VINA RESULT:     -10.9      4.661      7.316
REMARK  Name = 44123754
REMARK  11 active torsions:
REMARK  status: ('A' for Active; 'I' for Inactive)
REMARK    1  A    between atoms: C_3  and  C_22
REMARK    2  A    between atoms: C_4  and  C_7
REMARK    3  A    between atoms: N_6  and  C_15
REMARK    4  A    between atoms: C_8  and  N_12
REMARK    5  A    between atoms: C_15  and  O_16
REMARK    6  A    between atoms: O_16  and  P_17
REMARK    7  A    between atoms: P_17  and  O_20
REMARK    8  A    between atoms: C_22  and  C_23
REMARK    9  A    between atoms: C_26  and  C_29
REMARK   10  A    between atoms: C_29  and  O_30
REMARK   11  A    between atoms: O_30  and  C_32
REMARK                            x       y       z     vdW  Elec       q    Type
REMARK                         _______ _______ _______ _____ _____    ______ ____
ROOT
ATOM      1  O   UNL     1      33.990 -20.202 -20.599  0.00  0.00    -0.354 OA
ATOM      2  N   UNL     1      34.110 -19.421 -21.742  0.00  0.00    -0.081 NA
ATOM      3  C   UNL     1      35.423 -19.214 -21.883  0.00  0.00    +0.105 C 
ATOM      4  C   UNL     1      35.225 -20.440 -20.087  0.00  0.00    +0.175 C 
ATOM      5  C   UNL     1      36.172 -19.833 -20.867  0.00  0.00    +0.058 C 
ENDROOT
BRANCH   4   7
ATOM      6  N   UNL     1      34.225 -22.675 -17.318  0.00  0.00    -0.266 N 
ATOM      7  C   UNL     1      35.260 -21.244 -18.887  0.00  0.00    +0.048 C 
ATOM      8  C   UNL     1      34.148 -21.939 -18.435  0.00  0.00    +0.156 C 
ATOM      9  C   UNL     1      36.444 -21.328 -18.161  0.00  0.00    +0.003 C 
ATOM     10  C   UNL     1      35.351 -22.772 -16.599  0.00  0.00    +0.064 C 
ATOM     11  C   UNL     1      36.494 -22.099 -17.003  0.00  0.00    +0.016 C 
BRANCH   8  12
ATOM     12  N   UNL     1      32.928 -21.881 -19.143  0.00  0.00    -0.303 NA
ATOM     13  H   UNL     1      32.815 -21.235 -19.878  0.00  0.00    +0.121 HD
ATOM     14  H   UNL     1      32.191 -22.487 -18.902  0.00  0.00    +0.121 HD
ENDBRANCH   8  12
BRANCH   6  15
ATOM     15  C   UNL     1      33.050 -23.409 -16.841  0.00  0.00    +0.251 C 
BRANCH  15  16
ATOM     16  O   UNL     1      32.088 -22.473 -16.375  0.00  0.00    -0.250 OA
BRANCH  16  17
ATOM     17  P   UNL     1      30.601 -23.000 -15.947  0.00  0.00    +0.504 P 
ATOM     18  O   UNL     1      30.615 -24.506 -15.800  0.00  0.00    -0.225 OA
ATOM     19  O   UNL     1      29.579 -22.326 -16.836  0.00  0.00    -0.116 OA
BRANCH  17  20
ATOM     20  O   UNL     1      30.499 -22.333 -14.460  0.00  0.00    -0.301 OA
ATOM     21  H   UNL     1      29.714 -22.677 -14.004  0.00  0.00    +0.222 HD
ENDBRANCH  17  20
ENDBRANCH  16  17
ENDBRANCH  15  16
ENDBRANCH   6  15
ENDBRANCH   4   7
BRANCH   3  22
ATOM     22  C   UNL     1      35.923 -18.411 -23.011  0.00  0.00    +0.075 C 
BRANCH  22  23
ATOM     23  C   UNL     1      35.409 -16.978 -23.046  0.00  0.00    -0.016 C 
ATOM     24  C   UNL     1      34.996 -16.415 -24.254  0.00  0.00    -0.004 C 
ATOM     25  C   UNL     1      35.351 -16.228 -21.871  0.00  0.00    -0.004 C 
ATOM     26  C   UNL     1      34.467 -14.353 -23.111  0.00  0.00    +0.021 C 
ATOM     27  C   UNL     1      34.526 -15.102 -24.287  0.00  0.00    -0.001 C 
ATOM     28  C   UNL     1      34.880 -14.916 -21.904  0.00  0.00    -0.001 C 
BRANCH  26  29
ATOM     29  C   UNL     1      33.962 -12.950 -23.146  0.00  0.00    +0.234 C 
BRANCH  29  30
ATOM     30  O   UNL     1      32.665 -12.901 -22.565  0.00  0.00    -0.455 OA
BRANCH  30  32
ATOM     31  N   UNL     1      32.296 -10.624 -22.313  0.00  0.00    -0.210 NA
ATOM     32  C   UNL     1      32.399 -11.842 -21.736  0.00  0.00    +0.225 C 
ATOM     33  C   UNL     1      32.252 -12.073 -20.378  0.00  0.00    +0.058 C 
ATOM     34  C   UNL     1      31.981 -10.982 -19.559  0.00  0.00    +0.006 C 
ATOM     35  C   UNL     1      32.032  -9.588 -21.485  0.00  0.00    +0.102 C 
ATOM     36  C   UNL     1      31.867  -9.713 -20.115  0.00  0.00    +0.021 C 
ENDBRANCH  30  32
ENDBRANCH  29  30
ENDBRANCH  26  29
ENDBRANCH  22  23
ENDBRANCH   3  22
TORSDOF 11
ENDMDL
MODEL 8
REMARK VINA RESULT:     -10.8      3.240      6.345
REMARK  Name = 44123754
REMARK  11 active torsions:
REMARK  status: ('A' for Active; 'I' for Inactive)
REMARK    1  A    between atoms: C_3  and  C_22
REMARK    2  A    between atoms: C_4  and  C_7
REMARK    3  A    between atoms: N_6  and  C_15
REMARK    4  A    between atoms: C_8  and  N_12
REMARK    5  A    between atoms: C_15  and  O_16
REMARK    6  A    between atoms: O_16  and  P_17
REMARK    7  A    between atoms: P_17  and  O_20
REMARK    8  A    between atoms: C_22  and  C_23
REMARK    9  A    between atoms: C_26  and  C_29
REMARK   10  A    between atoms: C_29  and  O_30
REMARK   11  A    between atoms: O_30  and  C_32
REMARK                            x       y       z     vdW  Elec       q    Type
REMARK                         _______ _______ _______ _____ _____    ______ ____
ROOT
ATOM      1  O   UNL     1      36.609 -19.796 -20.001  0.00  0.00    -0.354 OA
ATOM      2  N   UNL     1      36.983 -19.018 -21.091  0.00  0.00    -0.081 NA
ATOM      3  C   UNL     1      35.949 -19.085 -21.934  0.00  0.00    +0.105 C 
ATOM      4  C   UNL     1      35.369 -20.305 -20.218  0.00  0.00    +0.175 C 
ATOM      5  C   UNL     1      34.904 -19.882 -21.435  0.00  0.00    +0.058 C 
ENDROOT
BRANCH   4   7
ATOM      6  N   UNL     1      35.118 -22.412 -17.192  0.00  0.00    -0.266 N 
ATOM      7  C   UNL     1      34.843 -21.141 -19.164  0.00  0.00    +0.048 C 
ATOM      8  C   UNL     1      35.648 -21.641 -18.151  0.00  0.00    +0.156 C 
ATOM      9  C   UNL     1      33.488 -21.456 -19.161  0.00  0.00    +0.003 C 
ATOM     10  C   UNL     1      33.817 -22.731 -17.165  0.00  0.00    +0.064 C 
ATOM     11  C   UNL     1      32.965 -22.260 -18.152  0.00  0.00    +0.016 C 
BRANCH   8  12
ATOM     12  N   UNL     1      37.028 -21.345 -18.118  0.00  0.00    -0.303 NA
ATOM     13  H   UNL     1      37.531 -21.249 -18.959  0.00  0.00    +0.121 HD
ATOM     14  H   UNL     1      37.486 -21.235 -17.254  0.00  0.00    +0.121 HD
ENDBRANCH   8  12
BRANCH   6  15
ATOM     15  C   UNL     1      35.969 -22.940 -16.122  0.00  0.00    +0.251 C 
BRANCH  15  16
ATOM     16  O   UNL     1      35.482 -24.220 -15.744  0.00  0.00    -0.250 OA
BRANCH  16  17
ATOM     17  P   UNL     1      36.451 -25.225 -14.894  0.00  0.00    +0.504 P 
ATOM     18  O   UNL     1      37.819 -24.599 -14.730  0.00  0.00    -0.225 OA
ATOM     19  O   UNL     1      36.308 -26.620 -15.460  0.00  0.00    -0.116 OA
BRANCH  17  20
ATOM     20  O   UNL     1      35.683 -25.181 -13.453  0.00  0.00    -0.301 OA
ATOM     21  H   UNL     1      34.725 -25.236 -13.595  0.00  0.00    +0.222 HD
ENDBRANCH  17  20
ENDBRANCH  16  17
ENDBRANCH  15  16
ENDBRANCH   6  15
ENDBRANCH   4   7
BRANCH   3  22
ATOM     22  C   UNL     1      36.000 -18.365 -23.217  0.00  0.00    +0.075 C 
BRANCH  22  23
ATOM     23  C   UNL     1      35.438 -16.950 -23.173  0.00  0.00    -0.016 C 
ATOM     24  C   UNL     1      34.999 -16.338 -24.347  0.00  0.00    -0.004 C 
ATOM     25  C   UNL     1      35.362 -16.266 -21.959  0.00  0.00    -0.004 C 
ATOM     26  C   UNL     1      34.408 -14.359 -23.094  0.00  0.00    +0.021 C 
ATOM     27  C   UNL     1      34.485 -15.042 -24.308  0.00  0.00    -0.001 C 
ATOM     28  C   UNL     1      34.848 -14.971 -21.920  0.00  0.00    -0.001 C 
BRANCH  26  29
ATOM     29  C   UNL     1      33.856 -12.974 -23.051  0.00  0.00    +0.234 C 
BRANCH  29  30
ATOM     30  O   UNL     1      32.693 -12.954 -22.232  0.00  0.00    -0.455 OA
BRANCH  30  32
ATOM     31  N   UNL     1      32.417 -10.656 -22.386  0.00  0.00    -0.210 NA
ATOM     32  C   UNL     1      32.392 -11.768 -21.617  0.00  0.00    +0.225 C 
ATOM     33  C   UNL     1      32.080 -11.771 -20.267  0.00  0.00    +0.058 C 
ATOM     34  C   UNL     1      31.776 -10.554 -19.667  0.00  0.00    +0.006 C 
ATOM     35  C   UNL     1      32.115  -9.491 -21.768  0.00  0.00    +0.102 C 
ATOM     36  C   UNL     1      31.791  -9.388 -20.425  0.00  0.00    +0.021 C 
ENDBRANCH  30  32
ENDBRANCH  29  30
ENDBRANCH  26  29
ENDBRANCH  22  23
ENDBRANCH   3  22
TORSDOF 11
ENDMDL
MODEL 9
REMARK VINA RESULT:     -10.8      7.690     15.289
REMARK  Name = 44123754
REMARK  11 active torsions:
REMARK  status: ('A' for Active; 'I' for Inactive)
REMARK    1  A    between atoms: C_3  and  C_22
REMARK    2  A    between atoms: C_4  and  C_7
REMARK    3  A    between atoms: N_6  and  C_15
REMARK    4  A    between atoms: C_8  and  N_12
REMARK    5  A    between atoms: C_15  and  O_16
REMARK    6  A    between atoms: O_16  and  P_17
REMARK    7  A    between atoms: P_17  and  O_20
REMARK    8  A    between atoms: C_22  and  C_23
REMARK    9  A    between atoms: C_26  and  C_29
REMARK   10  A    between atoms: C_29  and  O_30
REMARK   11  A    between atoms: O_30  and  C_32
REMARK                            x       y       z     vdW  Elec       q    Type
REMARK                         _______ _______ _______ _____ _____    ______ ____
ROOT
ATOM      1  O   UNL     1      33.549 -11.808 -22.891  0.00  0.00    -0.354 OA
ATOM      2  N   UNL     1      33.377 -13.117 -23.325  0.00  0.00    -0.081 NA
ATOM      3  C   UNL     1      33.679 -13.092 -24.626  0.00  0.00    +0.105 C 
ATOM      4  C   UNL     1      33.947 -11.038 -23.936  0.00  0.00    +0.175 C 
ATOM      5  C   UNL     1      34.045 -11.807 -25.064  0.00  0.00    +0.058 C 
ENDROOT
BRANCH   4   7
ATOM      6  N   UNL     1      33.519  -7.611 -22.618  0.00  0.00    -0.266 N 
ATOM      7  C   UNL     1      34.168  -9.642 -23.636  0.00  0.00    +0.048 C 
ATOM      8  C   UNL     1      33.275  -8.903 -22.873  0.00  0.00    +0.156 C 
ATOM      9  C   UNL     1      35.309  -9.015 -24.125  0.00  0.00    +0.003 C 
ATOM     10  C   UNL     1      34.610  -6.983 -23.077  0.00  0.00    +0.064 C 
ATOM     11  C   UNL     1      35.537  -7.671 -23.845  0.00  0.00    +0.016 C 
BRANCH   8  12
ATOM     12  N   UNL     1      32.105  -9.502 -22.357  0.00  0.00    -0.303 NA
ATOM     13  H   UNL     1      31.747  -9.213 -21.486  0.00  0.00    +0.121 HD
ATOM     14  H   UNL     1      31.647 -10.207 -22.868  0.00  0.00    +0.121 HD
ENDBRANCH   8  12
BRANCH   6  15
ATOM     15  C   UNL     1      32.576  -6.832 -21.811  0.00  0.00    +0.251 C 
BRANCH  15  16
ATOM     16  O   UNL     1      32.806  -5.451 -22.052  0.00  0.00    -0.250 OA
BRANCH  16  17
ATOM     17  P   UNL     1      31.577  -4.519 -22.593  0.00  0.00    +0.504 P 
ATOM     18  O   UNL     1      30.337  -4.776 -21.765  0.00  0.00    -0.225 OA
ATOM     19  O   UNL     1      31.527  -4.621 -24.102  0.00  0.00    -0.116 OA
BRANCH  17  20
ATOM     20  O   UNL     1      32.167  -3.046 -22.204  0.00  0.00    -0.301 OA
ATOM     21  H   UNL     1      32.995  -3.149 -21.710  0.00  0.00    +0.222 HD
ENDBRANCH  17  20
ENDBRANCH  16  17
ENDBRANCH  15  16
ENDBRANCH   6  15
ENDBRANCH   4   7
BRANCH   3  22
ATOM     22  C   UNL     1      33.604 -14.329 -25.421  0.00  0.00    +0.075 C 
BRANCH  22  23
ATOM     23  C   UNL     1      34.181 -15.560 -24.734  0.00  0.00    -0.016 C 
ATOM     24  C   UNL     1      33.707 -16.829 -25.065  0.00  0.00    -0.004 C 
ATOM     25  C   UNL     1      35.184 -15.419 -23.774  0.00  0.00    -0.004 C 
ATOM     26  C   UNL     1      35.237 -17.815 -23.477  0.00  0.00    +0.021 C 
ATOM     27  C   UNL     1      34.234 -17.957 -24.437  0.00  0.00    -0.001 C 
ATOM     28  C   UNL     1      35.711 -16.546 -23.145  0.00  0.00    -0.001 C 
BRANCH  26  29
ATOM     29  C   UNL     1      35.803 -19.021 -22.807  0.00  0.00    +0.234 C 
BRANCH  29  30
ATOM     30  O   UNL     1      35.835 -18.809 -21.401  0.00  0.00    -0.455 OA
BRANCH  30  32
ATOM     31  N   UNL     1      36.061 -20.516 -19.845  0.00  0.00    -0.210 NA
ATOM     32  C   UNL     1      35.244 -19.766 -20.618  0.00  0.00    +0.225 C 
ATOM     33  C   UNL     1      33.867 -19.910 -20.659  0.00  0.00    +0.058 C 
ATOM     34  C   UNL     1      33.290 -20.886 -19.854  0.00  0.00    +0.006 C 
ATOM     35  C   UNL     1      35.465 -21.454 -19.075  0.00  0.00    +0.102 C 
ATOM     36  C   UNL     1      34.098 -21.677 -19.044  0.00  0.00    +0.021 C 
ENDBRANCH  30  32
ENDBRANCH  29  30
ENDBRANCH  26  29
ENDBRANCH  22  23
ENDBRANCH   3  22
TORSDOF 11
ENDMDL
