MODEL 1
REMARK VINA RESULT:     -11.9      0.000      0.000
REMARK  Name = 446129
REMARK  7 active torsions:
REMARK  status: ('A' for Active; 'I' for Inactive)
REMARK    1  A    between atoms: C_1  and  O_2
REMARK    2  A    between atoms: C_1  and  C_4
REMARK    3  A    between atoms: C_1  and  C_18
REMARK    4  A    between atoms: C_4  and  N_5
REMARK    5  A    between atoms: C_18  and  O_19
REMARK    6  A    between atoms: O_19  and  C_23
REMARK    7  A    between atoms: C_20  and  C_26
REMARK                            x       y       z     vdW  Elec       q    Type
REMARK                         _______ _______ _______ _____ _____    ______ ____
ROOT
ATOM      1  C   UNL     1      33.853 -15.345 -24.655  0.00  0.00    +0.133 C 
ENDROOT
BRANCH   1   2
ATOM      2  O   UNL     1      33.154 -15.616 -25.872  0.00  0.00    -0.383 OA
ATOM      3  H   UNL     1      32.200 -15.642 -25.699  0.00  0.00    +0.210 HD
ENDBRANCH   1   2
BRANCH   1   4
ATOM      4  C   UNL     1      35.286 -15.862 -24.802  0.00  0.00    -0.043 C 
BRANCH   4   5
ATOM      5  N   UNL     1      35.535 -17.038 -23.969  0.00  0.00    +0.391 N 
ATOM      6  N   UNL     1      35.063 -18.858 -21.819  0.00  0.00    -0.298 N 
ATOM      7  C   UNL     1      34.385 -17.949 -24.006  0.00  0.00    -0.055 C 
ATOM      8  C   UNL     1      35.811 -16.638 -22.584  0.00  0.00    -0.055 C 
ATOM      9  C   UNL     1      34.655 -19.211 -23.183  0.00  0.00    +0.069 C 
ATOM     10  C   UNL     1      36.130 -17.856 -21.713  0.00  0.00    +0.069 C 
ATOM     11  H   UNL     1      36.352 -17.523 -24.341  0.00  0.00    -0.079 HD
ATOM     12  N   UNL     1      36.052 -20.201 -20.097  0.00  0.00    -0.229 NA
ATOM     13  C   UNL     1      34.943 -19.802 -20.792  0.00  0.00    +0.132 C 
ATOM     14  C   UNL     1      33.672 -20.318 -20.503  0.00  0.00    +0.034 C 
ATOM     15  C   UNL     1      33.537 -21.257 -19.487  0.00  0.00    +0.004 C 
ATOM     16  C   UNL     1      35.883 -21.116 -19.116  0.00  0.00    +0.100 C 
ATOM     17  C   UNL     1      34.658 -21.668 -18.775  0.00  0.00    +0.021 C 
ENDBRANCH   4   5
ENDBRANCH   1   4
BRANCH   1  18
ATOM     18  C   UNL     1      33.778 -13.845 -24.371  0.00  0.00    +0.232 C 
BRANCH  18  19
ATOM     19  O   UNL     1      33.418 -13.652 -23.007  0.00  0.00    -0.473 OA
BRANCH  19  23
ATOM     20  C   UNL     1      32.282  -9.816 -21.903  0.00  0.00    -0.022 C 
ATOM     21  C   UNL     1      33.064 -10.011 -23.041  0.00  0.00    -0.001 C 
ATOM     22  C   UNL     1      31.883 -10.910 -21.135  0.00  0.00    -0.001 C 
ATOM     23  C   UNL     1      33.044 -12.386 -22.643  0.00  0.00    +0.139 C 
ATOM     24  C   UNL     1      33.446 -11.300 -23.413  0.00  0.00    +0.037 C 
ATOM     25  C   UNL     1      32.266 -12.199 -21.506  0.00  0.00    +0.037 C 
BRANCH  20  26
ATOM     26  C   UNL     1      31.868  -8.413 -21.499  0.00  0.00    +0.022 C 
ATOM     27  C   UNL     1      32.888  -7.765 -20.546  0.00  0.00    +0.004 C 
ATOM     28  C   UNL     1      31.612  -7.517 -22.722  0.00  0.00    +0.004 C 
ATOM     29  C   UNL     1      32.457  -6.357 -20.138  0.00  0.00    +0.000 C 
ATOM     30  C   UNL     1      31.186  -6.110 -22.306  0.00  0.00    +0.000 C 
ATOM     31  C   UNL     1      32.195  -5.474 -21.355  0.00  0.00    +0.000 C 
ENDBRANCH  20  26
ENDBRANCH  19  23
ENDBRANCH  18  19
ENDBRANCH   1  18
TORSDOF 7
ENDMDL
MODEL 2
REMARK VINA RESULT:     -11.6      3.012     10.829
REMARK  Name = 446129
REMARK  7 active torsions:
REMARK  status: ('A' for Active; 'I' for Inactive)
REMARK    1  A    between atoms: C_1  and  O_2
REMARK    2  A    between atoms: C_1  and  C_4
REMARK    3  A    between atoms: C_1  and  C_18
REMARK    4  A    between atoms: C_4  and  N_5
REMARK    5  A    between atoms: C_18  and  O_19
REMARK    6  A    between atoms: O_19  and  C_23
REMARK    7  A    between atoms: C_20  and  C_26
REMARK                            x       y       z     vdW  Elec       q    Type
REMARK                         _______ _______ _______ _____ _____    ______ ____
ROOT
ATOM      1  C   UNL     1      35.993 -17.626 -22.276  0.00  0.00    +0.133 C 
ENDROOT
BRANCH   1   2
ATOM      2  O   UNL     1      37.360 -17.984 -22.497  0.00  0.00    -0.383 OA
ATOM      3  H   UNL     1      37.449 -18.396 -23.370  0.00  0.00    +0.210 HD
ENDBRANCH   1   2
BRANCH   1   4
ATOM      4  C   UNL     1      35.490 -16.877 -23.513  0.00  0.00    -0.043 C 
BRANCH   4   5
ATOM      5  N   UNL     1      35.212 -15.469 -23.229  0.00  0.00    +0.391 N 
ATOM      6  N   UNL     1      33.618 -13.232 -22.449  0.00  0.00    -0.298 N 
ATOM      7  C   UNL     1      34.812 -15.295 -21.828  0.00  0.00    -0.055 C 
ATOM      8  C   UNL     1      34.158 -14.964 -24.117  0.00  0.00    -0.055 C 
ATOM      9  C   UNL     1      34.573 -13.818 -21.504  0.00  0.00    +0.069 C 
ATOM     10  C   UNL     1      33.897 -13.476 -23.870  0.00  0.00    +0.069 C 
ATOM     11  H   UNL     1      36.067 -14.937 -23.397  0.00  0.00    -0.079 HD
ATOM     12  N   UNL     1      33.065 -10.939 -22.877  0.00  0.00    -0.229 NA
ATOM     13  C   UNL     1      32.931 -12.061 -22.107  0.00  0.00    +0.132 C 
ATOM     14  C   UNL     1      32.115 -12.075 -20.966  0.00  0.00    +0.034 C 
ATOM     15  C   UNL     1      31.427 -10.920 -20.612  0.00  0.00    +0.004 C 
ATOM     16  C   UNL     1      32.381  -9.834 -22.502  0.00  0.00    +0.100 C 
ATOM     17  C   UNL     1      31.557  -9.774 -21.390  0.00  0.00    +0.021 C 
ENDBRANCH   4   5
ENDBRANCH   1   4
BRANCH   1  18
ATOM     18  C   UNL     1      35.198 -18.895 -21.973  0.00  0.00    +0.232 C 
BRANCH  18  19
ATOM     19  O   UNL     1      36.013 -19.777 -21.208  0.00  0.00    -0.473 OA
BRANCH  19  23
ATOM     20  C   UNL     1      34.095 -22.043 -18.307  0.00  0.00    -0.022 C 
ATOM     21  C   UNL     1      35.488 -22.036 -18.378  0.00  0.00    -0.001 C 
ATOM     22  C   UNL     1      33.347 -21.289 -19.211  0.00  0.00    -0.001 C 
ATOM     23  C   UNL     1      35.381 -20.525 -20.252  0.00  0.00    +0.139 C 
ATOM     24  C   UNL     1      36.133 -21.274 -19.353  0.00  0.00    +0.037 C 
ATOM     25  C   UNL     1      33.992 -20.529 -20.187  0.00  0.00    +0.037 C 
BRANCH  20  26
ATOM     26  C   UNL     1      33.394 -22.872 -17.247  0.00  0.00    +0.022 C 
ATOM     27  C   UNL     1      34.175 -22.889 -15.921  0.00  0.00    +0.004 C 
ATOM     28  C   UNL     1      31.944 -22.411 -17.026  0.00  0.00    +0.004 C 
ATOM     29  C   UNL     1      33.466 -23.734 -14.865  0.00  0.00    +0.000 C 
ATOM     30  C   UNL     1      31.243 -23.258 -15.965  0.00  0.00    +0.000 C 
ATOM     31  C   UNL     1      32.024 -23.278 -14.655  0.00  0.00    +0.000 C 
ENDBRANCH  20  26
ENDBRANCH  19  23
ENDBRANCH  18  19
ENDBRANCH   1  18
TORSDOF 7
ENDMDL
MODEL 3
REMARK VINA RESULT:     -11.6      2.951     10.820
REMARK  Name = 446129
REMARK  7 active torsions:
REMARK  status: ('A' for Active; 'I' for Inactive)
REMARK    1  A    between atoms: C_1  and  O_2
REMARK    2  A    between atoms: C_1  and  C_4
REMARK    3  A    between atoms: C_1  and  C_18
REMARK    4  A    between atoms: C_4  and  N_5
REMARK    5  A    between atoms: C_18  and  O_19
REMARK    6  A    between atoms: O_19  and  C_23
REMARK    7  A    between atoms: C_20  and  C_26
REMARK                            x       y       z     vdW  Elec       q    Type
REMARK                         _______ _______ _______ _____ _____    ______ ____
ROOT
ATOM      1  C   UNL     1      36.840 -17.992 -22.125  0.00  0.00    +0.133 C 
ENDROOT
BRANCH   1   2
ATOM      2  O   UNL     1      38.121 -18.268 -22.696  0.00  0.00    -0.383 OA
ATOM      3  H   UNL     1      38.683 -18.704 -22.036  0.00  0.00    +0.210 HD
ENDBRANCH   1   2
BRANCH   1   4
ATOM      4  C   UNL     1      35.804 -18.000 -23.251  0.00  0.00    -0.043 C 
BRANCH   4   5
ATOM      5  N   UNL     1      34.962 -16.804 -23.233  0.00  0.00    +0.391 N 
ATOM      6  N   UNL     1      34.393 -14.012 -23.436  0.00  0.00    -0.298 N 
ATOM      7  C   UNL     1      34.991 -16.133 -24.538  0.00  0.00    -0.055 C 
ATOM      8  C   UNL     1      35.407 -15.878 -22.184  0.00  0.00    -0.055 C 
ATOM      9  C   UNL     1      34.070 -14.911 -24.549  0.00  0.00    +0.069 C 
ATOM     10  C   UNL     1      34.499 -14.647 -22.117  0.00  0.00    +0.069 C 
ATOM     11  H   UNL     1      34.004 -17.093 -23.032  0.00  0.00    -0.079 HD
ATOM     12  N   UNL     1      33.169 -12.162 -22.529  0.00  0.00    -0.229 NA
ATOM     13  C   UNL     1      33.999 -12.670 -23.490  0.00  0.00    +0.132 C 
ATOM     14  C   UNL     1      34.474 -11.877 -24.544  0.00  0.00    +0.034 C 
ATOM     15  C   UNL     1      34.091 -10.542 -24.612  0.00  0.00    +0.004 C 
ATOM     16  C   UNL     1      32.818 -10.860 -22.628  0.00  0.00    +0.100 C 
ATOM     17  C   UNL     1      33.248 -10.016 -23.639  0.00  0.00    +0.021 C 
ENDBRANCH   4   5
ENDBRANCH   1   4
BRANCH   1  18
ATOM     18  C   UNL     1      36.557 -19.026 -21.036  0.00  0.00    +0.232 C 
BRANCH  18  19
ATOM     19  O   UNL     1      35.267 -19.588 -21.259  0.00  0.00    -0.473 OA
BRANCH  19  23
ATOM     20  C   UNL     1      33.762 -22.048 -18.274  0.00  0.00    -0.022 C 
ATOM     21  C   UNL     1      32.891 -21.300 -19.066  0.00  0.00    -0.001 C 
ATOM     22  C   UNL     1      35.138 -21.968 -18.485  0.00  0.00    -0.001 C 
ATOM     23  C   UNL     1      34.771 -20.399 -20.274  0.00  0.00    +0.139 C 
ATOM     24  C   UNL     1      33.397 -20.473 -20.069  0.00  0.00    +0.037 C 
ATOM     25  C   UNL     1      35.644 -21.141 -19.487  0.00  0.00    +0.037 C 
BRANCH  20  26
ATOM     26  C   UNL     1      33.211 -22.946 -17.182  0.00  0.00    +0.022 C 
ATOM     27  C   UNL     1      34.151 -23.013 -15.966  0.00  0.00    +0.004 C 
ATOM     28  C   UNL     1      31.793 -22.529 -16.759  0.00  0.00    +0.004 C 
ATOM     29  C   UNL     1      33.592 -23.927 -14.877  0.00  0.00    +0.000 C 
ATOM     30  C   UNL     1      31.243 -23.444 -15.667  0.00  0.00    +0.000 C 
ATOM     31  C   UNL     1      32.181 -23.515 -14.466  0.00  0.00    +0.000 C 
ENDBRANCH  20  26
ENDBRANCH  19  23
ENDBRANCH  18  19
ENDBRANCH   1  18
TORSDOF 7
ENDMDL
MODEL 4
REMARK VINA RESULT:     -11.5      1.049      1.669
REMARK  Name = 446129
REMARK  7 active torsions:
REMARK  status: ('A' for Active; 'I' for Inactive)
REMARK    1  A    between atoms: C_1  and  O_2
REMARK    2  A    between atoms: C_1  and  C_4
REMARK    3  A    between atoms: C_1  and  C_18
REMARK    4  A    between atoms: C_4  and  N_5
REMARK    5  A    between atoms: C_18  and  O_19
REMARK    6  A    between atoms: O_19  and  C_23
REMARK    7  A    between atoms: C_20  and  C_26
REMARK                            x       y       z     vdW  Elec       q    Type
REMARK                         _______ _______ _______ _____ _____    ______ ____
ROOT
ATOM      1  C   UNL     1      33.820 -15.285 -24.608  0.00  0.00    +0.133 C 
ENDROOT
BRANCH   1   2
ATOM      2  O   UNL     1      33.338 -15.007 -25.926  0.00  0.00    -0.383 OA
ATOM      3  H   UNL     1      33.993 -14.476 -26.404  0.00  0.00    +0.210 HD
ENDBRANCH   1   2
BRANCH   1   4
ATOM      4  C   UNL     1      35.270 -15.759 -24.721  0.00  0.00    -0.043 C 
BRANCH   4   5
ATOM      5  N   UNL     1      35.525 -16.951 -23.911  0.00  0.00    +0.391 N 
ATOM      6  N   UNL     1      35.054 -18.821 -21.805  0.00  0.00    -0.298 N 
ATOM      7  C   UNL     1      34.385 -17.872 -23.977  0.00  0.00    -0.055 C 
ATOM      8  C   UNL     1      35.785 -16.578 -22.515  0.00  0.00    -0.055 C 
ATOM      9  C   UNL     1      34.661 -19.148 -23.179  0.00  0.00    +0.069 C 
ATOM     10  C   UNL     1      36.110 -17.811 -21.668  0.00  0.00    +0.069 C 
ATOM     11  H   UNL     1      36.350 -17.419 -24.286  0.00  0.00    -0.079 HD
ATOM     12  N   UNL     1      36.042 -20.191 -20.104  0.00  0.00    -0.229 NA
ATOM     13  C   UNL     1      34.935 -19.788 -20.799  0.00  0.00    +0.132 C 
ATOM     14  C   UNL     1      33.667 -20.323 -20.533  0.00  0.00    +0.034 C 
ATOM     15  C   UNL     1      33.533 -21.285 -19.538  0.00  0.00    +0.004 C 
ATOM     16  C   UNL     1      35.874 -21.128 -19.144  0.00  0.00    +0.100 C 
ATOM     17  C   UNL     1      34.653 -21.700 -18.825  0.00  0.00    +0.021 C 
ENDBRANCH   4   5
ENDBRANCH   1   4
BRANCH   1  18
ATOM     18  C   UNL     1      33.660 -14.028 -23.754  0.00  0.00    +0.232 C 
BRANCH  18  19
ATOM     19  O   UNL     1      34.444 -12.983 -24.322  0.00  0.00    -0.473 OA
BRANCH  19  23
ATOM     20  C   UNL     1      33.438  -9.102 -23.247  0.00  0.00    -0.022 C 
ATOM     21  C   UNL     1      32.791 -10.182 -22.646  0.00  0.00    -0.001 C 
ATOM     22  C   UNL     1      34.423  -9.327 -24.210  0.00  0.00    -0.001 C 
ATOM     23  C   UNL     1      34.111 -11.703 -23.968  0.00  0.00    +0.139 C 
ATOM     24  C   UNL     1      33.129 -11.486 -23.007  0.00  0.00    +0.037 C 
ATOM     25  C   UNL     1      34.759 -10.631 -24.571  0.00  0.00    +0.037 C 
BRANCH  20  26
ATOM     26  C   UNL     1      33.070  -7.683 -22.855  0.00  0.00    +0.022 C 
ATOM     27  C   UNL     1      33.798  -6.641 -23.722  0.00  0.00    +0.004 C 
ATOM     28  C   UNL     1      31.549  -7.458 -22.885  0.00  0.00    +0.004 C 
ATOM     29  C   UNL     1      33.427  -5.216 -23.313  0.00  0.00    +0.000 C 
ATOM     30  C   UNL     1      31.186  -6.030 -22.480  0.00  0.00    +0.000 C 
ATOM     31  C   UNL     1      31.916  -5.000 -23.335  0.00  0.00    +0.000 C 
ENDBRANCH  20  26
ENDBRANCH  19  23
ENDBRANCH  18  19
ENDBRANCH   1  18
TORSDOF 7
ENDMDL
MODEL 5
REMARK VINA RESULT:     -11.5      2.791     10.594
REMARK  Name = 446129
REMARK  7 active torsions:
REMARK  status: ('A' for Active; 'I' for Inactive)
REMARK    1  A    between atoms: C_1  and  O_2
REMARK    2  A    between atoms: C_1  and  C_4
REMARK    3  A    between atoms: C_1  and  C_18
REMARK    4  A    between atoms: C_4  and  N_5
REMARK    5  A    between atoms: C_18  and  O_19
REMARK    6  A    between atoms: O_19  and  C_23
REMARK    7  A    between atoms: C_20  and  C_26
REMARK                            x       y       z     vdW  Elec       q    Type
REMARK                         _______ _______ _______ _____ _____    ______ ____
ROOT
ATOM      1  C   UNL     1      34.198 -14.663 -25.026  0.00  0.00    +0.133 C 
ENDROOT
BRANCH   1   2
ATOM      2  O   UNL     1      33.227 -15.548 -25.588  0.00  0.00    -0.383 OA
ATOM      3  H   UNL     1      32.443 -15.573 -25.018  0.00  0.00    +0.210 HD
ENDBRANCH   1   2
BRANCH   1   4
ATOM      4  C   UNL     1      33.639 -14.113 -23.712  0.00  0.00    -0.043 C 
BRANCH   4   5
ATOM      5  N   UNL     1      33.261 -12.704 -23.822  0.00  0.00    +0.391 N 
ATOM      6  N   UNL     1      33.571  -9.886 -23.469  0.00  0.00    -0.298 N 
ATOM      7  C   UNL     1      34.258 -11.962 -24.604  0.00  0.00    -0.055 C 
ATOM      8  C   UNL     1      33.124 -12.103 -22.489  0.00  0.00    -0.055 C 
ATOM      9  C   UNL     1      33.845 -10.498 -24.773  0.00  0.00    +0.069 C 
ATOM     10  C   UNL     1      32.673 -10.643 -22.588  0.00  0.00    +0.069 C 
ATOM     11  H   UNL     1      32.361 -12.652 -24.300  0.00  0.00    -0.079 HD
ATOM     12  N   UNL     1      32.486  -7.820 -22.921  0.00  0.00    -0.229 NA
ATOM     13  C   UNL     1      33.603  -8.493 -23.335  0.00  0.00    +0.132 C 
ATOM     14  C   UNL     1      34.796  -7.821 -23.634  0.00  0.00    +0.034 C 
ATOM     15  C   UNL     1      34.843  -6.437 -23.506  0.00  0.00    +0.004 C 
ATOM     16  C   UNL     1      32.569  -6.475 -22.808  0.00  0.00    +0.100 C 
ATOM     17  C   UNL     1      33.713  -5.744 -23.085  0.00  0.00    +0.021 C 
ENDBRANCH   4   5
ENDBRANCH   1   4
BRANCH   1  18
ATOM     18  C   UNL     1      35.511 -15.424 -24.851  0.00  0.00    +0.232 C 
BRANCH  18  19
ATOM     19  O   UNL     1      35.261 -16.817 -25.014  0.00  0.00    -0.473 OA
BRANCH  19  23
ATOM     20  C   UNL     1      34.849 -19.056 -21.544  0.00  0.00    -0.022 C 
ATOM     21  C   UNL     1      35.615 -17.890 -21.534  0.00  0.00    -0.001 C 
ATOM     22  C   UNL     1      34.223 -19.470 -22.719  0.00  0.00    -0.001 C 
ATOM     23  C   UNL     1      35.126 -17.556 -23.869  0.00  0.00    +0.139 C 
ATOM     24  C   UNL     1      35.753 -17.137 -22.700  0.00  0.00    +0.037 C 
ATOM     25  C   UNL     1      34.362 -18.718 -23.886  0.00  0.00    +0.037 C 
BRANCH  20  26
ATOM     26  C   UNL     1      34.700 -19.875 -20.275  0.00  0.00    +0.022 C 
ATOM     27  C   UNL     1      33.338 -20.589 -20.209  0.00  0.00    +0.004 C 
ATOM     28  C   UNL     1      35.855 -20.876 -20.101  0.00  0.00    +0.004 C 
ATOM     29  C   UNL     1      33.195 -21.402 -18.924  0.00  0.00    +0.000 C 
ATOM     30  C   UNL     1      35.702 -21.689 -18.816  0.00  0.00    +0.000 C 
ATOM     31  C   UNL     1      34.347 -22.388 -18.751  0.00  0.00    +0.000 C 
ENDBRANCH  20  26
ENDBRANCH  19  23
ENDBRANCH  18  19
ENDBRANCH   1  18
TORSDOF 7
ENDMDL
MODEL 6
REMARK VINA RESULT:     -11.1      2.926     10.905
REMARK  Name = 446129
REMARK  7 active torsions:
REMARK  status: ('A' for Active; 'I' for Inactive)
REMARK    1  A    between atoms: C_1  and  O_2
REMARK    2  A    between atoms: C_1  and  C_4
REMARK    3  A    between atoms: C_1  and  C_18
REMARK    4  A    between atoms: C_4  and  N_5
REMARK    5  A    between atoms: C_18  and  O_19
REMARK    6  A    between atoms: O_19  and  C_23
REMARK    7  A    between atoms: C_20  and  C_26
REMARK                            x       y       z     vdW  Elec       q    Type
REMARK                         _______ _______ _______ _____ _____    ______ ____
ROOT
ATOM      1  C   UNL     1      34.017 -13.881 -24.278  0.00  0.00    +0.133 C 
ENDROOT
BRANCH   1   2
ATOM      2  O   UNL     1      33.099 -14.671 -25.038  0.00  0.00    -0.383 OA
ATOM      3  H   UNL     1      33.056 -15.565 -24.665  0.00  0.00    +0.210 HD
ENDBRANCH   1   2
BRANCH   1   4
ATOM      4  C   UNL     1      33.274 -13.330 -23.058  0.00  0.00    -0.043 C 
BRANCH   4   5
ATOM      5  N   UNL     1      33.500 -11.896 -22.878  0.00  0.00    +0.391 N 
ATOM      6  N   UNL     1      33.100  -9.111 -23.370  0.00  0.00    -0.298 N 
ATOM      7  C   UNL     1      32.269 -11.232 -22.433  0.00  0.00    -0.055 C 
ATOM      8  C   UNL     1      33.971 -11.288 -24.128  0.00  0.00    -0.055 C 
ATOM      9  C   UNL     1      32.506  -9.740 -22.186  0.00  0.00    +0.069 C 
ATOM     10  C   UNL     1      34.266  -9.798 -23.938  0.00  0.00    +0.069 C 
ATOM     11  H   UNL     1      34.217 -11.775 -22.162  0.00  0.00    -0.079 HD
ATOM     12  N   UNL     1      34.142  -6.968 -23.632  0.00  0.00    -0.229 NA
ATOM     13  C   UNL     1      33.006  -7.725 -23.541  0.00  0.00    +0.132 C 
ATOM     14  C   UNL     1      31.732  -7.145 -23.613  0.00  0.00    +0.034 C 
ATOM     15  C   UNL     1      31.622  -5.769 -23.781  0.00  0.00    +0.004 C 
ATOM     16  C   UNL     1      33.997  -5.634 -23.795  0.00  0.00    +0.100 C 
ATOM     17  C   UNL     1      32.771  -4.992 -23.875  0.00  0.00    +0.021 C 
ENDBRANCH   4   5
ENDBRANCH   1   4
BRANCH   1  18
ATOM     18  C   UNL     1      35.221 -14.746 -23.911  0.00  0.00    +0.232 C 
BRANCH  18  19
ATOM     19  O   UNL     1      35.048 -16.041 -24.480  0.00  0.00    -0.473 OA
BRANCH  19  23
ATOM     20  C   UNL     1      35.076 -19.252 -21.851  0.00  0.00    -0.022 C 
ATOM     21  C   UNL     1      34.548 -19.405 -23.133  0.00  0.00    -0.001 C 
ATOM     22  C   UNL     1      35.594 -18.020 -21.453  0.00  0.00    -0.001 C 
ATOM     23  C   UNL     1      35.057 -17.100 -23.613  0.00  0.00    +0.139 C 
ATOM     24  C   UNL     1      34.539 -18.326 -24.017  0.00  0.00    +0.037 C 
ATOM     25  C   UNL     1      35.584 -16.941 -22.336  0.00  0.00    +0.037 C 
BRANCH  20  26
ATOM     26  C   UNL     1      35.085 -20.426 -20.890  0.00  0.00    +0.022 C 
ATOM     27  C   UNL     1      36.285 -20.372 -19.928  0.00  0.00    +0.004 C 
ATOM     28  C   UNL     1      33.762 -20.541 -20.114  0.00  0.00    +0.004 C 
ATOM     29  C   UNL     1      36.290 -21.563 -18.971  0.00  0.00    +0.000 C 
ATOM     30  C   UNL     1      33.777 -21.732 -19.157  0.00  0.00    +0.000 C 
ATOM     31  C   UNL     1      34.972 -21.678 -18.210  0.00  0.00    +0.000 C 
ENDBRANCH  20  26
ENDBRANCH  19  23
ENDBRANCH  18  19
ENDBRANCH   1  18
TORSDOF 7
ENDMDL
MODEL 7
REMARK VINA RESULT:     -11.0      6.611     10.177
REMARK  Name = 446129
REMARK  7 active torsions:
REMARK  status: ('A' for Active; 'I' for Inactive)
REMARK    1  A    between atoms: C_1  and  O_2
REMARK    2  A    between atoms: C_1  and  C_4
REMARK    3  A    between atoms: C_1  and  C_18
REMARK    4  A    between atoms: C_4  and  N_5
REMARK    5  A    between atoms: C_18  and  O_19
REMARK    6  A    between atoms: O_19  and  C_23
REMARK    7  A    between atoms: C_20  and  C_26
REMARK                            x       y       z     vdW  Elec       q    Type
REMARK                         _______ _______ _______ _____ _____    ______ ____
ROOT
ATOM      1  C   UNL     1      37.397 -22.603 -15.766  0.00  0.00    +0.133 C 
ENDROOT
BRANCH   1   2
ATOM      2  O   UNL     1      37.678 -22.022 -14.489  0.00  0.00    -0.383 OA
ATOM      3  H   UNL     1      38.313 -21.297 -14.597  0.00  0.00    +0.210 HD
ENDBRANCH   1   2
BRANCH   1   4
ATOM      4  C   UNL     1      36.337 -23.690 -15.572  0.00  0.00    -0.043 C 
BRANCH   4   5
ATOM      5  N   UNL     1      34.979 -23.152 -15.629  0.00  0.00    +0.391 N 
ATOM      6  N   UNL     1      32.126 -23.273 -15.691  0.00  0.00    -0.298 N 
ATOM      7  C   UNL     1      34.225 -23.524 -14.426  0.00  0.00    -0.055 C 
ATOM      8  C   UNL     1      34.282 -23.639 -16.826  0.00  0.00    -0.055 C 
ATOM      9  C   UNL     1      32.819 -22.919 -14.448  0.00  0.00    +0.069 C 
ATOM     10  C   UNL     1      32.879 -23.037 -16.929  0.00  0.00    +0.069 C 
ATOM     11  H   UNL     1      35.042 -22.134 -15.677  0.00  0.00    -0.079 HD
ATOM     12  N   UNL     1      30.118 -22.387 -16.655  0.00  0.00    -0.229 NA
ATOM     13  C   UNL     1      30.729 -23.210 -15.749  0.00  0.00    +0.132 C 
ATOM     14  C   UNL     1      29.987 -24.003 -14.862  0.00  0.00    +0.034 C 
ATOM     15  C   UNL     1      28.598 -23.950 -14.907  0.00  0.00    +0.004 C 
ATOM     16  C   UNL     1      28.766 -22.362 -16.669  0.00  0.00    +0.100 C 
ATOM     17  C   UNL     1      27.968 -23.117 -15.825  0.00  0.00    +0.021 C 
ENDBRANCH   4   5
ENDBRANCH   1   4
BRANCH   1  18
ATOM     18  C   UNL     1      36.957 -21.494 -16.721  0.00  0.00    +0.232 C 
BRANCH  18  19
ATOM     19  O   UNL     1      36.811 -22.043 -18.027  0.00  0.00    -0.473 OA
BRANCH  19  23
ATOM     20  C   UNL     1      35.431 -19.478 -20.984  0.00  0.00    -0.022 C 
ATOM     21  C   UNL     1      34.547 -20.351 -20.349  0.00  0.00    -0.001 C 
ATOM     22  C   UNL     1      36.779 -19.468 -20.625  0.00  0.00    -0.001 C 
ATOM     23  C   UNL     1      36.356 -21.198 -19.003  0.00  0.00    +0.139 C 
ATOM     24  C   UNL     1      35.010 -21.213 -19.356  0.00  0.00    +0.037 C 
ATOM     25  C   UNL     1      37.242 -20.331 -19.632  0.00  0.00    +0.037 C 
BRANCH  20  26
ATOM     26  C   UNL     1      34.926 -18.542 -22.065  0.00  0.00    +0.022 C 
ATOM     27  C   UNL     1      35.709 -17.217 -22.090  0.00  0.00    +0.004 C 
ATOM     28  C   UNL     1      34.933 -19.210 -23.451  0.00  0.00    +0.004 C 
ATOM     29  C   UNL     1      35.187 -16.278 -23.176  0.00  0.00    +0.000 C 
ATOM     30  C   UNL     1      34.414 -18.263 -24.532  0.00  0.00    +0.000 C 
ATOM     31  C   UNL     1      35.187 -16.949 -24.547  0.00  0.00    +0.000 C 
ENDBRANCH  20  26
ENDBRANCH  19  23
ENDBRANCH  18  19
ENDBRANCH   1  18
TORSDOF 7
ENDMDL
MODEL 8
REMARK VINA RESULT:     -10.7      6.649     10.289
REMARK  Name = 446129
REMARK  7 active torsions:
REMARK  status: ('A' for Active; 'I' for Inactive)
REMARK    1  A    between atoms: C_1  and  O_2
REMARK    2  A    between atoms: C_1  and  C_4
REMARK    3  A    between atoms: C_1  and  C_18
REMARK    4  A    between atoms: C_4  and  N_5
REMARK    5  A    between atoms: C_18  and  O_19
REMARK    6  A    between atoms: O_19  and  C_23
REMARK    7  A    between atoms: C_20  and  C_26
REMARK                            x       y       z     vdW  Elec       q    Type
REMARK                         _______ _______ _______ _____ _____    ______ ____
ROOT
ATOM      1  C   UNL     1      32.390 -22.339 -16.671  0.00  0.00    +0.133 C 
ENDROOT
BRANCH   1   2
ATOM      2  O   UNL     1      30.996 -22.659 -16.693  0.00  0.00    -0.383 OA
ATOM      3  H   UNL     1      30.529 -22.029 -17.264  0.00  0.00    +0.210 HD
ENDBRANCH   1   2
BRANCH   1   4
ATOM      4  C   UNL     1      32.983 -22.881 -15.368  0.00  0.00    -0.043 C 
BRANCH   4   5
ATOM      5  N   UNL     1      34.329 -23.421 -15.559  0.00  0.00    +0.391 N 
ATOM      6  N   UNL     1      36.917 -24.321 -14.751  0.00  0.00    -0.298 N 
ATOM      7  C   UNL     1      34.483 -24.690 -14.838  0.00  0.00    -0.055 C 
ATOM      8  C   UNL     1      35.339 -22.460 -15.099  0.00  0.00    -0.055 C 
ATOM      9  C   UNL     1      35.869 -25.294 -15.076  0.00  0.00    +0.069 C 
ATOM     10  C   UNL     1      36.754 -22.988 -15.345  0.00  0.00    +0.069 C 
ATOM     11  H   UNL     1      34.465 -23.589 -16.556  0.00  0.00    -0.079 HD
ATOM     12  N   UNL     1      39.261 -24.338 -15.250  0.00  0.00    -0.229 NA
ATOM     13  C   UNL     1      38.216 -24.764 -14.477  0.00  0.00    +0.132 C 
ATOM     14  C   UNL     1      38.409 -25.645 -13.404  0.00  0.00    +0.034 C 
ATOM     15  C   UNL     1      39.694 -26.095 -13.120  0.00  0.00    +0.004 C 
ATOM     16  C   UNL     1      40.496 -24.796 -14.944  0.00  0.00    +0.100 C 
ATOM     17  C   UNL     1      40.762 -25.667 -13.899  0.00  0.00    +0.021 C 
ENDBRANCH   4   5
ENDBRANCH   1   4
BRANCH   1  18
ATOM     18  C   UNL     1      33.046 -22.923 -17.922  0.00  0.00    +0.232 C 
BRANCH  18  19
ATOM     19  O   UNL     1      34.381 -22.435 -18.011  0.00  0.00    -0.473 OA
BRANCH  19  23
ATOM     20  C   UNL     1      35.171 -19.704 -21.035  0.00  0.00    -0.022 C 
ATOM     21  C   UNL     1      36.224 -20.313 -20.353  0.00  0.00    -0.001 C 
ATOM     22  C   UNL     1      33.852 -20.012 -20.699  0.00  0.00    -0.001 C 
ATOM     23  C   UNL     1      34.642 -21.534 -19.008  0.00  0.00    +0.139 C 
ATOM     24  C   UNL     1      35.959 -21.231 -19.337  0.00  0.00    +0.037 C 
ATOM     25  C   UNL     1      33.587 -20.929 -19.683  0.00  0.00    +0.037 C 
BRANCH  20  26
ATOM     26  C   UNL     1      35.459 -18.705 -22.139  0.00  0.00    +0.022 C 
ATOM     27  C   UNL     1      34.546 -18.917 -23.359  0.00  0.00    +0.004 C 
ATOM     28  C   UNL     1      35.376 -17.254 -21.635  0.00  0.00    +0.004 C 
ATOM     29  C   UNL     1      34.851 -17.912 -24.468  0.00  0.00    +0.000 C 
ATOM     30  C   UNL     1      35.678 -16.255 -22.751  0.00  0.00    +0.000 C 
ATOM     31  C   UNL     1      34.776 -16.474 -23.962  0.00  0.00    +0.000 C 
ENDBRANCH  20  26
ENDBRANCH  19  23
ENDBRANCH  18  19
ENDBRANCH   1  18
TORSDOF 7
ENDMDL
MODEL 9
REMARK VINA RESULT:     -10.2      3.909      6.408
REMARK  Name = 446129
REMARK  7 active torsions:
REMARK  status: ('A' for Active; 'I' for Inactive)
REMARK    1  A    between atoms: C_1  and  O_2
REMARK    2  A    between atoms: C_1  and  C_4
REMARK    3  A    between atoms: C_1  and  C_18
REMARK    4  A    between atoms: C_4  and  N_5
REMARK    5  A    between atoms: C_18  and  O_19
REMARK    6  A    between atoms: O_19  and  C_23
REMARK    7  A    between atoms: C_20  and  C_26
REMARK                            x       y       z     vdW  Elec       q    Type
REMARK                         _______ _______ _______ _____ _____    ______ ____
ROOT
ATOM      1  C   UNL     1      32.188  -9.411 -20.553  0.00  0.00    +0.133 C 
ENDROOT
BRANCH   1   2
ATOM      2  O   UNL     1      31.172  -9.774 -19.615  0.00  0.00    -0.383 OA
ATOM      3  H   UNL     1      30.681 -10.541 -19.950  0.00  0.00    +0.210 HD
ENDBRANCH   1   2
BRANCH   1   4
ATOM      4  C   UNL     1      31.997 -10.257 -21.815  0.00  0.00    -0.043 C 
BRANCH   4   5
ATOM      5  N   UNL     1      32.970 -11.345 -21.901  0.00  0.00    +0.391 N 
ATOM      6  N   UNL     1      33.970 -13.890 -22.726  0.00  0.00    -0.298 N 
ATOM      7  C   UNL     1      33.371 -11.569 -23.295  0.00  0.00    -0.055 C 
ATOM      8  C   UNL     1      32.412 -12.580 -21.336  0.00  0.00    -0.055 C 
ATOM      9  C   UNL     1      34.432 -12.669 -23.392  0.00  0.00    +0.069 C 
ATOM     10  C   UNL     1      33.441 -13.713 -21.368  0.00  0.00    +0.069 C 
ATOM     11  H   UNL     1      33.793 -11.079 -21.359  0.00  0.00    -0.079 HD
ATOM     12  N   UNL     1      35.177 -15.858 -22.078  0.00  0.00    -0.229 NA
ATOM     13  C   UNL     1      34.554 -15.121 -23.048  0.00  0.00    +0.132 C 
ATOM     14  C   UNL     1      34.483 -15.567 -24.375  0.00  0.00    +0.034 C 
ATOM     15  C   UNL     1      35.059 -16.787 -24.711  0.00  0.00    +0.004 C 
ATOM     16  C   UNL     1      35.726 -17.039 -22.442  0.00  0.00    +0.100 C 
ATOM     17  C   UNL     1      35.694 -17.543 -23.732  0.00  0.00    +0.021 C 
ENDBRANCH   4   5
ENDBRANCH   1   4
BRANCH   1  18
ATOM     18  C   UNL     1      32.099  -7.909 -20.814  0.00  0.00    +0.232 C 
BRANCH  18  19
ATOM     19  O   UNL     1      33.418  -7.384 -20.935  0.00  0.00    -0.473 OA
BRANCH  19  23
ATOM     20  C   UNL     1      34.262  -5.230 -24.381  0.00  0.00    -0.022 C 
ATOM     21  C   UNL     1      33.173  -4.874 -23.585  0.00  0.00    -0.001 C 
ATOM     22  C   UNL     1      35.065  -6.311 -24.020  0.00  0.00    -0.001 C 
ATOM     23  C   UNL     1      33.695  -6.674 -22.072  0.00  0.00    +0.139 C 
ATOM     24  C   UNL     1      32.890  -5.597 -22.427  0.00  0.00    +0.037 C 
ATOM     25  C   UNL     1      34.781  -7.036 -22.862  0.00  0.00    +0.037 C 
BRANCH  20  26
ATOM     26  C   UNL     1      34.569  -4.444 -25.642  0.00  0.00    +0.022 C 
ATOM     27  C   UNL     1      35.620  -5.149 -26.517  0.00  0.00    +0.004 C 
ATOM     28  C   UNL     1      33.297  -4.137 -26.450  0.00  0.00    +0.004 C 
ATOM     29  C   UNL     1      35.929  -4.344 -27.778  0.00  0.00    +0.000 C 
ATOM     30  C   UNL     1      33.615  -3.337 -27.712  0.00  0.00    +0.000 C 
ATOM     31  C   UNL     1      34.663  -4.035 -28.572  0.00  0.00    +0.000 C 
ENDBRANCH  20  26
ENDBRANCH  19  23
ENDBRANCH  18  19
ENDBRANCH   1  18
TORSDOF 7
ENDMDL
