MODEL 1
REMARK VINA RESULT:     -11.1      0.000      0.000
REMARK  Name = 104758
REMARK  11 active torsions:
REMARK  status: ('A' for Active; 'I' for Inactive)
REMARK    1  A    between atoms: C_2  and  N_21
REMARK    2  A    between atoms: C_3  and  C_8
REMARK    3  A    between atoms: N_7  and  CA_10
REMARK    4  A    between atoms: CA_10  and  C_12
REMARK    5  A    between atoms: CA_10  and  CB_15
REMARK    6  A    between atoms: C_12  and  O_13
REMARK    7  A    between atoms: CB_15  and  CG_16
REMARK    8  A    between atoms: CG_16  and  CD_18
REMARK    9  A    between atoms: CD_18  and  OE1_19
REMARK   10  A    between atoms: N_21  and  C_23
REMARK   11  A    between atoms: C_23  and  C_27
REMARK                            x       y       z     vdW  Elec       q    Type
REMARK                         _______ _______ _______ _____ _____    ______ ____
ROOT
ATOM      1  S   UNL     1      35.149 -21.312 -19.381  0.00  0.00    -0.068 S 
ATOM      2  C   UNL     1      34.796 -20.124 -20.562  0.00  0.00    +0.079 C 
ATOM      3  C   UNL     1      33.493 -21.488 -18.985  0.00  0.00    +0.084 C 
ATOM      4  C   UNL     1      33.445 -19.868 -20.651  0.00  0.00    +0.022 C 
ATOM      5  C   UNL     1      32.690 -20.659 -19.737  0.00  0.00    +0.013 C 
ENDROOT
BRANCH   3   8
ATOM      6  O   UNL     1      33.773 -23.452 -17.690  0.00  0.00    -0.270 OA
ATOM      7  N   UNL     1      31.914 -22.169 -17.275  0.00  0.00    -0.293 N 
ATOM      8  C   ACE A   0      33.116 -22.420 -17.972  0.00  0.00    +0.252 C 
ATOM      9  H   UNL     1      31.406 -21.357 -17.504  0.00  0.00    +0.150 HD
BRANCH   7  10
ATOM     10  CA  UNL     1      31.387 -23.036 -16.246  0.00  0.00    +0.172 C 
BRANCH  10  12
ATOM     11  OXT UNL     1      29.194 -22.038 -16.598  0.00  0.00    -0.248 OA
ATOM     12  C   UNL     1      29.877 -23.027 -16.367  0.00  0.00    +0.332 C 
BRANCH  12  13
ATOM     13  O   UNL     1      29.350 -24.271 -16.227  0.00  0.00    -0.479 OA
ATOM     14  H   UNL     1      29.696 -24.858 -15.583  0.00  0.00    +0.295 HD
ENDBRANCH  12  13
ENDBRANCH  10  12
BRANCH  10  15
ATOM     15  CB  UNL     1      31.897 -22.671 -14.847  0.00  0.00    +0.043 C 
BRANCH  15  16
ATOM     16  CG  UNL     1      31.049 -23.176 -13.672  0.00  0.00    +0.112 C 
BRANCH  16  18
ATOM     17  OE2 UNL     1      32.301 -25.063 -12.773  0.00  0.00    -0.250 OA
ATOM     18  CD  UNL     1      31.298 -24.626 -13.320  0.00  0.00    +0.314 C 
BRANCH  18  19
ATOM     19  OE1 UNL     1      30.274 -25.422 -13.724  0.00  0.00    -0.480 OA
ATOM     20  HE1 UNL     1      29.473 -25.039 -14.026  0.00  0.00    +0.295 HD
ENDBRANCH  18  19
ENDBRANCH  16  18
ENDBRANCH  15  16
ENDBRANCH  10  15
ENDBRANCH   7  10
ENDBRANCH   3   8
BRANCH   2  21
ATOM     21  N   UNL     1      35.800 -19.524 -21.311  0.00  0.00    -0.297 N 
ATOM     22  C   UNL     1      37.159 -19.402 -20.780  0.00  0.00    +0.113 C 
BRANCH  21  23
ATOM     23  C   UNL     1      35.561 -19.003 -22.639  0.00  0.00    +0.118 C 
BRANCH  23  27
ATOM     24  O   UNL     1      33.707 -15.443 -25.871  0.00  0.00    -0.209 OA
ATOM     25  N   UNL     1      34.446 -13.428 -22.486  0.00  0.00    -0.290 N 
ATOM     26  N   UNL     1      33.677 -13.449 -24.742  0.00  0.00    -0.322 NA
ATOM     27  C   UNL     1      35.271 -17.540 -22.594  0.00  0.00    -0.002 C 
ATOM     28  C   UNL     1      34.482 -15.528 -23.667  0.00  0.00    +0.108 C 
ATOM     29  C   UNL     1      34.751 -16.898 -23.719  0.00  0.00    +0.011 C 
ATOM     30  C   UNL     1      34.729 -14.796 -22.497  0.00  0.00    +0.062 C 
ATOM     31  C   UNL     1      35.520 -16.817 -21.427  0.00  0.00    -0.001 C 
ATOM     32  C   UNL     1      35.250 -15.448 -21.377  0.00  0.00    +0.015 C 
ATOM     33  C   UNL     1      33.926 -14.807 -24.845  0.00  0.00    +0.207 C 
ATOM     34  C   UNL     1      33.936 -12.843 -23.620  0.00  0.00    +0.174 C 
ATOM     35  C   UNL     1      33.652 -11.362 -23.544  0.00  0.00    +0.085 C 
ATOM     36  H   UNL     1      34.610 -12.891 -21.677  0.00  0.00    +0.154 HD
ENDBRANCH  23  27
ENDBRANCH  21  23
ENDBRANCH   2  21
TORSDOF 11
ENDMDL
MODEL 2
REMARK VINA RESULT:     -11.0      3.679     10.980
REMARK  Name = 104758
REMARK  11 active torsions:
REMARK  status: ('A' for Active; 'I' for Inactive)
REMARK    1  A    between atoms: C_2  and  N_21
REMARK    2  A    between atoms: C_3  and  C_8
REMARK    3  A    between atoms: N_7  and  CA_10
REMARK    4  A    between atoms: CA_10  and  C_12
REMARK    5  A    between atoms: CA_10  and  CB_15
REMARK    6  A    between atoms: C_12  and  O_13
REMARK    7  A    between atoms: CB_15  and  CG_16
REMARK    8  A    between atoms: CG_16  and  CD_18
REMARK    9  A    between atoms: CD_18  and  OE1_19
REMARK   10  A    between atoms: N_21  and  C_23
REMARK   11  A    between atoms: C_23  and  C_27
REMARK                            x       y       z     vdW  Elec       q    Type
REMARK                         _______ _______ _______ _____ _____    ______ ____
ROOT
ATOM      1  S   UNL     1      34.562 -15.598 -24.425  0.00  0.00    -0.068 S 
ATOM      2  C   UNL     1      35.085 -16.526 -23.084  0.00  0.00    +0.079 C 
ATOM      3  C   UNL     1      34.435 -14.186 -23.465  0.00  0.00    +0.084 C 
ATOM      4  C   UNL     1      35.160 -15.774 -21.933  0.00  0.00    +0.022 C 
ATOM      5  C   UNL     1      34.783 -14.418 -22.154  0.00  0.00    +0.013 C 
ENDROOT
BRANCH   3   8
ATOM      6  O   UNL     1      33.595 -12.884 -25.259  0.00  0.00    -0.270 OA
ATOM      7  N   UNL     1      34.076 -11.794 -23.295  0.00  0.00    -0.293 N 
ATOM      8  C   ACE A   0      34.003 -12.969 -24.075  0.00  0.00    +0.252 C 
ATOM      9  H   UNL     1      34.398 -11.871 -22.368  0.00  0.00    +0.150 HD
BRANCH   7  10
ATOM     10  CA  UNL     1      33.705 -10.485 -23.782  0.00  0.00    +0.172 C 
BRANCH  10  12
ATOM     11  OXT UNL     1      35.595  -8.952 -23.868  0.00  0.00    -0.248 OA
ATOM     12  C   UNL     1      34.943  -9.851 -24.383  0.00  0.00    +0.332 C 
BRANCH  12  13
ATOM     13  O   UNL     1      35.283 -10.426 -25.565  0.00  0.00    -0.479 OA
ATOM     14  H   UNL     1      34.628 -10.585 -26.216  0.00  0.00    +0.295 HD
ENDBRANCH  12  13
ENDBRANCH  10  12
BRANCH  10  15
ATOM     15  CB  UNL     1      33.028  -9.624 -22.708  0.00  0.00    +0.043 C 
BRANCH  15  16
ATOM     16  CG  UNL     1      31.671 -10.131 -22.202  0.00  0.00    +0.112 C 
BRANCH  16  18
ATOM     17  OE2 UNL     1      31.945 -10.721 -19.854  0.00  0.00    -0.250 OA
ATOM     18  CD  UNL     1      31.773 -11.064 -21.015  0.00  0.00    +0.314 C 
BRANCH  18  19
ATOM     19  OE1 UNL     1      31.691 -12.366 -21.395  0.00  0.00    -0.480 OA
ATOM     20  HE1 UNL     1      31.236 -12.984 -20.855  0.00  0.00    +0.295 HD
ENDBRANCH  18  19
ENDBRANCH  16  18
ENDBRANCH  15  16
ENDBRANCH  10  15
ENDBRANCH   7  10
ENDBRANCH   3   8
BRANCH   2  21
ATOM     21  N   UNL     1      35.384 -17.877 -23.210  0.00  0.00    -0.297 N 
ATOM     22  C   UNL     1      34.884 -18.652 -24.347  0.00  0.00    +0.113 C 
BRANCH  21  23
ATOM     23  C   UNL     1      36.198 -18.577 -22.241  0.00  0.00    +0.118 C 
BRANCH  23  27
ATOM     24  O   UNL     1      36.973 -21.776 -18.276  0.00  0.00    -0.209 OA
ATOM     25  N   UNL     1      32.993 -21.723 -18.752  0.00  0.00    -0.290 N 
ATOM     26  N   UNL     1      34.916 -22.517 -17.589  0.00  0.00    -0.322 NA
ATOM     27  C   UNL     1      35.354 -19.401 -21.329  0.00  0.00    -0.002 C 
ATOM     28  C   UNL     1      35.152 -20.940 -19.482  0.00  0.00    +0.108 C 
ATOM     29  C   UNL     1      35.952 -20.172 -20.331  0.00  0.00    +0.011 C 
ATOM     30  C   UNL     1      33.757 -20.942 -19.623  0.00  0.00    +0.062 C 
ATOM     31  C   UNL     1      33.965 -19.399 -21.475  0.00  0.00    -0.001 C 
ATOM     32  C   UNL     1      33.168 -20.167 -20.624  0.00  0.00    +0.015 C 
ATOM     33  C   UNL     1      35.752 -21.775 -18.404  0.00  0.00    +0.207 C 
ATOM     34  C   UNL     1      33.631 -22.466 -17.787  0.00  0.00    +0.174 C 
ATOM     35  C   UNL     1      32.749 -23.289 -16.879  0.00  0.00    +0.085 C 
ATOM     36  H   UNL     1      32.011 -21.741 -18.830  0.00  0.00    +0.154 HD
ENDBRANCH  23  27
ENDBRANCH  21  23
ENDBRANCH   2  21
TORSDOF 11
ENDMDL
MODEL 3
REMARK VINA RESULT:     -10.9      1.230      1.721
REMARK  Name = 104758
REMARK  11 active torsions:
REMARK  status: ('A' for Active; 'I' for Inactive)
REMARK    1  A    between atoms: C_2  and  N_21
REMARK    2  A    between atoms: C_3  and  C_8
REMARK    3  A    between atoms: N_7  and  CA_10
REMARK    4  A    between atoms: CA_10  and  C_12
REMARK    5  A    between atoms: CA_10  and  CB_15
REMARK    6  A    between atoms: C_12  and  O_13
REMARK    7  A    between atoms: CB_15  and  CG_16
REMARK    8  A    between atoms: CG_16  and  CD_18
REMARK    9  A    between atoms: CD_18  and  OE1_19
REMARK   10  A    between atoms: N_21  and  C_23
REMARK   11  A    between atoms: C_23  and  C_27
REMARK                            x       y       z     vdW  Elec       q    Type
REMARK                         _______ _______ _______ _____ _____    ______ ____
ROOT
ATOM      1  S   UNL     1      35.298 -21.270 -19.448  0.00  0.00    -0.068 S 
ATOM      2  C   UNL     1      34.957 -20.066 -20.617  0.00  0.00    +0.079 C 
ATOM      3  C   UNL     1      33.638 -21.453 -19.073  0.00  0.00    +0.084 C 
ATOM      4  C   UNL     1      33.607 -19.811 -20.717  0.00  0.00    +0.022 C 
ATOM      5  C   UNL     1      32.843 -20.615 -19.823  0.00  0.00    +0.013 C 
ENDROOT
BRANCH   3   8
ATOM      6  O   UNL     1      33.900 -23.441 -17.811  0.00  0.00    -0.270 OA
ATOM      7  N   UNL     1      32.050 -22.150 -17.379  0.00  0.00    -0.293 N 
ATOM      8  C   ACE A   0      33.252 -22.399 -18.077  0.00  0.00    +0.252 C 
ATOM      9  H   UNL     1      31.549 -21.331 -17.596  0.00  0.00    +0.150 HD
BRANCH   7  10
ATOM     10  CA  UNL     1      31.513 -23.030 -16.366  0.00  0.00    +0.172 C 
BRANCH  10  12
ATOM     11  OXT UNL     1      29.386 -21.903 -16.732  0.00  0.00    -0.248 OA
ATOM     12  C   UNL     1      30.004 -22.907 -16.404  0.00  0.00    +0.332 C 
BRANCH  12  13
ATOM     13  O   UNL     1      29.392 -24.072 -16.065  0.00  0.00    -0.479 OA
ATOM     14  H   UNL     1      28.782 -24.091 -15.353  0.00  0.00    +0.295 HD
ENDBRANCH  12  13
ENDBRANCH  10  12
BRANCH  10  15
ATOM     15  CB  UNL     1      32.120 -22.777 -14.981  0.00  0.00    +0.043 C 
BRANCH  15  16
ATOM     16  CG  UNL     1      32.305 -24.016 -14.095  0.00  0.00    +0.112 C 
BRANCH  16  18
ATOM     17  OE2 UNL     1      30.905 -23.671 -12.130  0.00  0.00    -0.250 OA
ATOM     18  CD  UNL     1      31.141 -24.279 -13.165  0.00  0.00    +0.314 C 
BRANCH  18  19
ATOM     19  OE1 UNL     1      30.383 -25.323 -13.595  0.00  0.00    -0.480 OA
ATOM     20  HE1 UNL     1      29.719 -25.184 -14.242  0.00  0.00    +0.295 HD
ENDBRANCH  18  19
ENDBRANCH  16  18
ENDBRANCH  15  16
ENDBRANCH  10  15
ENDBRANCH   7  10
ENDBRANCH   3   8
BRANCH   2  21
ATOM     21  N   UNL     1      35.969 -19.456 -21.347  0.00  0.00    -0.297 N 
ATOM     22  C   UNL     1      37.169 -18.944 -20.681  0.00  0.00    +0.113 C 
BRANCH  21  23
ATOM     23  C   UNL     1      35.895 -19.301 -22.783  0.00  0.00    +0.118 C 
BRANCH  23  27
ATOM     24  O   UNL     1      34.861 -14.910 -20.292  0.00  0.00    -0.209 OA
ATOM     25  N   UNL     1      34.418 -13.986 -24.168  0.00  0.00    -0.290 N 
ATOM     26  N   UNL     1      34.361 -13.331 -21.877  0.00  0.00    -0.322 NA
ATOM     27  C   UNL     1      35.506 -17.909 -23.151  0.00  0.00    -0.002 C 
ATOM     28  C   UNL     1      34.943 -15.653 -22.508  0.00  0.00    +0.108 C 
ATOM     29  C   UNL     1      35.305 -16.954 -22.153  0.00  0.00    +0.011 C 
ATOM     30  C   UNL     1      34.780 -15.298 -23.855  0.00  0.00    +0.062 C 
ATOM     31  C   UNL     1      35.347 -17.562 -24.494  0.00  0.00    -0.001 C 
ATOM     32  C   UNL     1      34.984 -16.261 -24.846  0.00  0.00    +0.015 C 
ATOM     33  C   UNL     1      34.719 -14.606 -21.473  0.00  0.00    +0.207 C 
ATOM     34  C   UNL     1      34.229 -13.084 -23.147  0.00  0.00    +0.174 C 
ATOM     35  C   UNL     1      33.838 -11.683 -23.551  0.00  0.00    +0.085 C 
ATOM     36  H   UNL     1      34.298 -13.712 -25.106  0.00  0.00    +0.154 HD
ENDBRANCH  23  27
ENDBRANCH  21  23
ENDBRANCH   2  21
TORSDOF 11
ENDMDL
MODEL 4
REMARK VINA RESULT:     -10.9      1.146      1.694
REMARK  Name = 104758
REMARK  11 active torsions:
REMARK  status: ('A' for Active; 'I' for Inactive)
REMARK    1  A    between atoms: C_2  and  N_21
REMARK    2  A    between atoms: C_3  and  C_8
REMARK    3  A    between atoms: N_7  and  CA_10
REMARK    4  A    between atoms: CA_10  and  C_12
REMARK    5  A    between atoms: CA_10  and  CB_15
REMARK    6  A    between atoms: C_12  and  O_13
REMARK    7  A    between atoms: CB_15  and  CG_16
REMARK    8  A    between atoms: CG_16  and  CD_18
REMARK    9  A    between atoms: CD_18  and  OE1_19
REMARK   10  A    between atoms: N_21  and  C_23
REMARK   11  A    between atoms: C_23  and  C_27
REMARK                            x       y       z     vdW  Elec       q    Type
REMARK                         _______ _______ _______ _____ _____    ______ ____
ROOT
ATOM      1  S   UNL     1      35.344 -21.215 -19.585  0.00  0.00    -0.068 S 
ATOM      2  C   UNL     1      34.950 -19.965 -20.688  0.00  0.00    +0.079 C 
ATOM      3  C   UNL     1      33.692 -21.508 -19.244  0.00  0.00    +0.084 C 
ATOM      4  C   UNL     1      33.589 -19.778 -20.791  0.00  0.00    +0.022 C 
ATOM      5  C   UNL     1      32.861 -20.672 -19.955  0.00  0.00    +0.013 C 
ENDROOT
BRANCH   3   8
ATOM      6  O   UNL     1      33.776 -23.709 -18.369  0.00  0.00    -0.270 OA
ATOM      7  N   UNL     1      32.445 -22.187 -17.279  0.00  0.00    -0.293 N 
ATOM      8  C   ACE A   0      33.348 -22.530 -18.309  0.00  0.00    +0.252 C 
ATOM      9  H   UNL     1      32.115 -21.260 -17.241  0.00  0.00    +0.150 HD
BRANCH   7  10
ATOM     10  CA  UNL     1      31.979 -23.119 -16.278  0.00  0.00    +0.172 C 
BRANCH  10  12
ATOM     11  OXT UNL     1      29.791 -22.236 -16.879  0.00  0.00    -0.248 OA
ATOM     12  C   UNL     1      30.470 -23.001 -16.208  0.00  0.00    +0.332 C 
BRANCH  12  13
ATOM     13  O   UNL     1      29.933 -23.884 -15.326  0.00  0.00    -0.479 OA
ATOM     14  H   UNL     1      29.002 -23.972 -15.258  0.00  0.00    +0.295 HD
ENDBRANCH  12  13
ENDBRANCH  10  12
BRANCH  10  15
ATOM     15  CB  UNL     1      32.677 -22.933 -14.925  0.00  0.00    +0.043 C 
BRANCH  15  16
ATOM     16  CG  UNL     1      33.750 -23.973 -14.577  0.00  0.00    +0.112 C 
BRANCH  16  18
ATOM     17  OE2 UNL     1      35.946 -24.538 -15.469  0.00  0.00    -0.250 OA
ATOM     18  CD  UNL     1      35.095 -23.697 -15.212  0.00  0.00    +0.314 C 
BRANCH  18  19
ATOM     19  OE1 UNL     1      35.279 -22.369 -15.438  0.00  0.00    -0.480 OA
ATOM     20  HE1 UNL     1      34.625 -21.877 -15.895  0.00  0.00    +0.295 HD
ENDBRANCH  18  19
ENDBRANCH  16  18
ENDBRANCH  15  16
ENDBRANCH  10  15
ENDBRANCH   7  10
ENDBRANCH   3   8
BRANCH   2  21
ATOM     21  N   UNL     1      35.935 -19.260 -21.367  0.00  0.00    -0.297 N 
ATOM     22  C   UNL     1      37.258 -19.061 -20.774  0.00  0.00    +0.113 C 
BRANCH  21  23
ATOM     23  C   UNL     1      35.710 -18.699 -22.682  0.00  0.00    +0.118 C 
BRANCH  23  27
ATOM     24  O   UNL     1      33.836 -15.101 -25.860  0.00  0.00    -0.209 OA
ATOM     25  N   UNL     1      34.252 -13.212 -22.348  0.00  0.00    -0.290 N 
ATOM     26  N   UNL     1      33.619 -13.169 -24.646  0.00  0.00    -0.322 NA
ATOM     27  C   UNL     1      35.329 -17.260 -22.590  0.00  0.00    -0.002 C 
ATOM     28  C   UNL     1      34.484 -15.247 -23.617  0.00  0.00    +0.108 C 
ATOM     29  C   UNL     1      34.838 -16.595 -23.714  0.00  0.00    +0.011 C 
ATOM     30  C   UNL     1      34.618 -14.559 -22.403  0.00  0.00    +0.062 C 
ATOM     31  C   UNL     1      35.465 -16.580 -21.378  0.00  0.00    -0.001 C 
ATOM     32  C   UNL     1      35.110 -15.233 -21.283  0.00  0.00    +0.015 C 
ATOM     33  C   UNL     1      33.955 -14.503 -24.794  0.00  0.00    +0.207 C 
ATOM     34  C   UNL     1      33.775 -12.603 -23.485  0.00  0.00    +0.174 C 
ATOM     35  C   UNL     1      33.398 -11.146 -23.360  0.00  0.00    +0.085 C 
ATOM     36  H   UNL     1      34.335 -12.706 -21.508  0.00  0.00    +0.154 HD
ENDBRANCH  23  27
ENDBRANCH  21  23
ENDBRANCH   2  21
TORSDOF 11
ENDMDL
MODEL 5
REMARK VINA RESULT:     -10.7      3.745     11.050
REMARK  Name = 104758
REMARK  11 active torsions:
REMARK  status: ('A' for Active; 'I' for Inactive)
REMARK    1  A    between atoms: C_2  and  N_21
REMARK    2  A    between atoms: C_3  and  C_8
REMARK    3  A    between atoms: N_7  and  CA_10
REMARK    4  A    between atoms: CA_10  and  C_12
REMARK    5  A    between atoms: CA_10  and  CB_15
REMARK    6  A    between atoms: C_12  and  O_13
REMARK    7  A    between atoms: CB_15  and  CG_16
REMARK    8  A    between atoms: CG_16  and  CD_18
REMARK    9  A    between atoms: CD_18  and  OE1_19
REMARK   10  A    between atoms: N_21  and  C_23
REMARK   11  A    between atoms: C_23  and  C_27
REMARK                            x       y       z     vdW  Elec       q    Type
REMARK                         _______ _______ _______ _____ _____    ______ ____
ROOT
ATOM      1  S   UNL     1      34.718 -15.162 -24.378  0.00  0.00    -0.068 S 
ATOM      2  C   UNL     1      35.059 -16.102 -22.988  0.00  0.00    +0.079 C 
ATOM      3  C   UNL     1      34.427 -13.767 -23.429  0.00  0.00    +0.084 C 
ATOM      4  C   UNL     1      34.952 -15.367 -21.828  0.00  0.00    +0.022 C 
ATOM      5  C   UNL     1      34.587 -14.014 -22.084  0.00  0.00    +0.013 C 
ENDROOT
BRANCH   3   8
ATOM      6  O   UNL     1      33.852 -12.448 -25.312  0.00  0.00    -0.270 OA
ATOM      7  N   UNL     1      33.979 -11.389 -23.278  0.00  0.00    -0.293 N 
ATOM      8  C   ACE A   0      34.066 -12.548 -24.079  0.00  0.00    +0.252 C 
ATOM      9  H   UNL     1      34.149 -11.478 -22.313  0.00  0.00    +0.150 HD
BRANCH   7  10
ATOM     10  CA  UNL     1      33.655 -10.079 -23.796  0.00  0.00    +0.172 C 
BRANCH  10  12
ATOM     11  OXT UNL     1      35.302  -8.301 -23.558  0.00  0.00    -0.248 OA
ATOM     12  C   UNL     1      34.959  -9.359 -24.070  0.00  0.00    +0.332 C 
BRANCH  12  13
ATOM     13  O   UNL     1      35.746 -10.048 -24.937  0.00  0.00    -0.479 OA
ATOM     14  H   UNL     1      36.582 -10.367 -24.660  0.00  0.00    +0.295 HD
ENDBRANCH  12  13
ENDBRANCH  10  12
BRANCH  10  15
ATOM     15  CB  UNL     1      32.700  -9.302 -22.882  0.00  0.00    +0.043 C 
BRANCH  15  16
ATOM     16  CG  UNL     1      31.789 -10.153 -21.987  0.00  0.00    +0.112 C 
BRANCH  16  18
ATOM     17  OE2 UNL     1      31.838 -10.631 -19.599  0.00  0.00    -0.250 OA
ATOM     18  CD  UNL     1      31.902  -9.824 -20.515  0.00  0.00    +0.314 C 
BRANCH  18  19
ATOM     19  OE1 UNL     1      32.048  -8.488 -20.310  0.00  0.00    -0.480 OA
ATOM     20  HE1 UNL     1      32.684  -8.174 -19.697  0.00  0.00    +0.295 HD
ENDBRANCH  18  19
ENDBRANCH  16  18
ENDBRANCH  15  16
ENDBRANCH  10  15
ENDBRANCH   7  10
ENDBRANCH   3   8
BRANCH   2  21
ATOM     21  N   UNL     1      35.397 -17.446 -23.086  0.00  0.00    -0.297 N 
ATOM     22  C   UNL     1      34.573 -18.371 -23.866  0.00  0.00    +0.113 C 
BRANCH  21  23
ATOM     23  C   UNL     1      36.569 -17.992 -22.438  0.00  0.00    +0.118 C 
BRANCH  23  27
ATOM     24  O   UNL     1      32.210 -20.136 -20.718  0.00  0.00    -0.209 OA
ATOM     25  N   UNL     1      35.096 -21.847 -18.524  0.00  0.00    -0.290 N 
ATOM     26  N   UNL     1      32.786 -21.617 -19.067  0.00  0.00    -0.322 NA
ATOM     27  C   UNL     1      36.187 -19.003 -21.409  0.00  0.00    -0.002 C 
ATOM     28  C   UNL     1      34.498 -20.287 -20.261  0.00  0.00    +0.108 C 
ATOM     29  C   UNL     1      34.845 -19.338 -21.226  0.00  0.00    +0.011 C 
ATOM     30  C   UNL     1      35.485 -20.904 -19.478  0.00  0.00    +0.062 C 
ATOM     31  C   UNL     1      37.174 -19.613 -20.634  0.00  0.00    -0.001 C 
ATOM     32  C   UNL     1      36.825 -20.561 -19.670  0.00  0.00    +0.015 C 
ATOM     33  C   UNL     1      33.077 -20.672 -20.035  0.00  0.00    +0.207 C 
ATOM     34  C   UNL     1      33.761 -22.141 -18.381  0.00  0.00    +0.174 C 
ATOM     35  C   UNL     1      33.406 -23.168 -17.333  0.00  0.00    +0.085 C 
ATOM     36  H   UNL     1      35.769 -22.295 -17.963  0.00  0.00    +0.154 HD
ENDBRANCH  23  27
ENDBRANCH  21  23
ENDBRANCH   2  21
TORSDOF 11
ENDMDL
MODEL 6
REMARK VINA RESULT:     -10.6      3.377     11.119
REMARK  Name = 104758
REMARK  11 active torsions:
REMARK  status: ('A' for Active; 'I' for Inactive)
REMARK    1  A    between atoms: C_2  and  N_21
REMARK    2  A    between atoms: C_3  and  C_8
REMARK    3  A    between atoms: N_7  and  CA_10
REMARK    4  A    between atoms: CA_10  and  C_12
REMARK    5  A    between atoms: CA_10  and  CB_15
REMARK    6  A    between atoms: C_12  and  O_13
REMARK    7  A    between atoms: CB_15  and  CG_16
REMARK    8  A    between atoms: CG_16  and  CD_18
REMARK    9  A    between atoms: CD_18  and  OE1_19
REMARK   10  A    between atoms: N_21  and  C_23
REMARK   11  A    between atoms: C_23  and  C_27
REMARK                            x       y       z     vdW  Elec       q    Type
REMARK                         _______ _______ _______ _____ _____    ______ ____
ROOT
ATOM      1  S   UNL     1      35.210 -16.182 -21.960  0.00  0.00    -0.068 S 
ATOM      2  C   UNL     1      35.178 -17.297 -23.258  0.00  0.00    +0.079 C 
ATOM      3  C   UNL     1      34.674 -14.908 -22.970  0.00  0.00    +0.084 C 
ATOM      4  C   UNL     1      34.768 -16.709 -24.435  0.00  0.00    +0.022 C 
ATOM      5  C   UNL     1      34.476 -15.325 -24.267  0.00  0.00    +0.013 C 
ENDROOT
BRANCH   3   8
ATOM      6  O   UNL     1      34.932 -13.261 -21.286  0.00  0.00    -0.270 OA
ATOM      7  N   UNL     1      33.747 -12.676 -23.165  0.00  0.00    -0.293 N 
ATOM      8  C   ACE A   0      34.493 -13.607 -22.410  0.00  0.00    +0.252 C 
ATOM      9  H   UNL     1      33.408 -12.958 -24.045  0.00  0.00    +0.150 HD
BRANCH   7  10
ATOM     10  CA  UNL     1      33.455 -11.333 -22.719  0.00  0.00    +0.172 C 
BRANCH  10  12
ATOM     11  OXT UNL     1      31.373 -10.411 -21.856  0.00  0.00    -0.248 OA
ATOM     12  C   UNL     1      32.121 -11.368 -22.002  0.00  0.00    +0.332 C 
BRANCH  12  13
ATOM     13  O   UNL     1      31.816 -12.617 -21.560  0.00  0.00    -0.479 OA
ATOM     14  H   UNL     1      32.319 -13.352 -21.849  0.00  0.00    +0.295 HD
ENDBRANCH  12  13
ENDBRANCH  10  12
BRANCH  10  15
ATOM     15  CB  UNL     1      33.519 -10.305 -23.855  0.00  0.00    +0.043 C 
BRANCH  15  16
ATOM     16  CG  UNL     1      34.429 -10.668 -25.035  0.00  0.00    +0.112 C 
BRANCH  16  18
ATOM     17  OE2 UNL     1      36.411  -9.725 -26.094  0.00  0.00    -0.250 OA
ATOM     18  CD  UNL     1      35.688  -9.832 -25.113  0.00  0.00    +0.314 C 
BRANCH  18  19
ATOM     19  OE1 UNL     1      35.960  -9.225 -23.928  0.00  0.00    -0.480 OA
ATOM     20  HE1 UNL     1      35.692  -8.338 -23.783  0.00  0.00    +0.295 HD
ENDBRANCH  18  19
ENDBRANCH  16  18
ENDBRANCH  15  16
ENDBRANCH  10  15
ENDBRANCH   7  10
ENDBRANCH   3   8
BRANCH   2  21
ATOM     21  N   UNL     1      35.536 -18.627 -23.081  0.00  0.00    -0.297 N 
ATOM     22  C   UNL     1      35.240 -19.627 -24.109  0.00  0.00    +0.113 C 
BRANCH  21  23
ATOM     23  C   UNL     1      36.218 -19.087 -21.891  0.00  0.00    +0.118 C 
BRANCH  23  27
ATOM     24  O   UNL     1      36.600 -22.251 -17.841  0.00  0.00    -0.209 OA
ATOM     25  N   UNL     1      32.654 -21.843 -18.420  0.00  0.00    -0.290 N 
ATOM     26  N   UNL     1      34.467 -22.784 -17.191  0.00  0.00    -0.322 NA
ATOM     27  C   UNL     1      35.279 -19.809 -20.983  0.00  0.00    -0.002 C 
ATOM     28  C   UNL     1      34.893 -21.279 -19.110  0.00  0.00    +0.108 C 
ATOM     29  C   UNL     1      35.780 -20.608 -19.955  0.00  0.00    +0.011 C 
ATOM     30  C   UNL     1      33.507 -21.156 -19.286  0.00  0.00    +0.062 C 
ATOM     31  C   UNL     1      33.901 -19.682 -21.164  0.00  0.00    -0.001 C 
ATOM     32  C   UNL     1      33.016 -20.353 -20.319  0.00  0.00    +0.015 C 
ATOM     33  C   UNL     1      35.388 -22.141 -18.000  0.00  0.00    +0.207 C 
ATOM     34  C   UNL     1      33.197 -22.618 -17.423  0.00  0.00    +0.174 C 
ATOM     35  C   UNL     1      32.222 -23.336 -16.521  0.00  0.00    +0.085 C 
ATOM     36  H   UNL     1      31.677 -21.772 -18.521  0.00  0.00    +0.154 HD
ENDBRANCH  23  27
ENDBRANCH  21  23
ENDBRANCH   2  21
TORSDOF 11
ENDMDL
MODEL 7
REMARK VINA RESULT:     -10.4      5.996      8.621
REMARK  Name = 104758
REMARK  11 active torsions:
REMARK  status: ('A' for Active; 'I' for Inactive)
REMARK    1  A    between atoms: C_2  and  N_21
REMARK    2  A    between atoms: C_3  and  C_8
REMARK    3  A    between atoms: N_7  and  CA_10
REMARK    4  A    between atoms: CA_10  and  C_12
REMARK    5  A    between atoms: CA_10  and  CB_15
REMARK    6  A    between atoms: C_12  and  O_13
REMARK    7  A    between atoms: CB_15  and  CG_16
REMARK    8  A    between atoms: CG_16  and  CD_18
REMARK    9  A    between atoms: CD_18  and  OE1_19
REMARK   10  A    between atoms: N_21  and  C_23
REMARK   11  A    between atoms: C_23  and  C_27
REMARK                            x       y       z     vdW  Elec       q    Type
REMARK                         _______ _______ _______ _____ _____    ______ ____
ROOT
ATOM      1  S   UNL     1      35.357 -25.096 -15.202  0.00  0.00    -0.068 S 
ATOM      2  C   UNL     1      34.660 -23.559 -14.915  0.00  0.00    +0.079 C 
ATOM      3  C   UNL     1      36.685 -24.744 -14.181  0.00  0.00    +0.084 C 
ATOM      4  C   UNL     1      35.425 -22.796 -14.061  0.00  0.00    +0.022 C 
ATOM      5  C   UNL     1      36.598 -23.483 -13.635  0.00  0.00    +0.013 C 
ENDROOT
BRANCH   3   8
ATOM      6  O   UNL     1      37.810 -26.444 -12.974  0.00  0.00    -0.270 OA
ATOM      7  N   UNL     1      38.654 -25.874 -15.032  0.00  0.00    -0.293 N 
ATOM      8  C   ACE A   0      37.702 -25.729 -14.000  0.00  0.00    +0.252 C 
ATOM      9  H   UNL     1      38.561 -25.308 -15.832  0.00  0.00    +0.150 HD
BRANCH   7  10
ATOM     10  CA  UNL     1      39.758 -26.805 -14.980  0.00  0.00    +0.172 C 
BRANCH  10  12
ATOM     11  OXT UNL     1      41.159 -24.920 -14.340  0.00  0.00    -0.248 OA
ATOM     12  C   UNL     1      40.907 -26.115 -14.274  0.00  0.00    +0.332 C 
BRANCH  12  13
ATOM     13  O   UNL     1      41.625 -26.980 -13.511  0.00  0.00    -0.479 OA
ATOM     14  H   UNL     1      41.716 -27.875 -13.774  0.00  0.00    +0.295 HD
ENDBRANCH  12  13
ENDBRANCH  10  12
BRANCH  10  15
ATOM     15  CB  UNL     1      40.126 -27.364 -16.360  0.00  0.00    +0.043 C 
BRANCH  15  16
ATOM     16  CG  UNL     1      40.496 -28.852 -16.403  0.00  0.00    +0.112 C 
BRANCH  16  18
ATOM     17  OE2 UNL     1      42.817 -29.091 -17.105  0.00  0.00    -0.250 OA
ATOM     18  CD  UNL     1      41.974 -29.119 -16.219  0.00  0.00    +0.314 C 
BRANCH  18  19
ATOM     19  OE1 UNL     1      42.268 -29.441 -14.932  0.00  0.00    -0.480 OA
ATOM     20  HE1 UNL     1      42.460 -30.330 -14.703  0.00  0.00    +0.295 HD
ENDBRANCH  18  19
ENDBRANCH  16  18
ENDBRANCH  15  16
ENDBRANCH  10  15
ENDBRANCH   7  10
ENDBRANCH   3   8
BRANCH   2  21
ATOM     21  N   UNL     1      33.460 -23.185 -15.507  0.00  0.00    -0.297 N 
ATOM     22  C   UNL     1      32.414 -22.523 -14.726  0.00  0.00    +0.113 C 
BRANCH  21  23
ATOM     23  C   UNL     1      33.189 -23.419 -16.908  0.00  0.00    +0.118 C 
BRANCH  23  27
ATOM     24  O   UNL     1      32.356 -20.201 -20.846  0.00  0.00    -0.209 OA
ATOM     25  N   UNL     1      36.306 -19.985 -20.199  0.00  0.00    -0.290 N 
ATOM     26  N   UNL     1      34.382 -19.303 -21.430  0.00  0.00    -0.322 NA
ATOM     27  C   UNL     1      34.010 -22.520 -17.770  0.00  0.00    -0.002 C 
ATOM     28  C   UNL     1      34.180 -20.934 -19.579  0.00  0.00    +0.108 C 
ATOM     29  C   UNL     1      33.401 -21.773 -18.778  0.00  0.00    +0.011 C 
ATOM     30  C   UNL     1      35.564 -20.836 -19.377  0.00  0.00    +0.062 C 
ATOM     31  C   UNL     1      35.388 -22.428 -17.563  0.00  0.00    -0.001 C 
ATOM     32  C   UNL     1      36.164 -21.588 -18.365  0.00  0.00    +0.015 C 
ATOM     33  C   UNL     1      33.567 -20.119 -20.665  0.00  0.00    +0.207 C 
ATOM     34  C   UNL     1      35.659 -19.271 -21.180  0.00  0.00    +0.174 C 
ATOM     35  C   UNL     1      36.517 -18.370 -22.035  0.00  0.00    +0.085 C 
ATOM     36  H   UNL     1      37.279 -19.897 -20.078  0.00  0.00    +0.154 HD
ENDBRANCH  23  27
ENDBRANCH  21  23
ENDBRANCH   2  21
TORSDOF 11
ENDMDL
MODEL 8
REMARK VINA RESULT:     -10.4      5.495     11.651
REMARK  Name = 104758
REMARK  11 active torsions:
REMARK  status: ('A' for Active; 'I' for Inactive)
REMARK    1  A    between atoms: C_2  and  N_21
REMARK    2  A    between atoms: C_3  and  C_8
REMARK    3  A    between atoms: N_7  and  CA_10
REMARK    4  A    between atoms: CA_10  and  C_12
REMARK    5  A    between atoms: CA_10  and  CB_15
REMARK    6  A    between atoms: C_12  and  O_13
REMARK    7  A    between atoms: CB_15  and  CG_16
REMARK    8  A    between atoms: CG_16  and  CD_18
REMARK    9  A    between atoms: CD_18  and  OE1_19
REMARK   10  A    between atoms: N_21  and  C_23
REMARK   11  A    between atoms: C_23  and  C_27
REMARK                            x       y       z     vdW  Elec       q    Type
REMARK                         _______ _______ _______ _____ _____    ______ ____
ROOT
ATOM      1  S   UNL     1      36.032 -22.033 -16.894  0.00  0.00    -0.068 S 
ATOM      2  C   UNL     1      34.698 -22.785 -16.128  0.00  0.00    +0.079 C 
ATOM      3  C   UNL     1      35.168 -21.875 -18.364  0.00  0.00    +0.084 C 
ATOM      4  C   UNL     1      33.620 -22.912 -16.976  0.00  0.00    +0.022 C 
ATOM      5  C   UNL     1      33.892 -22.384 -18.271  0.00  0.00    +0.013 C 
ENDROOT
BRANCH   3   8
ATOM      6  O   UNL     1      36.977 -21.542 -19.858  0.00  0.00    -0.270 OA
ATOM      7  N   UNL     1      35.088 -20.277 -20.186  0.00  0.00    -0.293 N 
ATOM      8  C   ACE A   0      35.810 -21.268 -19.485  0.00  0.00    +0.252 C 
ATOM      9  H   UNL     1      34.174 -20.069 -19.885  0.00  0.00    +0.150 HD
BRANCH   7  10
ATOM     10  CA  UNL     1      35.615 -19.553 -21.320  0.00  0.00    +0.172 C 
BRANCH  10  12
ATOM     11  OXT UNL     1      35.772 -17.184 -20.781  0.00  0.00    -0.248 OA
ATOM     12  C   UNL     1      36.279 -18.297 -20.794  0.00  0.00    +0.332 C 
BRANCH  12  13
ATOM     13  O   UNL     1      37.515 -18.551 -20.289  0.00  0.00    -0.479 OA
ATOM     14  H   UNL     1      38.278 -18.344 -20.791  0.00  0.00    +0.295 HD
ENDBRANCH  12  13
ENDBRANCH  10  12
BRANCH  10  15
ATOM     15  CB  UNL     1      34.556 -19.288 -22.396  0.00  0.00    +0.043 C 
BRANCH  15  16
ATOM     16  CG  UNL     1      35.087 -19.077 -23.820  0.00  0.00    +0.112 C 
BRANCH  16  18
ATOM     17  OE2 UNL     1      33.998 -17.322 -25.113  0.00  0.00    -0.250 OA
ATOM     18  CD  UNL     1      34.883 -17.673 -24.346  0.00  0.00    +0.314 C 
BRANCH  18  19
ATOM     19  OE1 UNL     1      35.842 -16.825 -23.890  0.00  0.00    -0.480 OA
ATOM     20  HE1 UNL     1      35.606 -16.097 -23.348  0.00  0.00    +0.295 HD
ENDBRANCH  18  19
ENDBRANCH  16  18
ENDBRANCH  15  16
ENDBRANCH  10  15
ENDBRANCH   7  10
ENDBRANCH   3   8
BRANCH   2  21
ATOM     21  N   UNL     1      34.760 -23.197 -14.803  0.00  0.00    -0.297 N 
ATOM     22  C   UNL     1      33.555 -23.642 -14.100  0.00  0.00    +0.113 C 
BRANCH  21  23
ATOM     23  C   UNL     1      36.001 -23.214 -14.061  0.00  0.00    +0.118 C 
BRANCH  23  27
ATOM     24  O   UNL     1      41.018 -24.387 -14.157  0.00  0.00    -0.209 OA
ATOM     25  N   UNL     1      39.196 -27.691 -15.509  0.00  0.00    -0.290 N 
ATOM     26  N   UNL     1      41.200 -26.532 -14.943  0.00  0.00    -0.322 NA
ATOM     27  C   UNL     1      36.835 -24.391 -14.443  0.00  0.00    -0.002 C 
ATOM     28  C   UNL     1      38.996 -25.436 -14.685  0.00  0.00    +0.108 C 
ATOM     29  C   UNL     1      38.224 -24.328 -14.325  0.00  0.00    +0.011 C 
ATOM     30  C   UNL     1      38.388 -26.606 -15.161  0.00  0.00    +0.062 C 
ATOM     31  C   UNL     1      36.223 -25.553 -14.916  0.00  0.00    -0.001 C 
ATOM     32  C   UNL     1      36.997 -26.658 -15.275  0.00  0.00    +0.015 C 
ATOM     33  C   UNL     1      40.481 -25.408 -14.573  0.00  0.00    +0.207 C 
ATOM     34  C   UNL     1      40.559 -27.578 -15.377  0.00  0.00    +0.174 C 
ATOM     35  C   UNL     1      41.376 -28.785 -15.771  0.00  0.00    +0.085 C 
ATOM     36  H   UNL     1      38.794 -28.524 -15.845  0.00  0.00    +0.154 HD
ENDBRANCH  23  27
ENDBRANCH  21  23
ENDBRANCH   2  21
TORSDOF 11
ENDMDL
MODEL 9
REMARK VINA RESULT:     -10.3      3.476      4.500
REMARK  Name = 104758
REMARK  11 active torsions:
REMARK  status: ('A' for Active; 'I' for Inactive)
REMARK    1  A    between atoms: C_2  and  N_21
REMARK    2  A    between atoms: C_3  and  C_8
REMARK    3  A    between atoms: N_7  and  CA_10
REMARK    4  A    between atoms: CA_10  and  C_12
REMARK    5  A    between atoms: CA_10  and  CB_15
REMARK    6  A    between atoms: C_12  and  O_13
REMARK    7  A    between atoms: CB_15  and  CG_16
REMARK    8  A    between atoms: CG_16  and  CD_18
REMARK    9  A    between atoms: CD_18  and  OE1_19
REMARK   10  A    between atoms: N_21  and  C_23
REMARK   11  A    between atoms: C_23  and  C_27
REMARK                            x       y       z     vdW  Elec       q    Type
REMARK                         _______ _______ _______ _____ _____    ______ ____
ROOT
ATOM      1  S   UNL     1      36.830 -21.005 -18.365  0.00  0.00    -0.068 S 
ATOM      2  C   UNL     1      35.340 -20.995 -19.210  0.00  0.00    +0.079 C 
ATOM      3  C   UNL     1      36.231 -22.120 -17.213  0.00  0.00    +0.084 C 
ATOM      4  C   UNL     1      34.409 -21.824 -18.625  0.00  0.00    +0.022 C 
ATOM      5  C   UNL     1      34.925 -22.476 -17.468  0.00  0.00    +0.013 C 
ENDROOT
BRANCH   3   8
ATOM      6  O   UNL     1      38.252 -22.124 -15.978  0.00  0.00    -0.270 OA
ATOM      7  N   UNL     1      36.588 -23.548 -15.286  0.00  0.00    -0.293 N 
ATOM      8  C   ACE A   0      37.086 -22.553 -16.156  0.00  0.00    +0.252 C 
ATOM      9  H   UNL     1      35.673 -23.878 -15.435  0.00  0.00    +0.150 HD
BRANCH   7  10
ATOM     10  CA  UNL     1      37.346 -24.108 -14.191  0.00  0.00    +0.172 C 
BRANCH  10  12
ATOM     11  OXT UNL     1      37.557 -26.401 -13.400  0.00  0.00    -0.248 OA
ATOM     12  C   UNL     1      36.955 -25.565 -14.060  0.00  0.00    +0.332 C 
BRANCH  12  13
ATOM     13  O   UNL     1      35.813 -25.846 -14.741  0.00  0.00    -0.479 OA
ATOM     14  H   UNL     1      35.361 -26.653 -14.587  0.00  0.00    +0.295 HD
ENDBRANCH  12  13
ENDBRANCH  10  12
BRANCH  10  15
ATOM     15  CB  UNL     1      37.189 -23.307 -12.893  0.00  0.00    +0.043 C 
BRANCH  15  16
ATOM     16  CG  UNL     1      35.973 -23.664 -12.029  0.00  0.00    +0.112 C 
BRANCH  16  18
ATOM     17  OE2 UNL     1      35.499 -24.991 -10.041  0.00  0.00    -0.250 OA
ATOM     18  CD  UNL     1      36.309 -24.517 -10.826  0.00  0.00    +0.314 C 
BRANCH  18  19
ATOM     19  OE1 UNL     1      37.651 -24.673 -10.682  0.00  0.00    -0.480 OA
ATOM     20  HE1 UNL     1      38.126 -24.124 -10.089  0.00  0.00    +0.295 HD
ENDBRANCH  18  19
ENDBRANCH  16  18
ENDBRANCH  15  16
ENDBRANCH  10  15
ENDBRANCH   7  10
ENDBRANCH   3   8
BRANCH   2  21
ATOM     21  N   UNL     1      35.156 -20.219 -20.347  0.00  0.00    -0.297 N 
ATOM     22  C   UNL     1      33.820 -20.025 -20.914  0.00  0.00    +0.113 C 
BRANCH  21  23
ATOM     23  C   UNL     1      36.258 -19.564 -21.018  0.00  0.00    +0.118 C 
BRANCH  23  27
ATOM     24  O   UNL     1      34.970 -14.576 -21.145  0.00  0.00    -0.209 OA
ATOM     25  N   UNL     1      34.373 -15.857 -24.897  0.00  0.00    -0.290 N 
ATOM     26  N   UNL     1      34.323 -14.096 -23.291  0.00  0.00    -0.322 NA
ATOM     27  C   UNL     1      35.763 -18.596 -22.038  0.00  0.00    -0.002 C 
ATOM     28  C   UNL     1      35.054 -16.370 -22.643  0.00  0.00    +0.108 C 
ATOM     29  C   UNL     1      35.517 -17.270 -21.679  0.00  0.00    +0.011 C 
ATOM     30  C   UNL     1      34.836 -16.788 -23.963  0.00  0.00    +0.062 C 
ATOM     31  C   UNL     1      35.548 -19.018 -23.351  0.00  0.00    -0.001 C 
ATOM     32  C   UNL     1      35.086 -18.117 -24.312  0.00  0.00    +0.015 C 
ATOM     33  C   UNL     1      34.780 -14.947 -22.299  0.00  0.00    +0.207 C 
ATOM     34  C   UNL     1      34.145 -14.563 -24.492  0.00  0.00    +0.174 C 
ATOM     35  C   UNL     1      33.644 -13.606 -25.547  0.00  0.00    +0.085 C 
ATOM     36  H   UNL     1      34.213 -16.124 -25.830  0.00  0.00    +0.154 HD
ENDBRANCH  23  27
ENDBRANCH  21  23
ENDBRANCH   2  21
TORSDOF 11
ENDMDL
