MODEL 1
REMARK VINA RESULT:     -11.6      0.000      0.000
REMARK  Name = 24812758
REMARK  9 active torsions:
REMARK  status: ('A' for Active; 'I' for Inactive)
REMARK    1  A    between atoms: C_1  and  C_11
REMARK    2  A    between atoms: C_4  and  C_23
REMARK    3  A    between atoms: C_9  and  O_14
REMARK    4  A    between atoms: C_10  and  O_16
REMARK    5  A    between atoms: C_12  and  O_18
REMARK    6  A    between atoms: C_13  and  C_20
REMARK    7  A    between atoms: C_20  and  O_21
REMARK    8  A    between atoms: C_23  and  C_25
REMARK    9  A    between atoms: C_27  and  C_30
REMARK                            x       y       z     vdW  Elec       q    Type
REMARK                         _______ _______ _______ _____ _____    ______ ____
ROOT
ATOM      1  C   UNL     1      33.995 -23.913 -14.066  0.00  0.00    +0.007 C 
ATOM      2  C   UNL     1      33.786 -23.690 -15.427  0.00  0.00    -0.006 C 
ATOM      3  C   UNL     1      32.968 -23.671 -13.153  0.00  0.00    -0.002 C 
ATOM      4  C   UNL     1      32.550 -23.225 -15.876  0.00  0.00    -0.021 C 
ATOM      5  C   UNL     1      31.523 -22.983 -14.963  0.00  0.00    -0.025 C 
ATOM      6  C   UNL     1      31.733 -23.206 -13.602  0.00  0.00    -0.005 C 
ATOM      7  C   UNL     1      30.191 -22.484 -15.419  0.00  0.00    +0.031 C 
ENDROOT
BRANCH   1  11
ATOM      8  O   UNL     1      35.895 -23.418 -12.721  0.00  0.00    -0.347 OA
ATOM      9  C   UNL     1      36.292 -24.732 -14.742  0.00  0.00    +0.171 C 
ATOM     10  C   UNL     1      37.690 -25.086 -14.227  0.00  0.00    +0.169 C 
ATOM     11  C   UNL     1      35.339 -24.419 -13.579  0.00  0.00    +0.167 C 
ATOM     12  C   UNL     1      38.182 -24.061 -13.206  0.00  0.00    +0.169 C 
ATOM     13  C   UNL     1      37.127 -23.823 -12.124  0.00  0.00    +0.174 C 
BRANCH   9  14
ATOM     14  O   UNL     1      35.772 -25.842 -15.473  0.00  0.00    -0.379 OA
ATOM     15  H   UNL     1      34.860 -26.017 -15.191  0.00  0.00    +0.211 HD
ENDBRANCH   9  14
BRANCH  10  16
ATOM     16  O   UNL     1      38.610 -25.097 -15.319  0.00  0.00    -0.379 OA
ATOM     17  H   UNL     1      39.257 -24.383 -15.206  0.00  0.00    +0.211 HD
ENDBRANCH  10  16
BRANCH  12  18
ATOM     18  O   UNL     1      39.379 -24.538 -12.599  0.00  0.00    -0.379 OA
ATOM     19  H   UNL     1      39.159 -25.016 -11.783  0.00  0.00    +0.211 HD
ENDBRANCH  12  18
BRANCH  13  20
ATOM     20  C   UNL     1      37.550 -22.724 -11.154  0.00  0.00    +0.169 C 
BRANCH  20  21
ATOM     21  O   UNL     1      38.243 -21.724 -11.880  0.00  0.00    -0.379 OA
ATOM     22  H   UNL     1      38.812 -21.222 -11.276  0.00  0.00    +0.211 HD
ENDBRANCH  20  21
ENDBRANCH  13  20
ENDBRANCH   1  11
BRANCH   4  23
ATOM     23  C   UNL     1      32.349 -22.993 -17.337  0.00  0.00    +0.059 C 
BRANCH  23  25
ATOM     24  S   UNL     1      33.241 -21.239 -19.314  0.00  0.00    -0.091 S 
ATOM     25  C   UNL     1      33.524 -22.323 -18.019  0.00  0.00    +0.012 C 
ATOM     26  C   UNL     1      34.866 -22.455 -17.739  0.00  0.00    +0.003 C 
ATOM     27  C   UNL     1      34.916 -20.945 -19.505  0.00  0.00    +0.029 C 
ATOM     28  C   UNL     1      35.673 -21.657 -18.601  0.00  0.00    +0.007 C 
BRANCH  27  30
ATOM     29  F   UNL     1      36.596 -17.426 -23.487  0.00  0.00    -0.204 F 
ATOM     30  C   UNL     1      35.352 -20.033 -20.537  0.00  0.00    +0.006 C 
ATOM     31  C   UNL     1      34.455 -19.613 -21.520  0.00  0.00    +0.003 C 
ATOM     32  C   UNL     1      36.668 -19.573 -20.552  0.00  0.00    +0.003 C 
ATOM     33  C   UNL     1      34.875 -18.733 -22.517  0.00  0.00    +0.030 C 
ATOM     34  C   UNL     1      37.088 -18.693 -21.548  0.00  0.00    +0.030 C 
ATOM     35  C   UNL     1      36.192 -18.272 -22.531  0.00  0.00    +0.140 C 
ENDBRANCH  27  30
ENDBRANCH  23  25
ENDBRANCH   4  23
TORSDOF 9
ENDMDL
MODEL 2
REMARK VINA RESULT:     -11.5      1.033      2.304
REMARK  Name = 24812758
REMARK  9 active torsions:
REMARK  status: ('A' for Active; 'I' for Inactive)
REMARK    1  A    between atoms: C_1  and  C_11
REMARK    2  A    between atoms: C_4  and  C_23
REMARK    3  A    between atoms: C_9  and  O_14
REMARK    4  A    between atoms: C_10  and  O_16
REMARK    5  A    between atoms: C_12  and  O_18
REMARK    6  A    between atoms: C_13  and  C_20
REMARK    7  A    between atoms: C_20  and  O_21
REMARK    8  A    between atoms: C_23  and  C_25
REMARK    9  A    between atoms: C_27  and  C_30
REMARK                            x       y       z     vdW  Elec       q    Type
REMARK                         _______ _______ _______ _____ _____    ______ ____
ROOT
ATOM      1  C   UNL     1      34.761 -23.667 -14.543  0.00  0.00    +0.007 C 
ATOM      2  C   UNL     1      34.393 -23.388 -15.859  0.00  0.00    -0.006 C 
ATOM      3  C   UNL     1      33.801 -23.639 -13.530  0.00  0.00    -0.002 C 
ATOM      4  C   UNL     1      33.067 -23.080 -16.164  0.00  0.00    -0.021 C 
ATOM      5  C   UNL     1      32.108 -23.053 -15.151  0.00  0.00    -0.025 C 
ATOM      6  C   UNL     1      32.476 -23.332 -13.835  0.00  0.00    -0.005 C 
ATOM      7  C   UNL     1      30.682 -22.727 -15.451  0.00  0.00    +0.031 C 
ENDROOT
BRANCH   1  11
ATOM      8  O   UNL     1      36.505 -25.263 -14.816  0.00  0.00    -0.347 OA
ATOM      9  C   UNL     1      36.449 -24.046 -12.697  0.00  0.00    +0.171 C 
ATOM     10  C   UNL     1      37.865 -24.540 -12.386  0.00  0.00    +0.169 C 
ATOM     11  C   UNL     1      36.202 -24.001 -14.213  0.00  0.00    +0.167 C 
ATOM     12  C   UNL     1      38.191 -25.814 -13.163  0.00  0.00    +0.169 C 
ATOM     13  C   UNL     1      37.872 -25.642 -14.649  0.00  0.00    +0.174 C 
BRANCH   9  14
ATOM     14  O   UNL     1      36.291 -22.729 -12.169  0.00  0.00    -0.379 OA
ATOM     15  H   UNL     1      37.151 -22.395 -11.869  0.00  0.00    +0.211 HD
ENDBRANCH   9  14
BRANCH  10  16
ATOM     16  O   UNL     1      37.969 -24.834 -10.992  0.00  0.00    -0.379 OA
ATOM     17  H   UNL     1      37.762 -24.039 -10.477  0.00  0.00    +0.211 HD
ENDBRANCH  10  16
BRANCH  12  18
ATOM     18  O   UNL     1      39.576 -26.116 -13.013  0.00  0.00    -0.379 OA
ATOM     19  H   UNL     1      39.923 -26.467 -13.849  0.00  0.00    +0.211 HD
ENDBRANCH  12  18
BRANCH  13  20
ATOM     20  C   UNL     1      38.086 -26.935 -15.428  0.00  0.00    +0.169 C 
BRANCH  20  21
ATOM     21  O   UNL     1      39.437 -26.988 -15.853  0.00  0.00    -0.379 OA
ATOM     22  H   UNL     1      40.005 -27.208 -15.098  0.00  0.00    +0.211 HD
ENDBRANCH  20  21
ENDBRANCH  13  20
ENDBRANCH   1  11
BRANCH   4  23
ATOM     23  C   UNL     1      32.697 -22.785 -17.580  0.00  0.00    +0.059 C 
BRANCH  23  25
ATOM     24  S   UNL     1      33.328 -21.000 -19.628  0.00  0.00    -0.091 S 
ATOM     25  C   UNL     1      33.775 -22.055 -18.355  0.00  0.00    +0.012 C 
ATOM     26  C   UNL     1      35.140 -22.108 -18.182  0.00  0.00    +0.003 C 
ATOM     27  C   UNL     1      34.964 -20.612 -19.952  0.00  0.00    +0.029 C 
ATOM     28  C   UNL     1      35.829 -21.272 -19.108  0.00  0.00    +0.007 C 
BRANCH  27  30
ATOM     29  F   UNL     1      36.120 -17.037 -24.068  0.00  0.00    -0.204 F 
ATOM     30  C   UNL     1      35.264 -19.686 -21.019  0.00  0.00    +0.006 C 
ATOM     31  C   UNL     1      34.320 -19.443 -22.018  0.00  0.00    +0.003 C 
ATOM     32  C   UNL     1      36.496 -19.033 -21.050  0.00  0.00    +0.003 C 
ATOM     33  C   UNL     1      34.609 -18.549 -23.047  0.00  0.00    +0.030 C 
ATOM     34  C   UNL     1      36.785 -18.138 -22.080  0.00  0.00    +0.030 C 
ATOM     35  C   UNL     1      35.841 -17.896 -23.079  0.00  0.00    +0.140 C 
ENDBRANCH  27  30
ENDBRANCH  23  25
ENDBRANCH   4  23
TORSDOF 9
ENDMDL
MODEL 3
REMARK VINA RESULT:     -11.0      2.889      5.283
REMARK  Name = 24812758
REMARK  9 active torsions:
REMARK  status: ('A' for Active; 'I' for Inactive)
REMARK    1  A    between atoms: C_1  and  C_11
REMARK    2  A    between atoms: C_4  and  C_23
REMARK    3  A    between atoms: C_9  and  O_14
REMARK    4  A    between atoms: C_10  and  O_16
REMARK    5  A    between atoms: C_12  and  O_18
REMARK    6  A    between atoms: C_13  and  C_20
REMARK    7  A    between atoms: C_20  and  O_21
REMARK    8  A    between atoms: C_23  and  C_25
REMARK    9  A    between atoms: C_27  and  C_30
REMARK                            x       y       z     vdW  Elec       q    Type
REMARK                         _______ _______ _______ _____ _____    ______ ____
ROOT
ATOM      1  C   UNL     1      34.166 -22.971 -15.921  0.00  0.00    +0.007 C 
ATOM      2  C   UNL     1      34.673 -22.810 -17.210  0.00  0.00    -0.006 C 
ATOM      3  C   UNL     1      34.865 -22.459 -14.828  0.00  0.00    -0.002 C 
ATOM      4  C   UNL     1      35.879 -22.138 -17.407  0.00  0.00    -0.021 C 
ATOM      5  C   UNL     1      36.578 -21.626 -16.313  0.00  0.00    -0.025 C 
ATOM      6  C   UNL     1      36.071 -21.787 -15.024  0.00  0.00    -0.005 C 
ATOM      7  C   UNL     1      37.871 -20.902 -16.498  0.00  0.00    +0.031 C 
ENDROOT
BRANCH   1  11
ATOM      8  O   UNL     1      31.795 -22.800 -16.042  0.00  0.00    -0.347 OA
ATOM      9  C   UNL     1      32.707 -24.209 -14.265  0.00  0.00    +0.171 C 
ATOM     10  C   UNL     1      31.314 -24.799 -14.031  0.00  0.00    +0.169 C 
ATOM     11  C   UNL     1      32.855 -23.702 -15.708  0.00  0.00    +0.167 C 
ATOM     12  C   UNL     1      30.220 -23.859 -14.533  0.00  0.00    +0.169 C 
ATOM     13  C   UNL     1      30.506 -23.409 -15.967  0.00  0.00    +0.174 C 
BRANCH   9  14
ATOM     14  O   UNL     1      33.686 -25.222 -14.034  0.00  0.00    -0.379 OA
ATOM     15  H   UNL     1      34.006 -25.562 -14.885  0.00  0.00    +0.211 HD
ENDBRANCH   9  14
BRANCH  10  16
ATOM     16  O   UNL     1      31.113 -25.002 -12.631  0.00  0.00    -0.379 OA
ATOM     17  H   UNL     1      30.169 -24.928 -12.425  0.00  0.00    +0.211 HD
ENDBRANCH  10  16
BRANCH  12  18
ATOM     18  O   UNL     1      28.965 -24.533 -14.494  0.00  0.00    -0.379 OA
ATOM     19  H   UNL     1      29.105 -25.485 -14.617  0.00  0.00    +0.211 HD
ENDBRANCH  12  18
BRANCH  13  20
ATOM     20  C   UNL     1      29.486 -22.384 -16.453  0.00  0.00    +0.169 C 
BRANCH  20  21
ATOM     21  O   UNL     1      28.718 -21.952 -15.344  0.00  0.00    -0.379 OA
ATOM     22  H   UNL     1      27.913 -21.513 -15.660  0.00  0.00    +0.211 HD
ENDBRANCH  20  21
ENDBRANCH  13  20
ENDBRANCH   1  11
BRANCH   4  23
ATOM     23  C   UNL     1      36.402 -21.977 -18.796  0.00  0.00    +0.059 C 
BRANCH  23  25
ATOM     24  S   UNL     1      36.386 -19.950 -20.712  0.00  0.00    -0.091 S 
ATOM     25  C   UNL     1      35.585 -21.032 -19.653  0.00  0.00    +0.012 C 
ATOM     26  C   UNL     1      34.216 -20.901 -19.718  0.00  0.00    +0.003 C 
ATOM     27  C   UNL     1      34.899 -19.302 -21.260  0.00  0.00    +0.029 C 
ATOM     28  C   UNL     1      33.818 -19.899 -20.650  0.00  0.00    +0.007 C 
BRANCH  27  30
ATOM     29  F   UNL     1      34.971 -15.251 -25.087  0.00  0.00    -0.204 F 
ATOM     30  C   UNL     1      34.918 -18.252 -22.252  0.00  0.00    +0.006 C 
ATOM     31  C   UNL     1      34.518 -18.522 -23.561  0.00  0.00    +0.003 C 
ATOM     32  C   UNL     1      35.335 -16.968 -21.901  0.00  0.00    +0.003 C 
ATOM     33  C   UNL     1      34.536 -17.509 -24.519  0.00  0.00    +0.030 C 
ATOM     34  C   UNL     1      35.353 -15.955 -22.859  0.00  0.00    +0.030 C 
ATOM     35  C   UNL     1      34.953 -16.225 -24.168  0.00  0.00    +0.140 C 
ENDBRANCH  27  30
ENDBRANCH  23  25
ENDBRANCH   4  23
TORSDOF 9
ENDMDL
MODEL 4
REMARK VINA RESULT:     -10.4     12.268     16.323
REMARK  Name = 24812758
REMARK  9 active torsions:
REMARK  status: ('A' for Active; 'I' for Inactive)
REMARK    1  A    between atoms: C_1  and  C_11
REMARK    2  A    between atoms: C_4  and  C_23
REMARK    3  A    between atoms: C_9  and  O_14
REMARK    4  A    between atoms: C_10  and  O_16
REMARK    5  A    between atoms: C_12  and  O_18
REMARK    6  A    between atoms: C_13  and  C_20
REMARK    7  A    between atoms: C_20  and  O_21
REMARK    8  A    between atoms: C_23  and  C_25
REMARK    9  A    between atoms: C_27  and  C_30
REMARK                            x       y       z     vdW  Elec       q    Type
REMARK                         _______ _______ _______ _____ _____    ______ ____
ROOT
ATOM      1  C   UNL     1      33.108  -7.041 -21.703  0.00  0.00    +0.007 C 
ATOM      2  C   UNL     1      32.576  -8.214 -22.239  0.00  0.00    -0.006 C 
ATOM      3  C   UNL     1      33.167  -6.870 -20.320  0.00  0.00    -0.002 C 
ATOM      4  C   UNL     1      32.103  -9.216 -21.393  0.00  0.00    -0.021 C 
ATOM      5  C   UNL     1      32.162  -9.045 -20.010  0.00  0.00    -0.025 C 
ATOM      6  C   UNL     1      32.694  -7.873 -19.474  0.00  0.00    -0.005 C 
ATOM      7  C   UNL     1      31.662 -10.104 -19.082  0.00  0.00    +0.031 C 
ENDROOT
BRANCH   1  11
ATOM      8  O   UNL     1      32.487  -5.266 -23.163  0.00  0.00    -0.347 OA
ATOM      9  C   UNL     1      34.503  -6.518 -23.748  0.00  0.00    +0.171 C 
ATOM     10  C   UNL     1      34.878  -5.426 -24.754  0.00  0.00    +0.169 C 
ATOM     11  C   UNL     1      33.622  -5.952 -22.624  0.00  0.00    +0.167 C 
ATOM     12  C   UNL     1      33.650  -4.629 -25.193  0.00  0.00    +0.169 C 
ATOM     13  C   UNL     1      32.850  -4.152 -23.979  0.00  0.00    +0.174 C 
BRANCH   9  14
ATOM     14  O   UNL     1      35.697  -7.046 -23.171  0.00  0.00    -0.379 OA
ATOM     15  H   UNL     1      35.480  -7.509 -22.347  0.00  0.00    +0.211 HD
ENDBRANCH   9  14
BRANCH  10  16
ATOM     16  O   UNL     1      35.451  -6.027 -25.916  0.00  0.00    -0.379 OA
ATOM     17  H   UNL     1      35.086  -5.609 -26.711  0.00  0.00    +0.211 HD
ENDBRANCH  10  16
BRANCH  12  18
ATOM     18  O   UNL     1      34.069  -3.498 -25.953  0.00  0.00    -0.379 OA
ATOM     19  H   UNL     1      34.694  -2.971 -25.430  0.00  0.00    +0.211 HD
ENDBRANCH  12  18
BRANCH  13  20
ATOM     20  C   UNL     1      31.561  -3.448 -24.392  0.00  0.00    +0.169 C 
BRANCH  20  21
ATOM     21  O   UNL     1      30.827  -3.129 -23.223  0.00  0.00    -0.379 OA
ATOM     22  H   UNL     1      29.909  -2.930 -23.462  0.00  0.00    +0.211 HD
ENDBRANCH  20  21
ENDBRANCH  13  20
ENDBRANCH   1  11
BRANCH   4  23
ATOM     23  C   UNL     1      31.538 -10.463 -21.989  0.00  0.00    +0.059 C 
BRANCH  23  25
ATOM     24  S   UNL     1      32.679 -13.008 -22.036  0.00  0.00    -0.091 S 
ATOM     25  C   UNL     1      32.584 -11.387 -22.580  0.00  0.00    +0.012 C 
ATOM     26  C   UNL     1      33.524 -11.110 -23.547  0.00  0.00    +0.003 C 
ATOM     27  C   UNL     1      33.982 -13.343 -23.095  0.00  0.00    +0.029 C 
ATOM     28  C   UNL     1      34.335 -12.243 -23.845  0.00  0.00    +0.007 C 
BRANCH  27  30
ATOM     29  F   UNL     1      36.194 -18.458 -23.110  0.00  0.00    -0.204 F 
ATOM     30  C   UNL     1      34.556 -14.668 -23.099  0.00  0.00    +0.006 C 
ATOM     31  C   UNL     1      34.926 -15.272 -21.897  0.00  0.00    +0.003 C 
ATOM     32  C   UNL     1      34.739 -15.346 -24.304  0.00  0.00    +0.003 C 
ATOM     33  C   UNL     1      35.479 -16.552 -21.900  0.00  0.00    +0.030 C 
ATOM     34  C   UNL     1      35.293 -16.625 -24.308  0.00  0.00    +0.030 C 
ATOM     35  C   UNL     1      35.663 -17.229 -23.106  0.00  0.00    +0.140 C 
ENDBRANCH  27  30
ENDBRANCH  23  25
ENDBRANCH   4  23
TORSDOF 9
ENDMDL
MODEL 5
REMARK VINA RESULT:     -10.2      2.546      5.107
REMARK  Name = 24812758
REMARK  9 active torsions:
REMARK  status: ('A' for Active; 'I' for Inactive)
REMARK    1  A    between atoms: C_1  and  C_11
REMARK    2  A    between atoms: C_4  and  C_23
REMARK    3  A    between atoms: C_9  and  O_14
REMARK    4  A    between atoms: C_10  and  O_16
REMARK    5  A    between atoms: C_12  and  O_18
REMARK    6  A    between atoms: C_13  and  C_20
REMARK    7  A    between atoms: C_20  and  O_21
REMARK    8  A    between atoms: C_23  and  C_25
REMARK    9  A    between atoms: C_27  and  C_30
REMARK                            x       y       z     vdW  Elec       q    Type
REMARK                         _______ _______ _______ _____ _____    ______ ____
ROOT
ATOM      1  C   UNL     1      34.944 -24.043 -14.950  0.00  0.00    +0.007 C 
ATOM      2  C   UNL     1      35.517 -23.010 -15.691  0.00  0.00    -0.006 C 
ATOM      3  C   UNL     1      35.757 -25.001 -14.343  0.00  0.00    -0.002 C 
ATOM      4  C   UNL     1      36.903 -22.934 -15.826  0.00  0.00    -0.021 C 
ATOM      5  C   UNL     1      37.716 -23.892 -15.220  0.00  0.00    -0.025 C 
ATOM      6  C   UNL     1      37.143 -24.925 -14.479  0.00  0.00    -0.005 C 
ATOM      7  C   UNL     1      39.203 -23.832 -15.350  0.00  0.00    +0.031 C 
ENDROOT
BRANCH   1  11
ATOM      8  O   UNL     1      32.859 -23.209 -15.739  0.00  0.00    -0.347 OA
ATOM      9  C   UNL     1      32.980 -23.805 -13.372  0.00  0.00    +0.171 C 
ATOM     10  C   UNL     1      31.453 -23.736 -13.285  0.00  0.00    +0.169 C 
ATOM     11  C   UNL     1      33.437 -24.125 -14.803  0.00  0.00    +0.167 C 
ATOM     12  C   UNL     1      30.873 -22.858 -14.393  0.00  0.00    +0.169 C 
ATOM     13  C   UNL     1      31.432 -23.265 -15.757  0.00  0.00    +0.174 C 
BRANCH   9  14
ATOM     14  O   UNL     1      33.449 -24.835 -12.501  0.00  0.00    -0.379 OA
ATOM     15  H   UNL     1      34.288 -24.562 -12.099  0.00  0.00    +0.211 HD
ENDBRANCH   9  14
BRANCH  10  16
ATOM     16  O   UNL     1      31.074 -23.170 -12.029  0.00  0.00    -0.379 OA
ATOM     17  H   UNL     1      31.578 -23.595 -11.318  0.00  0.00    +0.211 HD
ENDBRANCH  10  16
BRANCH  12  18
ATOM     18  O   UNL     1      29.454 -22.994 -14.407  0.00  0.00    -0.379 OA
ATOM     19  H   UNL     1      29.162 -23.421 -13.585  0.00  0.00    +0.211 HD
ENDBRANCH  12  18
BRANCH  13  20
ATOM     20  C   UNL     1      30.952 -22.333 -16.866  0.00  0.00    +0.169 C 
BRANCH  20  21
ATOM     21  O   UNL     1      29.540 -22.411 -16.940  0.00  0.00    -0.379 OA
ATOM     22  H   UNL     1      29.248 -23.288 -16.645  0.00  0.00    +0.211 HD
ENDBRANCH  20  21
ENDBRANCH  13  20
ENDBRANCH   1  11
BRANCH   4  23
ATOM     23  C   UNL     1      37.494 -21.819 -16.624  0.00  0.00    +0.059 C 
BRANCH  23  25
ATOM     24  S   UNL     1      37.269 -20.230 -18.905  0.00  0.00    -0.091 S 
ATOM     25  C   UNL     1      36.690 -21.452 -17.854  0.00  0.00    +0.012 C 
ATOM     26  C   UNL     1      35.495 -21.983 -18.286  0.00  0.00    +0.003 C 
ATOM     27  C   UNL     1      35.918 -20.409 -19.942  0.00  0.00    +0.029 C 
ATOM     28  C   UNL     1      35.048 -21.378 -19.497  0.00  0.00    +0.007 C 
BRANCH  27  30
ATOM     29  F   UNL     1      35.556 -17.185 -24.474  0.00  0.00    -0.204 F 
ATOM     30  C   UNL     1      35.825 -19.573 -21.117  0.00  0.00    +0.006 C 
ATOM     31  C   UNL     1      34.647 -19.550 -21.864  0.00  0.00    +0.003 C 
ATOM     32  C   UNL     1      36.912 -18.789 -21.504  0.00  0.00    +0.003 C 
ATOM     33  C   UNL     1      34.556 -18.743 -22.998  0.00  0.00    +0.030 C 
ATOM     34  C   UNL     1      36.821 -17.983 -22.638  0.00  0.00    +0.030 C 
ATOM     35  C   UNL     1      35.643 -17.959 -23.385  0.00  0.00    +0.140 C 
ENDBRANCH  27  30
ENDBRANCH  23  25
ENDBRANCH   4  23
TORSDOF 9
ENDMDL
MODEL 6
REMARK VINA RESULT:     -10.2     11.217     14.795
REMARK  Name = 24812758
REMARK  9 active torsions:
REMARK  status: ('A' for Active; 'I' for Inactive)
REMARK    1  A    between atoms: C_1  and  C_11
REMARK    2  A    between atoms: C_4  and  C_23
REMARK    3  A    between atoms: C_9  and  O_14
REMARK    4  A    between atoms: C_10  and  O_16
REMARK    5  A    between atoms: C_12  and  O_18
REMARK    6  A    between atoms: C_13  and  C_20
REMARK    7  A    between atoms: C_20  and  O_21
REMARK    8  A    between atoms: C_23  and  C_25
REMARK    9  A    between atoms: C_27  and  C_30
REMARK                            x       y       z     vdW  Elec       q    Type
REMARK                         _______ _______ _______ _____ _____    ______ ____
ROOT
ATOM      1  C   UNL     1      33.133 -12.296 -21.951  0.00  0.00    +0.007 C 
ATOM      2  C   UNL     1      32.615 -11.099 -22.445  0.00  0.00    -0.006 C 
ATOM      3  C   UNL     1      32.875 -12.676 -20.633  0.00  0.00    -0.002 C 
ATOM      4  C   UNL     1      31.840 -10.282 -21.623  0.00  0.00    -0.021 C 
ATOM      5  C   UNL     1      31.582 -10.662 -20.306  0.00  0.00    -0.025 C 
ATOM      6  C   UNL     1      32.100 -11.859 -19.811  0.00  0.00    -0.005 C 
ATOM      7  C   UNL     1      30.754  -9.804 -19.406  0.00  0.00    +0.031 C 
ENDROOT
BRANCH   1  11
ATOM      8  O   UNL     1      33.192 -13.510 -23.997  0.00  0.00    -0.347 OA
ATOM      9  C   UNL     1      34.437 -14.458 -22.120  0.00  0.00    +0.171 C 
ATOM     10  C   UNL     1      35.147 -15.412 -23.085  0.00  0.00    +0.169 C 
ATOM     11  C   UNL     1      33.976 -13.184 -22.845  0.00  0.00    +0.167 C 
ATOM     12  C   UNL     1      34.335 -15.617 -24.362  0.00  0.00    +0.169 C 
ATOM     13  C   UNL     1      33.918 -14.272 -24.962  0.00  0.00    +0.174 C 
BRANCH   9  14
ATOM     14  O   UNL     1      35.343 -14.090 -21.080  0.00  0.00    -0.379 OA
ATOM     15  H   UNL     1      34.858 -14.005 -20.244  0.00  0.00    +0.211 HD
ENDBRANCH   9  14
BRANCH  10  16
ATOM     16  O   UNL     1      35.312 -16.685 -22.458  0.00  0.00    -0.379 OA
ATOM     17  H   UNL     1      35.524 -16.559 -21.520  0.00  0.00    +0.211 HD
ENDBRANCH  10  16
BRANCH  12  18
ATOM     18  O   UNL     1      35.123 -16.330 -25.312  0.00  0.00    -0.379 OA
ATOM     19  H   UNL     1      34.590 -17.040 -25.706  0.00  0.00    +0.211 HD
ENDBRANCH  12  18
BRANCH  13  20
ATOM     20  C   UNL     1      33.014 -14.452 -26.178  0.00  0.00    +0.169 C 
BRANCH  20  21
ATOM     21  O   UNL     1      32.638 -15.815 -26.263  0.00  0.00    -0.379 OA
ATOM     22  H   UNL     1      32.745 -16.235 -25.395  0.00  0.00    +0.211 HD
ENDBRANCH  20  21
ENDBRANCH  13  20
ENDBRANCH   1  11
BRANCH   4  23
ATOM     23  C   UNL     1      31.296  -9.005 -22.174  0.00  0.00    +0.059 C 
BRANCH  23  25
ATOM     24  S   UNL     1      32.172  -7.087 -24.000  0.00  0.00    -0.091 S 
ATOM     25  C   UNL     1      32.362  -8.003 -22.566  0.00  0.00    +0.012 C 
ATOM     26  C   UNL     1      33.531  -7.694 -21.906  0.00  0.00    +0.003 C 
ATOM     27  C   UNL     1      33.656  -6.273 -23.741  0.00  0.00    +0.029 C 
ATOM     28  C   UNL     1      34.281  -6.692 -22.587  0.00  0.00    +0.007 C 
BRANCH  27  30
ATOM     29  F   UNL     1      35.321  -2.461 -27.450  0.00  0.00    -0.204 F 
ATOM     30  C   UNL     1      34.087  -5.285 -24.702  0.00  0.00    +0.006 C 
ATOM     31  C   UNL     1      35.244  -5.500 -25.452  0.00  0.00    +0.003 C 
ATOM     32  C   UNL     1      33.348  -4.116 -24.880  0.00  0.00    +0.003 C 
ATOM     33  C   UNL     1      35.661  -4.547 -26.380  0.00  0.00    +0.030 C 
ATOM     34  C   UNL     1      33.765  -3.162 -25.808  0.00  0.00    +0.030 C 
ATOM     35  C   UNL     1      34.921  -3.377 -26.559  0.00  0.00    +0.140 C 
ENDBRANCH  27  30
ENDBRANCH  23  25
ENDBRANCH   4  23
TORSDOF 9
ENDMDL
MODEL 7
REMARK VINA RESULT:     -10.2      4.281      8.028
REMARK  Name = 24812758
REMARK  9 active torsions:
REMARK  status: ('A' for Active; 'I' for Inactive)
REMARK    1  A    between atoms: C_1  and  C_11
REMARK    2  A    between atoms: C_4  and  C_23
REMARK    3  A    between atoms: C_9  and  O_14
REMARK    4  A    between atoms: C_10  and  O_16
REMARK    5  A    between atoms: C_12  and  O_18
REMARK    6  A    between atoms: C_13  and  C_20
REMARK    7  A    between atoms: C_20  and  O_21
REMARK    8  A    between atoms: C_23  and  C_25
REMARK    9  A    between atoms: C_27  and  C_30
REMARK                            x       y       z     vdW  Elec       q    Type
REMARK                         _______ _______ _______ _____ _____    ______ ____
ROOT
ATOM      1  C   UNL     1      36.038 -21.886 -17.735  0.00  0.00    +0.007 C 
ATOM      2  C   UNL     1      35.291 -22.838 -17.042  0.00  0.00    -0.006 C 
ATOM      3  C   UNL     1      37.177 -21.332 -17.150  0.00  0.00    -0.002 C 
ATOM      4  C   UNL     1      35.680 -23.236 -15.763  0.00  0.00    -0.021 C 
ATOM      5  C   UNL     1      36.819 -22.682 -15.178  0.00  0.00    -0.025 C 
ATOM      6  C   UNL     1      37.567 -21.730 -15.871  0.00  0.00    -0.005 C 
ATOM      7  C   UNL     1      37.257 -23.092 -13.810  0.00  0.00    +0.031 C 
ENDROOT
BRANCH   1  11
ATOM      8  O   UNL     1      36.359 -20.278 -19.460  0.00  0.00    -0.347 OA
ATOM      9  C   UNL     1      34.104 -21.186 -19.208  0.00  0.00    +0.171 C 
ATOM     10  C   UNL     1      33.724 -20.598 -20.570  0.00  0.00    +0.169 C 
ATOM     11  C   UNL     1      35.614 -21.454 -19.125  0.00  0.00    +0.167 C 
ATOM     12  C   UNL     1      34.639 -19.435 -20.947  0.00  0.00    +0.169 C 
ATOM     13  C   UNL     1      36.110 -19.828 -20.792  0.00  0.00    +0.174 C 
BRANCH   9  14
ATOM     14  O   UNL     1      33.410 -22.420 -19.025  0.00  0.00    -0.379 OA
ATOM     15  H   UNL     1      32.845 -22.360 -18.239  0.00  0.00    +0.211 HD
ENDBRANCH   9  14
BRANCH  10  16
ATOM     16  O   UNL     1      32.384 -20.106 -20.518  0.00  0.00    -0.379 OA
ATOM     17  H   UNL     1      32.136 -19.750 -21.385  0.00  0.00    +0.211 HD
ENDBRANCH  10  16
BRANCH  12  18
ATOM     18  O   UNL     1      34.393 -19.062 -22.301  0.00  0.00    -0.379 OA
ATOM     19  H   UNL     1      34.823 -18.211 -22.485  0.00  0.00    +0.211 HD
ENDBRANCH  12  18
BRANCH  13  20
ATOM     20  C   UNL     1      37.042 -18.650 -21.058  0.00  0.00    +0.169 C 
BRANCH  20  21
ATOM     21  O   UNL     1      37.840 -18.438 -19.908  0.00  0.00    -0.379 OA
ATOM     22  H   UNL     1      37.366 -17.864 -19.286  0.00  0.00    +0.211 HD
ENDBRANCH  20  21
ENDBRANCH  13  20
ENDBRANCH   1  11
BRANCH   4  23
ATOM     23  C   UNL     1      34.865 -24.257 -15.041  0.00  0.00    +0.059 C 
BRANCH  23  25
ATOM     24  S   UNL     1      32.286 -23.635 -15.902  0.00  0.00    -0.091 S 
ATOM     25  C   UNL     1      33.473 -23.782 -14.677  0.00  0.00    +0.012 C 
ATOM     26  C   UNL     1      32.983 -23.433 -13.438  0.00  0.00    +0.003 C 
ATOM     27  C   UNL     1      31.112 -23.101 -14.776  0.00  0.00    +0.029 C 
ATOM     28  C   UNL     1      31.615 -23.038 -13.495  0.00  0.00    +0.007 C 
BRANCH  27  30
ATOM     29  F   UNL     1      25.989 -21.877 -16.597  0.00  0.00    -0.204 F 
ATOM     30  C   UNL     1      29.784 -22.784 -15.248  0.00  0.00    +0.006 C 
ATOM     31  C   UNL     1      28.840 -22.252 -14.370  0.00  0.00    +0.003 C 
ATOM     32  C   UNL     1      29.446 -23.010 -16.583  0.00  0.00    +0.003 C 
ATOM     33  C   UNL     1      27.558 -21.946 -14.825  0.00  0.00    +0.030 C 
ATOM     34  C   UNL     1      28.164 -22.703 -17.038  0.00  0.00    +0.030 C 
ATOM     35  C   UNL     1      27.220 -22.171 -16.159  0.00  0.00    +0.140 C 
ENDBRANCH  27  30
ENDBRANCH  23  25
ENDBRANCH   4  23
TORSDOF 9
ENDMDL
MODEL 8
REMARK VINA RESULT:      -9.9      5.965     10.238
REMARK  Name = 24812758
REMARK  9 active torsions:
REMARK  status: ('A' for Active; 'I' for Inactive)
REMARK    1  A    between atoms: C_1  and  C_11
REMARK    2  A    between atoms: C_4  and  C_23
REMARK    3  A    between atoms: C_9  and  O_14
REMARK    4  A    between atoms: C_10  and  O_16
REMARK    5  A    between atoms: C_12  and  O_18
REMARK    6  A    between atoms: C_13  and  C_20
REMARK    7  A    between atoms: C_20  and  O_21
REMARK    8  A    between atoms: C_23  and  C_25
REMARK    9  A    between atoms: C_27  and  C_30
REMARK                            x       y       z     vdW  Elec       q    Type
REMARK                         _______ _______ _______ _____ _____    ______ ____
ROOT
ATOM      1  C   UNL     1      36.188 -18.805 -21.645  0.00  0.00    +0.007 C 
ATOM      2  C   UNL     1      35.596 -20.046 -21.410  0.00  0.00    -0.006 C 
ATOM      3  C   UNL     1      37.117 -18.292 -20.739  0.00  0.00    -0.002 C 
ATOM      4  C   UNL     1      35.930 -20.774 -20.268  0.00  0.00    -0.021 C 
ATOM      5  C   UNL     1      36.858 -20.261 -19.362  0.00  0.00    -0.025 C 
ATOM      6  C   UNL     1      37.451 -19.020 -19.597  0.00  0.00    -0.005 C 
ATOM      7  C   UNL     1      37.234 -21.021 -18.133  0.00  0.00    +0.031 C 
ENDROOT
BRANCH   1  11
ATOM      8  O   UNL     1      35.483 -16.687 -22.471  0.00  0.00    -0.347 OA
ATOM      9  C   UNL     1      34.664 -18.659 -23.660  0.00  0.00    +0.171 C 
ATOM     10  C   UNL     1      34.208 -17.763 -24.814  0.00  0.00    +0.169 C 
ATOM     11  C   UNL     1      35.824 -18.014 -22.886  0.00  0.00    +0.167 C 
ATOM     12  C   UNL     1      33.993 -16.324 -24.349  0.00  0.00    +0.169 C 
ATOM     13  C   UNL     1      35.209 -15.817 -23.570  0.00  0.00    +0.174 C 
BRANCH   9  14
ATOM     14  O   UNL     1      35.107 -19.909 -24.189  0.00  0.00    -0.379 OA
ATOM     15  H   UNL     1      35.677 -19.751 -24.958  0.00  0.00    +0.211 HD
ENDBRANCH   9  14
BRANCH  10  16
ATOM     16  O   UNL     1      32.969 -18.249 -25.332  0.00  0.00    -0.379 OA
ATOM     17  H   UNL     1      32.430 -18.600 -24.606  0.00  0.00    +0.211 HD
ENDBRANCH  10  16
BRANCH  12  18
ATOM     18  O   UNL     1      33.782 -15.488 -25.485  0.00  0.00    -0.379 OA
ATOM     19  H   UNL     1      34.616 -15.387 -25.970  0.00  0.00    +0.211 HD
ENDBRANCH  12  18
BRANCH  13  20
ATOM     20  C   UNL     1      34.974 -14.422 -23.001  0.00  0.00    +0.169 C 
BRANCH  20  21
ATOM     21  O   UNL     1      33.610 -14.086 -23.178  0.00  0.00    -0.379 OA
ATOM     22  H   UNL     1      33.070 -14.890 -23.129  0.00  0.00    +0.211 HD
ENDBRANCH  20  21
ENDBRANCH  13  20
ENDBRANCH   1  11
BRANCH   4  23
ATOM     23  C   UNL     1      35.283 -22.100 -20.038  0.00  0.00    +0.059 C 
BRANCH  23  25
ATOM     24  S   UNL     1      34.155 -23.032 -17.663  0.00  0.00    -0.091 S 
ATOM     25  C   UNL     1      34.120 -22.053 -19.068  0.00  0.00    +0.012 C 
ATOM     26  C   UNL     1      32.972 -21.297 -19.143  0.00  0.00    +0.003 C 
ATOM     27  C   UNL     1      32.629 -22.447 -17.153  0.00  0.00    +0.029 C 
ATOM     28  C   UNL     1      32.107 -21.525 -18.033  0.00  0.00    +0.007 C 
BRANCH  27  30
ATOM     29  F   UNL     1      30.458 -24.375 -12.395  0.00  0.00    -0.204 F 
ATOM     30  C   UNL     1      32.066 -22.947 -15.920  0.00  0.00    +0.006 C 
ATOM     31  C   UNL     1      32.893 -23.182 -14.821  0.00  0.00    +0.003 C 
ATOM     32  C   UNL     1      30.697 -23.194 -15.828  0.00  0.00    +0.003 C 
ATOM     33  C   UNL     1      32.350 -23.664 -13.631  0.00  0.00    +0.030 C 
ATOM     34  C   UNL     1      30.154 -23.676 -14.638  0.00  0.00    +0.030 C 
ATOM     35  C   UNL     1      30.980 -23.912 -13.538  0.00  0.00    +0.140 C 
ENDBRANCH  27  30
ENDBRANCH  23  25
ENDBRANCH   4  23
TORSDOF 9
ENDMDL
MODEL 9
REMARK VINA RESULT:      -9.8     11.091     15.688
REMARK  Name = 24812758
REMARK  9 active torsions:
REMARK  status: ('A' for Active; 'I' for Inactive)
REMARK    1  A    between atoms: C_1  and  C_11
REMARK    2  A    between atoms: C_4  and  C_23
REMARK    3  A    between atoms: C_9  and  O_14
REMARK    4  A    between atoms: C_10  and  O_16
REMARK    5  A    between atoms: C_12  and  O_18
REMARK    6  A    between atoms: C_13  and  C_20
REMARK    7  A    between atoms: C_20  and  O_21
REMARK    8  A    between atoms: C_23  and  C_25
REMARK    9  A    between atoms: C_27  and  C_30
REMARK                            x       y       z     vdW  Elec       q    Type
REMARK                         _______ _______ _______ _____ _____    ______ ____
ROOT
ATOM      1  C   UNL     1      33.566  -8.276 -23.502  0.00  0.00    +0.007 C 
ATOM      2  C   UNL     1      33.302  -9.571 -23.947  0.00  0.00    -0.006 C 
ATOM      3  C   UNL     1      34.754  -7.642 -23.867  0.00  0.00    -0.002 C 
ATOM      4  C   UNL     1      34.225 -10.233 -24.757  0.00  0.00    -0.021 C 
ATOM      5  C   UNL     1      35.413  -9.599 -25.121  0.00  0.00    -0.025 C 
ATOM      6  C   UNL     1      35.677  -8.304 -24.676  0.00  0.00    -0.005 C 
ATOM      7  C   UNL     1      36.417 -10.286 -25.988  0.00  0.00    +0.031 C 
ENDROOT
BRANCH   1  11
ATOM      8  O   UNL     1      32.486  -6.200 -23.070  0.00  0.00    -0.347 OA
ATOM      9  C   UNL     1      32.949  -7.622 -21.137  0.00  0.00    +0.171 C 
ATOM     10  C   UNL     1      32.014  -6.758 -20.288  0.00  0.00    +0.169 C 
ATOM     11  C   UNL     1      32.562  -7.558 -22.622  0.00  0.00    +0.167 C 
ATOM     12  C   UNL     1      31.854  -5.360 -20.885  0.00  0.00    +0.169 C 
ATOM     13  C   UNL     1      31.498  -5.442 -22.371  0.00  0.00    +0.174 C 
BRANCH   9  14
ATOM     14  O   UNL     1      32.854  -8.978 -20.699  0.00  0.00    -0.379 OA
ATOM     15  H   UNL     1      32.636  -8.997 -19.754  0.00  0.00    +0.211 HD
ENDBRANCH   9  14
BRANCH  10  16
ATOM     16  O   UNL     1      32.559  -6.617 -18.975  0.00  0.00    -0.379 OA
ATOM     17  H   UNL     1      32.121  -7.240 -18.374  0.00  0.00    +0.211 HD
ENDBRANCH  10  16
BRANCH  12  18
ATOM     18  O   UNL     1      30.819  -4.668 -20.192  0.00  0.00    -0.379 OA
ATOM     19  H   UNL     1      31.098  -4.502 -19.277  0.00  0.00    +0.211 HD
ENDBRANCH  12  18
BRANCH  13  20
ATOM     20  C   UNL     1      31.441  -4.061 -23.015  0.00  0.00    +0.169 C 
BRANCH  20  21
ATOM     21  O   UNL     1      32.085  -3.136 -22.157  0.00  0.00    -0.379 OA
ATOM     22  H   UNL     1      32.504  -2.440 -22.688  0.00  0.00    +0.211 HD
ENDBRANCH  20  21
ENDBRANCH  13  20
ENDBRANCH   1  11
BRANCH   4  23
ATOM     23  C   UNL     1      33.920 -11.619 -25.222  0.00  0.00    +0.059 C 
BRANCH  23  25
ATOM     24  S   UNL     1      34.411 -14.315 -24.699  0.00  0.00    -0.091 S 
ATOM     25  C   UNL     1      34.220 -12.690 -24.193  0.00  0.00    +0.012 C 
ATOM     26  C   UNL     1      34.377 -12.551 -22.832  0.00  0.00    +0.003 C 
ATOM     27  C   UNL     1      34.702 -14.837 -23.095  0.00  0.00    +0.029 C 
ATOM     28  C   UNL     1      34.655 -13.795 -22.195  0.00  0.00    +0.007 C 
BRANCH  27  30
ATOM     29  F   UNL     1      35.667 -20.244 -22.153  0.00  0.00    -0.204 F 
ATOM     30  C   UNL     1      34.952 -16.238 -22.851  0.00  0.00    +0.006 C 
ATOM     31  C   UNL     1      35.371 -16.663 -21.590  0.00  0.00    +0.003 C 
ATOM     32  C   UNL     1      34.774 -17.168 -23.876  0.00  0.00    +0.003 C 
ATOM     33  C   UNL     1      35.613 -18.016 -21.354  0.00  0.00    +0.030 C 
ATOM     34  C   UNL     1      35.016 -18.520 -23.640  0.00  0.00    +0.030 C 
ATOM     35  C   UNL     1      35.435 -18.945 -22.379  0.00  0.00    +0.140 C 
ENDBRANCH  27  30
ENDBRANCH  23  25
ENDBRANCH   4  23
TORSDOF 9
ENDMDL
