MODEL 1
REMARK VINA RESULT:     -11.4      0.000      0.000
REMARK  Name = 25195365
REMARK  5 active torsions:
REMARK  status: ('A' for Active; 'I' for Inactive)
REMARK    1  A    between atoms: C_1  and  C_3
REMARK    2  A    between atoms: C_1  and  C_17
REMARK    3  A    between atoms: C_4  and  C_9
REMARK    4  A    between atoms: C_6  and  O_15
REMARK    5  A    between atoms: C_18  and  C_23
REMARK                            x       y       z     vdW  Elec       q    Type
REMARK                         _______ _______ _______ _____ _____    ______ ____
ROOT
ATOM      1  C   UNL     1      33.091 -22.886 -17.495  0.00  0.00    +0.086 C 
ATOM      2  C   UNL     1      31.723 -22.507 -16.898  0.00  0.00    +0.019 C 
ENDROOT
BRANCH   1   3
ATOM      3  C   UNL     1      33.557 -21.920 -18.531  0.00  0.00    -0.007 C 
ATOM      4  C   UNL     1      34.427 -20.113 -20.470  0.00  0.00    +0.034 C 
ATOM      5  C   UNL     1      34.921 -21.774 -18.786  0.00  0.00    +0.034 C 
ATOM      6  C   UNL     1      35.356 -20.870 -19.756  0.00  0.00    +0.138 C 
ATOM      7  C   UNL     1      32.629 -21.163 -19.246  0.00  0.00    -0.003 C 
ATOM      8  C   UNL     1      33.064 -20.260 -20.215  0.00  0.00    +0.003 C 
BRANCH   4   9
ATOM      9  C   UNL     1      34.858 -19.170 -21.480  0.00  0.00    +0.003 C 
ATOM     10  C   UNL     1      34.822 -19.526 -22.828  0.00  0.00    +0.000 C 
ATOM     11  C   UNL     1      35.308 -17.903 -21.105  0.00  0.00    +0.000 C 
ATOM     12  C   UNL     1      35.236 -18.616 -23.801  0.00  0.00    +0.000 C 
ATOM     13  C   UNL     1      35.722 -16.994 -22.078  0.00  0.00    +0.000 C 
ATOM     14  C   UNL     1      35.686 -17.351 -23.425  0.00  0.00    +0.000 C 
ENDBRANCH   4   9
BRANCH   6  15
ATOM     15  O   UNL     1      36.695 -20.748 -19.986  0.00  0.00    -0.471 OA
ATOM     16  C   UNL     1      37.471 -20.119 -18.968  0.00  0.00    +0.252 C 
ENDBRANCH   6  15
ENDBRANCH   1   3
BRANCH   1  17
ATOM     17  C   UNL     1      34.080 -23.057 -16.400  0.00  0.00    -0.087 C 
ATOM     18  C   UNL     1      34.864 -23.191 -15.499  0.00  0.00    -0.076 C 
BRANCH  18  23
ATOM     19  N   UNL     1      38.013 -23.070 -13.538  0.00  0.00    -0.336 NA
ATOM     20  N   UNL     1      36.296 -24.086 -12.187  0.00  0.00    -0.317 NA
ATOM     21  N   UNL     1      34.107 -24.373 -13.036  0.00  0.00    -0.334 N 
ATOM     22  N   UNL     1      38.471 -23.796 -11.355  0.00  0.00    -0.283 N 
ATOM     23  C   UNL     1      35.792 -23.351 -14.422  0.00  0.00    +0.179 C 
ATOM     24  C   UNL     1      37.104 -22.939 -14.527  0.00  0.00    +0.120 C 
ATOM     25  C   UNL     1      35.441 -23.924 -13.217  0.00  0.00    +0.186 C 
ATOM     26  C   UNL     1      37.613 -22.303 -15.781  0.00  0.00    +0.064 C 
ATOM     27  C   UNL     1      37.547 -23.643 -12.412  0.00  0.00    +0.196 C 
ATOM     28  H   UNL     1      33.838 -24.784 -12.184  0.00  0.00    +0.144 HD
ATOM     29  H   UNL     1      33.452 -24.272 -13.764  0.00  0.00    +0.144 HD
ATOM     30  H   UNL     1      39.399 -23.490 -11.464  0.00  0.00    +0.156 HD
ATOM     31  H   UNL     1      38.185 -24.209 -10.507  0.00  0.00    +0.156 HD
ENDBRANCH  18  23
ENDBRANCH   1  17
TORSDOF 5
ENDMDL
MODEL 2
REMARK VINA RESULT:     -10.9      4.389      7.141
REMARK  Name = 25195365
REMARK  5 active torsions:
REMARK  status: ('A' for Active; 'I' for Inactive)
REMARK    1  A    between atoms: C_1  and  C_3
REMARK    2  A    between atoms: C_1  and  C_17
REMARK    3  A    between atoms: C_4  and  C_9
REMARK    4  A    between atoms: C_6  and  O_15
REMARK    5  A    between atoms: C_18  and  C_23
REMARK                            x       y       z     vdW  Elec       q    Type
REMARK                         _______ _______ _______ _____ _____    ______ ____
ROOT
ATOM      1  C   UNL     1      36.130 -18.052 -22.589  0.00  0.00    +0.086 C 
ATOM      2  C   UNL     1      36.076 -18.708 -23.982  0.00  0.00    +0.019 C 
ENDROOT
BRANCH   1   3
ATOM      3  C   UNL     1      35.466 -16.718 -22.551  0.00  0.00    -0.007 C 
ATOM      4  C   UNL     1      34.223 -14.221 -22.479  0.00  0.00    +0.034 C 
ATOM      5  C   UNL     1      35.110 -16.081 -23.740  0.00  0.00    +0.034 C 
ATOM      6  C   UNL     1      34.488 -14.833 -23.705  0.00  0.00    +0.138 C 
ATOM      7  C   UNL     1      35.201 -16.105 -21.326  0.00  0.00    -0.003 C 
ATOM      8  C   UNL     1      34.579 -14.858 -21.290  0.00  0.00    +0.003 C 
BRANCH   4   9
ATOM      9  C   UNL     1      33.580 -12.926 -22.419  0.00  0.00    +0.003 C 
ATOM     10  C   UNL     1      32.563 -12.694 -21.493  0.00  0.00    +0.000 C 
ATOM     11  C   UNL     1      33.977 -11.909 -23.288  0.00  0.00    +0.000 C 
ATOM     12  C   UNL     1      31.944 -11.446 -21.435  0.00  0.00    +0.000 C 
ATOM     13  C   UNL     1      33.357 -10.661 -23.229  0.00  0.00    +0.000 C 
ATOM     14  C   UNL     1      32.341 -10.430 -22.303  0.00  0.00    +0.000 C 
ENDBRANCH   4   9
BRANCH   6  15
ATOM     15  O   UNL     1      34.150 -14.234 -24.882  0.00  0.00    -0.471 OA
ATOM     16  C   UNL     1      33.135 -14.866 -25.660  0.00  0.00    +0.252 C 
ENDBRANCH   6  15
ENDBRANCH   1   3
BRANCH   1  17
ATOM     17  C   UNL     1      35.572 -18.988 -21.578  0.00  0.00    -0.087 C 
ATOM     18  C   UNL     1      35.127 -19.762 -20.774  0.00  0.00    -0.076 C 
BRANCH  18  23
ATOM     19  N   UNL     1      34.975 -22.291 -18.062  0.00  0.00    -0.336 NA
ATOM     20  N   UNL     1      32.730 -21.789 -18.782  0.00  0.00    -0.317 NA
ATOM     21  N   UNL     1      32.343 -20.217 -20.506  0.00  0.00    -0.334 N 
ATOM     22  N   UNL     1      33.128 -23.346 -17.072  0.00  0.00    -0.283 N 
ATOM     23  C   UNL     1      34.602 -20.688 -19.819  0.00  0.00    +0.179 C 
ATOM     24  C   UNL     1      35.425 -21.408 -18.977  0.00  0.00    +0.120 C 
ATOM     25  C   UNL     1      33.251 -20.921 -19.675  0.00  0.00    +0.186 C 
ATOM     26  C   UNL     1      36.911 -21.248 -19.032  0.00  0.00    +0.064 C 
ATOM     27  C   UNL     1      33.636 -22.430 -18.019  0.00  0.00    +0.196 C 
ATOM     28  H   UNL     1      31.375 -20.370 -20.418  0.00  0.00    +0.144 HD
ATOM     29  H   UNL     1      32.682 -19.575 -21.171  0.00  0.00    +0.144 HD
ATOM     30  H   UNL     1      33.745 -23.842 -16.488  0.00  0.00    +0.156 HD
ATOM     31  H   UNL     1      32.156 -23.487 -16.996  0.00  0.00    +0.156 HD
ENDBRANCH  18  23
ENDBRANCH   1  17
TORSDOF 5
ENDMDL
MODEL 3
REMARK VINA RESULT:     -10.5      4.778      8.765
REMARK  Name = 25195365
REMARK  5 active torsions:
REMARK  status: ('A' for Active; 'I' for Inactive)
REMARK    1  A    between atoms: C_1  and  C_3
REMARK    2  A    between atoms: C_1  and  C_17
REMARK    3  A    between atoms: C_4  and  C_9
REMARK    4  A    between atoms: C_6  and  O_15
REMARK    5  A    between atoms: C_18  and  C_23
REMARK                            x       y       z     vdW  Elec       q    Type
REMARK                         _______ _______ _______ _____ _____    ______ ____
ROOT
ATOM      1  C   UNL     1      36.755 -21.630 -17.885  0.00  0.00    +0.086 C 
ATOM      2  C   UNL     1      37.639 -20.808 -16.927  0.00  0.00    +0.019 C 
ENDROOT
BRANCH   1   3
ATOM      3  C   UNL     1      35.527 -22.162 -17.227  0.00  0.00    -0.007 C 
ATOM      4  C   UNL     1      33.229 -23.155 -15.998  0.00  0.00    +0.034 C 
ATOM      5  C   UNL     1      35.554 -22.509 -15.877  0.00  0.00    +0.034 C 
ATOM      6  C   UNL     1      34.404 -23.006 -15.261  0.00  0.00    +0.138 C 
ATOM      7  C   UNL     1      34.352 -22.311 -17.963  0.00  0.00    -0.003 C 
ATOM      8  C   UNL     1      33.203 -22.808 -17.348  0.00  0.00    +0.003 C 
BRANCH   4   9
ATOM      9  C   UNL     1      32.026 -23.670 -15.379  0.00  0.00    +0.003 C 
ATOM     10  C   UNL     1      32.116 -24.627 -14.369  0.00  0.00    +0.000 C 
ATOM     11  C   UNL     1      30.776 -23.208 -15.793  0.00  0.00    +0.000 C 
ATOM     12  C   UNL     1      30.957 -25.123 -13.772  0.00  0.00    +0.000 C 
ATOM     13  C   UNL     1      29.617 -23.704 -15.197  0.00  0.00    +0.000 C 
ATOM     14  C   UNL     1      29.708 -24.661 -14.187  0.00  0.00    +0.000 C 
ENDBRANCH   4   9
BRANCH   6  15
ATOM     15  O   UNL     1      34.458 -23.336 -13.940  0.00  0.00    -0.471 OA
ATOM     16  C   UNL     1      35.718 -23.768 -13.431  0.00  0.00    +0.252 C 
ENDBRANCH   6  15
ENDBRANCH   1   3
BRANCH   1  17
ATOM     17  C   UNL     1      36.443 -20.819 -19.091  0.00  0.00    -0.087 C 
ATOM     18  C   UNL     1      36.167 -20.170 -20.064  0.00  0.00    -0.076 C 
BRANCH  18  23
ATOM     19  N   UNL     1      34.183 -18.619 -22.790  0.00  0.00    -0.336 NA
ATOM     20  N   UNL     1      36.481 -17.927 -23.011  0.00  0.00    -0.317 NA
ATOM     21  N   UNL     1      38.118 -18.680 -21.479  0.00  0.00    -0.334 N 
ATOM     22  N   UNL     1      34.847 -17.186 -24.525  0.00  0.00    -0.283 N 
ATOM     23  C   UNL     1      35.834 -19.396 -21.219  0.00  0.00    +0.179 C 
ATOM     24  C   UNL     1      34.544 -19.335 -21.704  0.00  0.00    +0.120 C 
ATOM     25  C   UNL     1      36.770 -18.665 -21.920  0.00  0.00    +0.186 C 
ATOM     26  C   UNL     1      33.434 -20.083 -21.036  0.00  0.00    +0.064 C 
ATOM     27  C   UNL     1      35.188 -17.948 -23.386  0.00  0.00    +0.196 C 
ATOM     28  H   UNL     1      38.801 -18.164 -21.967  0.00  0.00    +0.144 HD
ATOM     29  H   UNL     1      38.370 -19.206 -20.686  0.00  0.00    +0.144 HD
ATOM     30  H   UNL     1      33.917 -17.166 -24.843  0.00  0.00    +0.156 HD
ATOM     31  H   UNL     1      35.542 -16.676 -25.001  0.00  0.00    +0.156 HD
ENDBRANCH  18  23
ENDBRANCH   1  17
TORSDOF 5
ENDMDL
MODEL 4
REMARK VINA RESULT:     -10.0      8.367     12.056
REMARK  Name = 25195365
REMARK  5 active torsions:
REMARK  status: ('A' for Active; 'I' for Inactive)
REMARK    1  A    between atoms: C_1  and  C_3
REMARK    2  A    between atoms: C_1  and  C_17
REMARK    3  A    between atoms: C_4  and  C_9
REMARK    4  A    between atoms: C_6  and  O_15
REMARK    5  A    between atoms: C_18  and  C_23
REMARK                            x       y       z     vdW  Elec       q    Type
REMARK                         _______ _______ _______ _____ _____    ______ ____
ROOT
ATOM      1  C   UNL     1      34.434 -12.049 -25.094  0.00  0.00    +0.086 C 
ATOM      2  C   UNL     1      33.491 -12.372 -26.269  0.00  0.00    +0.019 C 
ENDROOT
BRANCH   1   3
ATOM      3  C   UNL     1      33.961 -10.899 -24.272  0.00  0.00    -0.007 C 
ATOM      4  C   UNL     1      33.077  -8.747 -22.733  0.00  0.00    +0.034 C 
ATOM      5  C   UNL     1      32.920 -11.074 -23.361  0.00  0.00    +0.034 C 
ATOM      6  C   UNL     1      32.477  -9.998 -22.591  0.00  0.00    +0.138 C 
ATOM      7  C   UNL     1      34.560  -9.647 -24.414  0.00  0.00    -0.003 C 
ATOM      8  C   UNL     1      34.118  -8.571 -23.645  0.00  0.00    +0.003 C 
BRANCH   4   9
ATOM      9  C   UNL     1      32.633  -7.617 -21.946  0.00  0.00    +0.003 C 
ATOM     10  C   UNL     1      33.159  -7.405 -20.671  0.00  0.00    +0.000 C 
ATOM     11  C   UNL     1      31.679  -6.738 -22.462  0.00  0.00    +0.000 C 
ATOM     12  C   UNL     1      32.731  -6.316 -19.913  0.00  0.00    +0.000 C 
ATOM     13  C   UNL     1      31.252  -5.649 -21.702  0.00  0.00    +0.000 C 
ATOM     14  C   UNL     1      31.778  -5.438 -20.428  0.00  0.00    +0.000 C 
ENDBRANCH   4   9
BRANCH   6  15
ATOM     15  O   UNL     1      31.458 -10.198 -21.707  0.00  0.00    -0.471 OA
ATOM     16  C   UNL     1      31.614 -11.261 -20.770  0.00  0.00    +0.252 C 
ENDBRANCH   6  15
ENDBRANCH   1   3
BRANCH   1  17
ATOM     17  C   UNL     1      34.650 -13.273 -24.280  0.00  0.00    -0.087 C 
ATOM     18  C   UNL     1      34.832 -14.274 -23.640  0.00  0.00    -0.076 C 
BRANCH  18  23
ATOM     19  N   UNL     1      35.166 -16.578 -20.750  0.00  0.00    -0.336 NA
ATOM     20  N   UNL     1      35.584 -17.811 -22.778  0.00  0.00    -0.317 NA
ATOM     21  N   UNL     1      35.480 -16.737 -24.883  0.00  0.00    -0.334 N 
ATOM     22  N   UNL     1      35.684 -18.866 -20.684  0.00  0.00    -0.283 N 
ATOM     23  C   UNL     1      35.054 -15.466 -22.882  0.00  0.00    +0.179 C 
ATOM     24  C   UNL     1      34.965 -15.479 -21.505  0.00  0.00    +0.120 C 
ATOM     25  C   UNL     1      35.370 -16.673 -23.470  0.00  0.00    +0.186 C 
ATOM     26  C   UNL     1      34.630 -14.235 -20.745  0.00  0.00    +0.064 C 
ATOM     27  C   UNL     1      35.467 -17.694 -21.441  0.00  0.00    +0.196 C 
ATOM     28  H   UNL     1      35.705 -17.589 -25.320  0.00  0.00    +0.144 HD
ATOM     29  H   UNL     1      35.332 -15.928 -25.424  0.00  0.00    +0.144 HD
ATOM     30  H   UNL     1      35.612 -18.838 -19.703  0.00  0.00    +0.156 HD
ATOM     31  H   UNL     1      35.907 -19.711 -21.138  0.00  0.00    +0.156 HD
ENDBRANCH  18  23
ENDBRANCH   1  17
TORSDOF 5
ENDMDL
MODEL 5
REMARK VINA RESULT:      -9.6     10.104     13.347
REMARK  Name = 25195365
REMARK  5 active torsions:
REMARK  status: ('A' for Active; 'I' for Inactive)
REMARK    1  A    between atoms: C_1  and  C_3
REMARK    2  A    between atoms: C_1  and  C_17
REMARK    3  A    between atoms: C_4  and  C_9
REMARK    4  A    between atoms: C_6  and  O_15
REMARK    5  A    between atoms: C_18  and  C_23
REMARK                            x       y       z     vdW  Elec       q    Type
REMARK                         _______ _______ _______ _____ _____    ______ ____
ROOT
ATOM      1  C   UNL     1      31.796 -10.925 -21.254  0.00  0.00    +0.086 C 
ATOM      2  C   UNL     1      32.034 -10.792 -19.738  0.00  0.00    +0.019 C 
ENDROOT
BRANCH   1   3
ATOM      3  C   UNL     1      32.129  -9.680 -22.003  0.00  0.00    -0.007 C 
ATOM      4  C   UNL     1      32.755  -7.352 -23.406  0.00  0.00    +0.034 C 
ATOM      5  C   UNL     1      31.727  -8.439 -21.510  0.00  0.00    +0.034 C 
ATOM      6  C   UNL     1      32.039  -7.275 -22.212  0.00  0.00    +0.138 C 
ATOM      7  C   UNL     1      32.845  -9.756 -23.198  0.00  0.00    -0.003 C 
ATOM      8  C   UNL     1      33.158  -8.593 -23.900  0.00  0.00    +0.003 C 
BRANCH   4   9
ATOM      9  C   UNL     1      33.089  -6.156 -24.150  0.00  0.00    +0.003 C 
ATOM     10  C   UNL     1      34.423  -5.857 -24.428  0.00  0.00    +0.000 C 
ATOM     11  C   UNL     1      32.077  -5.303 -24.590  0.00  0.00    +0.000 C 
ATOM     12  C   UNL     1      34.745  -4.705 -25.145  0.00  0.00    +0.000 C 
ATOM     13  C   UNL     1      32.399  -4.150 -25.308  0.00  0.00    +0.000 C 
ATOM     14  C   UNL     1      33.733  -3.852 -25.585  0.00  0.00    +0.000 C 
ENDBRANCH   4   9
BRANCH   6  15
ATOM     15  O   UNL     1      31.634  -6.075 -21.706  0.00  0.00    -0.471 OA
ATOM     16  C   UNL     1      32.389  -5.543 -20.619  0.00  0.00    +0.252 C 
ENDBRANCH   6  15
ENDBRANCH   1   3
BRANCH   1  17
ATOM     17  C   UNL     1      32.533 -12.108 -21.770  0.00  0.00    -0.087 C 
ATOM     18  C   UNL     1      33.145 -13.061 -22.171  0.00  0.00    -0.076 C 
BRANCH  18  23
ATOM     19  N   UNL     1      35.333 -16.058 -22.191  0.00  0.00    -0.336 NA
ATOM     20  N   UNL     1      34.556 -15.650 -24.435  0.00  0.00    -0.317 NA
ATOM     21  N   UNL     1      33.124 -13.826 -24.900  0.00  0.00    -0.334 N 
ATOM     22  N   UNL     1      35.978 -17.457 -23.962  0.00  0.00    -0.283 N 
ATOM     23  C   UNL     1      33.876 -14.197 -22.642  0.00  0.00    +0.179 C 
ATOM     24  C   UNL     1      34.629 -14.979 -21.791  0.00  0.00    +0.120 C 
ATOM     25  C   UNL     1      33.876 -14.584 -23.966  0.00  0.00    +0.186 C 
ATOM     26  C   UNL     1      34.713 -14.667 -20.331  0.00  0.00    +0.064 C 
ATOM     27  C   UNL     1      35.253 -16.333 -23.507  0.00  0.00    +0.196 C 
ATOM     28  H   UNL     1      33.112 -14.087 -25.849  0.00  0.00    +0.144 HD
ATOM     29  H   UNL     1      32.613 -13.040 -24.598  0.00  0.00    +0.144 HD
ATOM     30  H   UNL     1      36.504 -17.992 -23.326  0.00  0.00    +0.156 HD
ATOM     31  H   UNL     1      35.955 -17.704 -24.915  0.00  0.00    +0.156 HD
ENDBRANCH  18  23
ENDBRANCH   1  17
TORSDOF 5
ENDMDL
MODEL 6
REMARK VINA RESULT:      -9.6      9.782     13.117
REMARK  Name = 25195365
REMARK  5 active torsions:
REMARK  status: ('A' for Active; 'I' for Inactive)
REMARK    1  A    between atoms: C_1  and  C_3
REMARK    2  A    between atoms: C_1  and  C_17
REMARK    3  A    between atoms: C_4  and  C_9
REMARK    4  A    between atoms: C_6  and  O_15
REMARK    5  A    between atoms: C_18  and  C_23
REMARK                            x       y       z     vdW  Elec       q    Type
REMARK                         _______ _______ _______ _____ _____    ______ ____
ROOT
ATOM      1  C   UNL     1      31.820 -10.987 -21.033  0.00  0.00    +0.086 C 
ATOM      2  C   UNL     1      32.029 -10.801 -19.518  0.00  0.00    +0.019 C 
ENDROOT
BRANCH   1   3
ATOM      3  C   UNL     1      32.145  -9.760 -21.816  0.00  0.00    -0.007 C 
ATOM      4  C   UNL     1      32.753  -7.466 -23.282  0.00  0.00    +0.034 C 
ATOM      5  C   UNL     1      31.854  -8.500 -21.292  0.00  0.00    +0.034 C 
ATOM      6  C   UNL     1      32.158  -7.353 -22.025  0.00  0.00    +0.138 C 
ATOM      7  C   UNL     1      32.739  -9.872 -23.073  0.00  0.00    -0.003 C 
ATOM      8  C   UNL     1      33.044  -8.726 -23.805  0.00  0.00    +0.003 C 
BRANCH   4   9
ATOM      9  C   UNL     1      33.076  -6.289 -24.059  0.00  0.00    +0.003 C 
ATOM     10  C   UNL     1      32.053  -5.490 -24.573  0.00  0.00    +0.000 C 
ATOM     11  C   UNL     1      34.409  -5.951 -24.294  0.00  0.00    +0.000 C 
ATOM     12  C   UNL     1      32.364  -4.356 -25.322  0.00  0.00    +0.000 C 
ATOM     13  C   UNL     1      34.719  -4.816 -25.043  0.00  0.00    +0.000 C 
ATOM     14  C   UNL     1      33.697  -4.019 -25.556  0.00  0.00    +0.000 C 
ENDBRANCH   4   9
BRANCH   6  15
ATOM     15  O   UNL     1      31.864  -6.134 -21.489  0.00  0.00    -0.471 OA
ATOM     16  C   UNL     1      32.511  -5.794 -20.264  0.00  0.00    +0.252 C 
ENDBRANCH   6  15
ENDBRANCH   1   3
BRANCH   1  17
ATOM     17  C   UNL     1      32.587 -12.171 -21.498  0.00  0.00    -0.087 C 
ATOM     18  C   UNL     1      33.225 -13.115 -21.880  0.00  0.00    -0.076 C 
BRANCH  18  23
ATOM     19  N   UNL     1      34.840 -15.569 -24.148  0.00  0.00    -0.336 NA
ATOM     20  N   UNL     1      35.363 -16.157 -21.870  0.00  0.00    -0.317 NA
ATOM     21  N   UNL     1      34.538 -14.859 -20.073  0.00  0.00    -0.334 N 
ATOM     22  N   UNL     1      36.176 -17.436 -23.662  0.00  0.00    -0.283 N 
ATOM     23  C   UNL     1      33.990 -14.235 -22.333  0.00  0.00    +0.179 C 
ATOM     24  C   UNL     1      34.129 -14.525 -23.675  0.00  0.00    +0.120 C 
ATOM     25  C   UNL     1      34.636 -15.094 -21.468  0.00  0.00    +0.186 C 
ATOM     26  C   UNL     1      33.479 -13.672 -24.717  0.00  0.00    +0.064 C 
ATOM     27  C   UNL     1      35.423 -16.333 -23.204  0.00  0.00    +0.196 C 
ATOM     28  H   UNL     1      34.991 -15.461 -19.440  0.00  0.00    +0.144 HD
ATOM     29  H   UNL     1      34.016 -14.094 -19.739  0.00  0.00    +0.144 HD
ATOM     30  H   UNL     1      36.254 -17.612 -24.626  0.00  0.00    +0.156 HD
ATOM     31  H   UNL     1      36.625 -18.028 -23.015  0.00  0.00    +0.156 HD
ENDBRANCH  18  23
ENDBRANCH   1  17
TORSDOF 5
ENDMDL
MODEL 7
REMARK VINA RESULT:      -9.5      8.722     12.394
REMARK  Name = 25195365
REMARK  5 active torsions:
REMARK  status: ('A' for Active; 'I' for Inactive)
REMARK    1  A    between atoms: C_1  and  C_3
REMARK    2  A    between atoms: C_1  and  C_17
REMARK    3  A    between atoms: C_4  and  C_9
REMARK    4  A    between atoms: C_6  and  O_15
REMARK    5  A    between atoms: C_18  and  C_23
REMARK                            x       y       z     vdW  Elec       q    Type
REMARK                         _______ _______ _______ _____ _____    ______ ____
ROOT
ATOM      1  C   UNL     1      34.453 -11.867 -25.104  0.00  0.00    +0.086 C 
ATOM      2  C   UNL     1      33.456 -12.142 -26.247  0.00  0.00    +0.019 C 
ENDROOT
BRANCH   1   3
ATOM      3  C   UNL     1      34.061 -10.699 -24.264  0.00  0.00    -0.007 C 
ATOM      4  C   UNL     1      33.326  -8.515 -22.692  0.00  0.00    +0.034 C 
ATOM      5  C   UNL     1      34.864  -9.559 -24.235  0.00  0.00    +0.034 C 
ATOM      6  C   UNL     1      34.497  -8.467 -23.448  0.00  0.00    +0.138 C 
ATOM      7  C   UNL     1      32.890 -10.747 -23.507  0.00  0.00    -0.003 C 
ATOM      8  C   UNL     1      32.522  -9.655 -22.722  0.00  0.00    +0.003 C 
BRANCH   4   9
ATOM      9  C   UNL     1      32.927  -7.394 -21.869  0.00  0.00    +0.003 C 
ATOM     10  C   UNL     1      32.196  -6.344 -22.427  0.00  0.00    +0.000 C 
ATOM     11  C   UNL     1      33.272  -7.362 -20.518  0.00  0.00    +0.000 C 
ATOM     12  C   UNL     1      31.810  -5.264 -21.634  0.00  0.00    +0.000 C 
ATOM     13  C   UNL     1      32.887  -6.280 -19.725  0.00  0.00    +0.000 C 
ATOM     14  C   UNL     1      32.156  -5.232 -20.283  0.00  0.00    +0.000 C 
ENDBRANCH   4   9
BRANCH   6  15
ATOM     15  O   UNL     1      35.300  -7.365 -23.439  0.00  0.00    -0.471 OA
ATOM     16  C   UNL     1      35.186  -6.473 -24.546  0.00  0.00    +0.252 C 
ENDBRANCH   6  15
ENDBRANCH   1   3
BRANCH   1  17
ATOM     17  C   UNL     1      34.639 -13.102 -24.300  0.00  0.00    -0.087 C 
ATOM     18  C   UNL     1      34.812 -14.102 -23.657  0.00  0.00    -0.076 C 
BRANCH  18  23
ATOM     19  N   UNL     1      35.110 -16.394 -20.753  0.00  0.00    -0.336 NA
ATOM     20  N   UNL     1      35.548 -17.637 -22.771  0.00  0.00    -0.317 NA
ATOM     21  N   UNL     1      35.468 -16.573 -24.881  0.00  0.00    -0.334 N 
ATOM     22  N   UNL     1      35.623 -18.682 -20.670  0.00  0.00    -0.283 N 
ATOM     23  C   UNL     1      35.024 -15.292 -22.891  0.00  0.00    +0.179 C 
ATOM     24  C   UNL     1      34.919 -15.298 -21.515  0.00  0.00    +0.120 C 
ATOM     25  C   UNL     1      35.343 -16.502 -23.470  0.00  0.00    +0.186 C 
ATOM     26  C   UNL     1      34.578 -14.050 -20.765  0.00  0.00    +0.064 C 
ATOM     27  C   UNL     1      35.416 -17.513 -21.436  0.00  0.00    +0.196 C 
ATOM     28  H   UNL     1      35.696 -17.428 -25.313  0.00  0.00    +0.144 HD
ATOM     29  H   UNL     1      35.327 -15.766 -25.428  0.00  0.00    +0.144 HD
ATOM     30  H   UNL     1      35.540 -18.650 -19.691  0.00  0.00    +0.156 HD
ATOM     31  H   UNL     1      35.849 -19.530 -21.118  0.00  0.00    +0.156 HD
ENDBRANCH  18  23
ENDBRANCH   1  17
TORSDOF 5
ENDMDL
MODEL 8
REMARK VINA RESULT:      -9.5      5.105      8.993
REMARK  Name = 25195365
REMARK  5 active torsions:
REMARK  status: ('A' for Active; 'I' for Inactive)
REMARK    1  A    between atoms: C_1  and  C_3
REMARK    2  A    between atoms: C_1  and  C_17
REMARK    3  A    between atoms: C_4  and  C_9
REMARK    4  A    between atoms: C_6  and  O_15
REMARK    5  A    between atoms: C_18  and  C_23
REMARK                            x       y       z     vdW  Elec       q    Type
REMARK                         _______ _______ _______ _____ _____    ______ ____
ROOT
ATOM      1  C   UNL     1      36.223 -21.113 -19.822  0.00  0.00    +0.086 C 
ATOM      2  C   UNL     1      37.449 -20.678 -18.997  0.00  0.00    +0.019 C 
ENDROOT
BRANCH   1   3
ATOM      3  C   UNL     1      35.077 -21.546 -18.971  0.00  0.00    -0.007 C 
ATOM      4  C   UNL     1      32.934 -22.357 -17.380  0.00  0.00    +0.034 C 
ATOM      5  C   UNL     1      35.313 -22.235 -17.781  0.00  0.00    +0.034 C 
ATOM      6  C   UNL     1      34.241 -22.641 -16.986  0.00  0.00    +0.138 C 
ATOM      7  C   UNL     1      33.770 -21.264 -19.365  0.00  0.00    -0.003 C 
ATOM      8  C   UNL     1      32.698 -21.668 -18.570  0.00  0.00    +0.003 C 
BRANCH   4   9
ATOM      9  C   UNL     1      31.808 -22.769 -16.571  0.00  0.00    +0.003 C 
ATOM     10  C   UNL     1      30.534 -22.268 -16.840  0.00  0.00    +0.000 C 
ATOM     11  C   UNL     1      31.995 -23.668 -15.521  0.00  0.00    +0.000 C 
ATOM     12  C   UNL     1      29.448 -22.666 -16.060  0.00  0.00    +0.000 C 
ATOM     13  C   UNL     1      30.909 -24.066 -14.740  0.00  0.00    +0.000 C 
ATOM     14  C   UNL     1      29.636 -23.564 -15.011  0.00  0.00    +0.000 C 
ENDBRANCH   4   9
BRANCH   6  15
ATOM     15  O   UNL     1      34.500 -23.311 -15.827  0.00  0.00    -0.471 OA
ATOM     16  C   UNL     1      35.799 -23.147 -15.261  0.00  0.00    +0.252 C 
ENDBRANCH   6  15
ENDBRANCH   1   3
BRANCH   1  17
ATOM     17  C   UNL     1      35.846 -20.025 -20.761  0.00  0.00    -0.087 C 
ATOM     18  C   UNL     1      35.563 -19.144 -21.528  0.00  0.00    -0.076 C 
BRANCH  18  23
ATOM     19  N   UNL     1      34.687 -17.398 -24.684  0.00  0.00    -0.336 NA
ATOM     20  N   UNL     1      34.805 -15.775 -22.906  0.00  0.00    -0.317 NA
ATOM     21  N   UNL     1      35.338 -16.443 -20.700  0.00  0.00    -0.334 N 
ATOM     22  N   UNL     1      34.277 -15.125 -25.098  0.00  0.00    -0.283 N 
ATOM     23  C   UNL     1      35.231 -18.099 -22.446  0.00  0.00    +0.179 C 
ATOM     24  C   UNL     1      35.003 -18.352 -23.783  0.00  0.00    +0.120 C 
ATOM     25  C   UNL     1      35.117 -16.779 -22.061  0.00  0.00    +0.186 C 
ATOM     26  C   UNL     1      35.096 -19.740 -24.330  0.00  0.00    +0.064 C 
ATOM     27  C   UNL     1      34.606 -16.150 -24.184  0.00  0.00    +0.196 C 
ATOM     28  H   UNL     1      35.261 -15.507 -20.406  0.00  0.00    +0.144 HD
ATOM     29  H   UNL     1      35.568 -17.147 -20.051  0.00  0.00    +0.144 HD
ATOM     30  H   UNL     1      34.120 -15.342 -26.045  0.00  0.00    +0.156 HD
ATOM     31  H   UNL     1      34.203 -14.194 -24.787  0.00  0.00    +0.156 HD
ENDBRANCH  18  23
ENDBRANCH   1  17
TORSDOF 5
ENDMDL
MODEL 9
REMARK VINA RESULT:      -9.4      5.981      9.634
REMARK  Name = 25195365
REMARK  5 active torsions:
REMARK  status: ('A' for Active; 'I' for Inactive)
REMARK    1  A    between atoms: C_1  and  C_3
REMARK    2  A    between atoms: C_1  and  C_17
REMARK    3  A    between atoms: C_4  and  C_9
REMARK    4  A    between atoms: C_6  and  O_15
REMARK    5  A    between atoms: C_18  and  C_23
REMARK                            x       y       z     vdW  Elec       q    Type
REMARK                         _______ _______ _______ _____ _____    ______ ____
ROOT
ATOM      1  C   UNL     1      36.288 -18.743 -22.333  0.00  0.00    +0.086 C 
ATOM      2  C   UNL     1      37.805 -18.582 -22.114  0.00  0.00    +0.019 C 
ENDROOT
BRANCH   1   3
ATOM      3  C   UNL     1      35.633 -19.553 -21.266  0.00  0.00    -0.007 C 
ATOM      4  C   UNL     1      34.405 -21.066 -19.270  0.00  0.00    +0.034 C 
ATOM      5  C   UNL     1      36.410 -20.223 -20.322  0.00  0.00    +0.034 C 
ATOM      6  C   UNL     1      35.797 -20.980 -19.324  0.00  0.00    +0.138 C 
ATOM      7  C   UNL     1      34.242 -19.640 -21.213  0.00  0.00    -0.003 C 
ATOM      8  C   UNL     1      33.628 -20.396 -20.215  0.00  0.00    +0.003 C 
BRANCH   4   9
ATOM      9  C   UNL     1      33.749 -21.847 -18.244  0.00  0.00    +0.003 C 
ATOM     10  C   UNL     1      34.493 -22.712 -17.442  0.00  0.00    +0.000 C 
ATOM     11  C   UNL     1      32.371 -21.734 -18.056  0.00  0.00    +0.000 C 
ATOM     12  C   UNL     1      33.861 -23.464 -16.452  0.00  0.00    +0.000 C 
ATOM     13  C   UNL     1      31.738 -22.487 -17.066  0.00  0.00    +0.000 C 
ATOM     14  C   UNL     1      32.483 -23.351 -16.265  0.00  0.00    +0.000 C 
ENDBRANCH   4   9
BRANCH   6  15
ATOM     15  O   UNL     1      36.580 -21.624 -18.412  0.00  0.00    -0.471 OA
ATOM     16  C   UNL     1      37.332 -20.809 -17.515  0.00  0.00    +0.252 C 
ENDBRANCH   6  15
ENDBRANCH   1   3
BRANCH   1  17
ATOM     17  C   UNL     1      35.664 -17.404 -22.488  0.00  0.00    -0.087 C 
ATOM     18  C   UNL     1      35.176 -16.311 -22.601  0.00  0.00    -0.076 C 
BRANCH  18  23
ATOM     19  N   UNL     1      33.833 -12.965 -21.721  0.00  0.00    -0.336 NA
ATOM     20  N   UNL     1      33.703 -13.250 -24.111  0.00  0.00    -0.317 NA
ATOM     21  N   UNL     1      34.454 -15.249 -25.127  0.00  0.00    -0.334 N 
ATOM     22  N   UNL     1      32.962 -11.270 -23.091  0.00  0.00    -0.283 N 
ATOM     23  C   UNL     1      34.603 -15.008 -22.736  0.00  0.00    +0.179 C 
ATOM     24  C   UNL     1      34.371 -14.200 -21.642  0.00  0.00    +0.120 C 
ATOM     25  C   UNL     1      34.246 -14.475 -23.957  0.00  0.00    +0.186 C 
ATOM     26  C   UNL     1      34.713 -14.659 -20.260  0.00  0.00    +0.064 C 
ATOM     27  C   UNL     1      33.527 -12.559 -22.968  0.00  0.00    +0.196 C 
ATOM     28  H   UNL     1      34.205 -14.886 -26.008  0.00  0.00    +0.144 HD
ATOM     29  H   UNL     1      34.847 -16.149 -25.058  0.00  0.00    +0.144 HD
ATOM     30  H   UNL     1      32.811 -10.722 -22.289  0.00  0.00    +0.156 HD
ATOM     31  H   UNL     1      32.720 -10.922 -23.979  0.00  0.00    +0.156 HD
ENDBRANCH  18  23
ENDBRANCH   1  17
TORSDOF 5
ENDMDL
