MODEL 1
REMARK VINA RESULT:     -11.7      0.000      0.000
REMARK  Name = 5288607
REMARK  4 active torsions:
REMARK  status: ('A' for Active; 'I' for Inactive)
REMARK    1  A    between atoms: N_2  and  C_19
REMARK    2  A    between atoms: C_3  and  C_6
REMARK    3  A    between atoms: C_5  and  C_16
REMARK    4  A    between atoms: C_19  and  C_21
REMARK                            x       y       z     vdW  Elec       q    Type
REMARK                         _______ _______ _______ _____ _____    ______ ____
ROOT
ATOM      1  O   UNL     1      33.057 -16.014 -25.816  0.00  0.00    -0.270 OA
ATOM      2  N   UNL     1      34.032 -13.981 -25.249  0.00  0.00    -0.270 N 
ATOM      3  C   UNL     1      33.789 -15.347 -25.083  0.00  0.00    +0.249 C 
ATOM      4  C   UNL     1      33.393 -13.270 -26.349  0.00  0.00    +0.116 C 
ENDROOT
BRANCH   3   6
ATOM      5  C   UNL     1      34.603 -17.340 -23.872  0.00  0.00    +0.006 C 
ATOM      6  C   UNL     1      34.455 -15.995 -23.913  0.00  0.00    +0.058 C 
BRANCH   5  16
ATOM      7  O   UNL     1      36.990 -21.679 -17.972  0.00  0.00    -0.275 OA
ATOM      8  N   UNL     1      37.038 -20.138 -19.674  0.00  0.00    -0.270 N 
ATOM      9  N   UNL     1      37.165 -18.601 -21.468  0.00  0.00    -0.229 NA
ATOM     10  C   UNL     1      34.253 -20.524 -20.033  0.00  0.00    +0.039 C 
ATOM     11  C   UNL     1      35.051 -19.656 -20.959  0.00  0.00    +0.010 C 
ATOM     12  C   UNL     1      35.114 -21.641 -19.463  0.00  0.00    +0.090 C 
ATOM     13  C   UNL     1      36.412 -19.454 -20.733  0.00  0.00    +0.130 C 
ATOM     14  C   UNL     1      34.446 -18.949 -21.999  0.00  0.00    +0.000 C 
ATOM     15  C   UNL     1      36.445 -21.144 -18.938  0.00  0.00    +0.227 C 
ATOM     16  C   UNL     1      35.204 -18.085 -22.780  0.00  0.00    +0.019 C 
ATOM     17  C   UNL     1      36.546 -17.946 -22.474  0.00  0.00    +0.100 C 
ATOM     18  H   UNL     1      37.960 -19.882 -19.443  0.00  0.00    +0.156 HD
ENDBRANCH   5  16
ENDBRANCH   3   6
BRANCH   2  19
ATOM     19  C   UNL     1      34.868 -13.164 -24.373  0.00  0.00    +0.122 C 
BRANCH  19  21
ATOM     20  N   UNL     1      33.049 -10.174 -23.332  0.00  0.00    -0.284 N 
ATOM     21  C   UNL     1      34.037 -12.107 -23.730  0.00  0.00    +0.014 C 
ATOM     22  C   UNL     1      33.284 -12.246 -22.540  0.00  0.00    +0.013 C 
ATOM     23  C   UNL     1      32.669 -11.014 -22.310  0.00  0.00    +0.051 C 
ATOM     24  C   UNL     1      33.881 -10.830 -24.198  0.00  0.00    +0.063 C 
ATOM     25  C   UNL     1      33.057 -13.298 -21.631  0.00  0.00    +0.001 C 
ATOM     26  C   UNL     1      31.835 -10.780 -21.210  0.00  0.00    +0.015 C 
ATOM     27  C   UNL     1      32.637  -8.794 -23.482  0.00  0.00    +0.117 C 
ATOM     28  C   UNL     1      32.227 -13.079 -20.526  0.00  0.00    +0.000 C 
ATOM     29  C   UNL     1      31.627 -11.839 -20.321  0.00  0.00    +0.001 C 
ENDBRANCH  19  21
ENDBRANCH   2  19
TORSDOF 4
ENDMDL
MODEL 2
REMARK VINA RESULT:     -11.4      0.727      1.945
REMARK  Name = 5288607
REMARK  4 active torsions:
REMARK  status: ('A' for Active; 'I' for Inactive)
REMARK    1  A    between atoms: N_2  and  C_19
REMARK    2  A    between atoms: C_3  and  C_6
REMARK    3  A    between atoms: C_5  and  C_16
REMARK    4  A    between atoms: C_19  and  C_21
REMARK                            x       y       z     vdW  Elec       q    Type
REMARK                         _______ _______ _______ _____ _____    ______ ____
ROOT
ATOM      1  O   UNL     1      33.201 -16.145 -25.816  0.00  0.00    -0.270 OA
ATOM      2  N   UNL     1      34.025 -14.070 -25.169  0.00  0.00    -0.270 N 
ATOM      3  C   UNL     1      33.878 -15.454 -25.053  0.00  0.00    +0.249 C 
ATOM      4  C   UNL     1      33.345 -13.368 -26.251  0.00  0.00    +0.116 C 
ENDROOT
BRANCH   3   6
ATOM      5  C   UNL     1      34.583 -17.441 -23.766  0.00  0.00    +0.006 C 
ATOM      6  C   UNL     1      34.580 -16.094 -23.900  0.00  0.00    +0.058 C 
BRANCH   5  16
ATOM      7  O   UNL     1      37.076 -21.738 -17.880  0.00  0.00    -0.275 OA
ATOM      8  N   UNL     1      37.086 -20.192 -19.577  0.00  0.00    -0.270 N 
ATOM      9  N   UNL     1      37.176 -18.648 -21.367  0.00  0.00    -0.229 NA
ATOM     10  C   UNL     1      34.311 -20.643 -19.936  0.00  0.00    +0.039 C 
ATOM     11  C   UNL     1      35.088 -19.754 -20.859  0.00  0.00    +0.010 C 
ATOM     12  C   UNL     1      35.198 -21.741 -19.369  0.00  0.00    +0.090 C 
ATOM     13  C   UNL     1      36.443 -19.520 -20.634  0.00  0.00    +0.130 C 
ATOM     14  C   UNL     1      34.466 -19.058 -21.897  0.00  0.00    +0.000 C 
ATOM     15  C   UNL     1      36.518 -21.214 -18.843  0.00  0.00    +0.227 C 
ATOM     16  C   UNL     1      35.202 -18.175 -22.677  0.00  0.00    +0.019 C 
ATOM     17  C   UNL     1      36.541 -18.005 -22.371  0.00  0.00    +0.100 C 
ATOM     18  H   UNL     1      38.002 -19.915 -19.346  0.00  0.00    +0.156 HD
ENDBRANCH   5  16
ENDBRANCH   3   6
BRANCH   2  19
ATOM     19  C   UNL     1      34.794 -13.226 -24.257  0.00  0.00    +0.122 C 
BRANCH  19  21
ATOM     20  N   UNL     1      32.612 -12.475 -21.428  0.00  0.00    -0.284 N 
ATOM     21  C   UNL     1      33.891 -12.658 -23.217  0.00  0.00    +0.014 C 
ATOM     22  C   UNL     1      33.398 -11.332 -23.176  0.00  0.00    +0.013 C 
ATOM     23  C   UNL     1      32.594 -11.241 -22.038  0.00  0.00    +0.051 C 
ATOM     24  C   UNL     1      33.397 -13.341 -22.140  0.00  0.00    +0.063 C 
ATOM     25  C   UNL     1      33.553 -10.193 -23.990  0.00  0.00    +0.001 C 
ATOM     26  C   UNL     1      31.934 -10.062 -21.672  0.00  0.00    +0.015 C 
ATOM     27  C   UNL     1      31.908 -12.822 -20.212  0.00  0.00    +0.117 C 
ATOM     28  C   UNL     1      32.899  -9.007 -23.637  0.00  0.00    +0.000 C 
ATOM     29  C   UNL     1      32.103  -8.945 -22.496  0.00  0.00    +0.001 C 
ENDBRANCH  19  21
ENDBRANCH   2  19
TORSDOF 4
ENDMDL
MODEL 3
REMARK VINA RESULT:     -10.7      5.730     12.258
REMARK  Name = 5288607
REMARK  4 active torsions:
REMARK  status: ('A' for Active; 'I' for Inactive)
REMARK    1  A    between atoms: N_2  and  C_19
REMARK    2  A    between atoms: C_3  and  C_6
REMARK    3  A    between atoms: C_5  and  C_16
REMARK    4  A    between atoms: C_19  and  C_21
REMARK                            x       y       z     vdW  Elec       q    Type
REMARK                         _______ _______ _______ _____ _____    ______ ____
ROOT
ATOM      1  O   UNL     1      31.082 -24.242 -16.131  0.00  0.00    -0.270 OA
ATOM      2  N   UNL     1      32.451 -23.874 -14.289  0.00  0.00    -0.270 N 
ATOM      3  C   UNL     1      32.021 -23.648 -15.599  0.00  0.00    +0.249 C 
ATOM      4  C   UNL     1      31.766 -24.870 -13.474  0.00  0.00    +0.116 C 
ENDROOT
BRANCH   3   6
ATOM      5  C   UNL     1      33.619 -23.029 -17.378  0.00  0.00    +0.006 C 
ATOM      6  C   UNL     1      32.795 -22.636 -16.378  0.00  0.00    +0.058 C 
BRANCH   5  16
ATOM      7  O   UNL     1      37.236 -18.107 -22.072  0.00  0.00    -0.275 OA
ATOM      8  N   UNL     1      36.912 -19.672 -20.423  0.00  0.00    -0.270 N 
ATOM      9  N   UNL     1      36.624 -21.221 -18.658  0.00  0.00    -0.229 NA
ATOM     10  C   UNL     1      34.185 -19.832 -21.180  0.00  0.00    +0.039 C 
ATOM     11  C   UNL     1      34.712 -20.566 -19.984  0.00  0.00    +0.010 C 
ATOM     12  C   UNL     1      34.973 -18.552 -21.418  0.00  0.00    +0.090 C 
ATOM     13  C   UNL     1      36.067 -20.500 -19.660  0.00  0.00    +0.130 C 
ATOM     14  C   UNL     1      33.898 -21.412 -19.230  0.00  0.00    +0.000 C 
ATOM     15  C   UNL     1      36.471 -18.770 -21.370  0.00  0.00    +0.227 C 
ATOM     16  C   UNL     1      34.443 -22.145 -18.183  0.00  0.00    +0.019 C 
ATOM     17  C   UNL     1      35.800 -22.018 -17.942  0.00  0.00    +0.100 C 
ATOM     18  H   UNL     1      37.882 -19.741 -20.270  0.00  0.00    +0.156 HD
ENDBRANCH   5  16
ENDBRANCH   3   6
BRANCH   2  19
ATOM     19  C   UNL     1      33.582 -23.208 -13.649  0.00  0.00    +0.122 C 
BRANCH  19  21
ATOM     20  N   UNL     1      36.241 -25.535 -14.568  0.00  0.00    -0.284 N 
ATOM     21  C   UNL     1      34.809 -24.039 -13.805  0.00  0.00    +0.014 C 
ATOM     22  C   UNL     1      35.970 -23.973 -12.999  0.00  0.00    +0.013 C 
ATOM     23  C   UNL     1      36.859 -24.925 -13.500  0.00  0.00    +0.051 C 
ATOM     24  C   UNL     1      34.994 -25.003 -14.759  0.00  0.00    +0.063 C 
ATOM     25  C   UNL     1      36.362 -23.196 -11.891  0.00  0.00    +0.001 C 
ATOM     26  C   UNL     1      38.126 -25.141 -12.946  0.00  0.00    +0.015 C 
ATOM     27  C   UNL     1      36.813 -26.588 -15.381  0.00  0.00    +0.117 C 
ATOM     28  C   UNL     1      37.624 -23.401 -11.325  0.00  0.00    +0.000 C 
ATOM     29  C   UNL     1      38.492 -24.359 -11.845  0.00  0.00    +0.001 C 
ENDBRANCH  19  21
ENDBRANCH   2  19
TORSDOF 4
ENDMDL
MODEL 4
REMARK VINA RESULT:     -10.1      6.074     11.519
REMARK  Name = 5288607
REMARK  4 active torsions:
REMARK  status: ('A' for Active; 'I' for Inactive)
REMARK    1  A    between atoms: N_2  and  C_19
REMARK    2  A    between atoms: C_3  and  C_6
REMARK    3  A    between atoms: C_5  and  C_16
REMARK    4  A    between atoms: C_19  and  C_21
REMARK                            x       y       z     vdW  Elec       q    Type
REMARK                         _______ _______ _______ _____ _____    ______ ____
ROOT
ATOM      1  O   UNL     1      37.756 -22.683 -12.746  0.00  0.00    -0.270 OA
ATOM      2  N   UNL     1      36.528 -24.418 -13.686  0.00  0.00    -0.270 N 
ATOM      3  C   UNL     1      37.073 -23.132 -13.668  0.00  0.00    +0.249 C 
ATOM      4  C   UNL     1      36.762 -25.310 -12.557  0.00  0.00    +0.116 C 
ENDROOT
BRANCH   3   6
ATOM      5  C   UNL     1      37.701 -22.048 -15.797  0.00  0.00    +0.006 C 
ATOM      6  C   UNL     1      36.761 -22.270 -14.848  0.00  0.00    +0.058 C 
BRANCH   5  16
ATOM      7  O   UNL     1      36.158 -18.181 -22.278  0.00  0.00    -0.275 OA
ATOM      8  N   UNL     1      37.140 -18.731 -20.277  0.00  0.00    -0.270 N 
ATOM      9  N   UNL     1      38.127 -19.205 -18.179  0.00  0.00    -0.229 NA
ATOM     10  C   UNL     1      35.653 -21.145 -20.267  0.00  0.00    +0.039 C 
ATOM     11  C   UNL     1      36.507 -20.744 -19.102  0.00  0.00    +0.010 C 
ATOM     12  C   UNL     1      35.120 -19.918 -20.993  0.00  0.00    +0.090 C 
ATOM     13  C   UNL     1      37.258 -19.570 -19.152  0.00  0.00    +0.130 C 
ATOM     14  C   UNL     1      36.659 -21.572 -17.989  0.00  0.00    +0.000 C 
ATOM     15  C   UNL     1      36.195 -18.888 -21.270  0.00  0.00    +0.227 C 
ATOM     16  C   UNL     1      37.528 -21.208 -16.969  0.00  0.00    +0.019 C 
ATOM     17  C   UNL     1      38.235 -20.027 -17.112  0.00  0.00    +0.100 C 
ATOM     18  H   UNL     1      37.774 -17.982 -20.359  0.00  0.00    +0.156 HD
ENDBRANCH   5  16
ENDBRANCH   3   6
BRANCH   2  19
ATOM     19  C   UNL     1      35.688 -24.961 -14.752  0.00  0.00    +0.122 C 
BRANCH  19  21
ATOM     20  N   UNL     1      32.335 -23.841 -13.843  0.00  0.00    -0.284 N 
ATOM     21  C   UNL     1      34.314 -24.395 -14.645  0.00  0.00    +0.014 C 
ATOM     22  C   UNL     1      33.624 -23.686 -15.657  0.00  0.00    +0.013 C 
ATOM     23  C   UNL     1      32.377 -23.347 -15.127  0.00  0.00    +0.051 C 
ATOM     24  C   UNL     1      33.508 -24.480 -13.543  0.00  0.00    +0.063 C 
ATOM     25  C   UNL     1      33.930 -23.293 -16.975  0.00  0.00    +0.001 C 
ATOM     26  C   UNL     1      31.417 -22.631 -15.852  0.00  0.00    +0.015 C 
ATOM     27  C   UNL     1      31.218 -23.712 -12.929  0.00  0.00    +0.117 C 
ATOM     28  C   UNL     1      32.980 -22.578 -17.712  0.00  0.00    +0.000 C 
ATOM     29  C   UNL     1      31.744 -22.253 -17.158  0.00  0.00    +0.001 C 
ENDBRANCH  19  21
ENDBRANCH   2  19
TORSDOF 4
ENDMDL
MODEL 5
REMARK VINA RESULT:     -10.1      5.683     11.677
REMARK  Name = 5288607
REMARK  4 active torsions:
REMARK  status: ('A' for Active; 'I' for Inactive)
REMARK    1  A    between atoms: N_2  and  C_19
REMARK    2  A    between atoms: C_3  and  C_6
REMARK    3  A    between atoms: C_5  and  C_16
REMARK    4  A    between atoms: C_19  and  C_21
REMARK                            x       y       z     vdW  Elec       q    Type
REMARK                         _______ _______ _______ _____ _____    ______ ____
ROOT
ATOM      1  O   UNL     1      33.084  -7.140 -19.491  0.00  0.00    -0.270 OA
ATOM      2  N   UNL     1      32.045  -8.980 -20.458  0.00  0.00    -0.270 N 
ATOM      3  C   UNL     1      32.571  -7.686 -20.469  0.00  0.00    +0.249 C 
ATOM      4  C   UNL     1      32.088  -9.759 -19.227  0.00  0.00    +0.116 C 
ENDROOT
BRANCH   3   6
ATOM      5  C   UNL     1      33.553  -6.361 -22.308  0.00  0.00    +0.006 C 
ATOM      6  C   UNL     1      32.460  -6.942 -21.759  0.00  0.00    +0.058 C 
BRANCH   5  16
ATOM      7  O   UNL     1      34.422  -2.622 -28.986  0.00  0.00    -0.275 OA
ATOM      8  N   UNL     1      33.479  -3.321 -27.013  0.00  0.00    -0.270 N 
ATOM      9  N   UNL     1      32.425  -4.071 -25.032  0.00  0.00    -0.229 NA
ATOM     10  C   UNL     1      35.866  -4.735 -26.431  0.00  0.00    +0.039 C 
ATOM     11  C   UNL     1      34.656  -4.840 -25.551  0.00  0.00    +0.010 C 
ATOM     12  C   UNL     1      35.462  -4.474 -27.874  0.00  0.00    +0.090 C 
ATOM     13  C   UNL     1      33.510  -4.102 -25.841  0.00  0.00    +0.130 C 
ATOM     14  C   UNL     1      34.675  -5.587 -24.373  0.00  0.00    +0.000 C 
ATOM     15  C   UNL     1      34.438  -3.365 -28.005  0.00  0.00    +0.227 C 
ATOM     16  C   UNL     1      33.564  -5.589 -23.538  0.00  0.00    +0.019 C 
ATOM     17  C   UNL     1      32.475  -4.818 -23.907  0.00  0.00    +0.100 C 
ATOM     18  H   UNL     1      32.722  -2.703 -27.132  0.00  0.00    +0.156 HD
ENDBRANCH   5  16
ENDBRANCH   3   6
BRANCH   2  19
ATOM     19  C   UNL     1      31.402  -9.635 -21.595  0.00  0.00    +0.122 C 
BRANCH  19  21
ATOM     20  N   UNL     1      33.907 -10.865 -23.949  0.00  0.00    -0.284 N 
ATOM     21  C   UNL     1      32.423 -10.371 -22.392  0.00  0.00    +0.014 C 
ATOM     22  C   UNL     1      32.910 -11.673 -22.125  0.00  0.00    +0.013 C 
ATOM     23  C   UNL     1      33.845 -11.962 -23.121  0.00  0.00    +0.051 C 
ATOM     24  C   UNL     1      33.046  -9.895 -23.514  0.00  0.00    +0.063 C 
ATOM     25  C   UNL     1      32.653 -12.641 -21.134  0.00  0.00    +0.001 C 
ATOM     26  C   UNL     1      34.540 -13.176 -23.175  0.00  0.00    +0.015 C 
ATOM     27  C   UNL     1      34.756 -10.740 -25.116  0.00  0.00    +0.117 C 
ATOM     28  C   UNL     1      33.339 -13.860 -21.176  0.00  0.00    +0.000 C 
ATOM     29  C   UNL     1      34.267 -14.122 -22.181  0.00  0.00    +0.001 C 
ENDBRANCH  19  21
ENDBRANCH   2  19
TORSDOF 4
ENDMDL
MODEL 6
REMARK VINA RESULT:     -10.0      2.161      8.765
REMARK  Name = 5288607
REMARK  4 active torsions:
REMARK  status: ('A' for Active; 'I' for Inactive)
REMARK    1  A    between atoms: N_2  and  C_19
REMARK    2  A    between atoms: C_3  and  C_6
REMARK    3  A    between atoms: C_5  and  C_16
REMARK    4  A    between atoms: C_19  and  C_21
REMARK                            x       y       z     vdW  Elec       q    Type
REMARK                         _______ _______ _______ _____ _____    ______ ____
ROOT
ATOM      1  O   UNL     1      34.729 -17.194 -25.230  0.00  0.00    -0.270 OA
ATOM      2  N   UNL     1      35.758 -17.842 -23.249  0.00  0.00    -0.270 N 
ATOM      3  C   UNL     1      35.091 -16.938 -24.081  0.00  0.00    +0.249 C 
ATOM      4  C   UNL     1      36.061 -19.179 -23.744  0.00  0.00    +0.116 C 
ENDROOT
BRANCH   3   6
ATOM      5  C   UNL     1      33.922 -14.763 -24.069  0.00  0.00    +0.006 C 
ATOM      6  C   UNL     1      34.846 -15.580 -23.511  0.00  0.00    +0.058 C 
BRANCH   5  16
ATOM      7  O   UNL     1      31.874  -7.988 -21.028  0.00  0.00    -0.275 OA
ATOM      8  N   UNL     1      32.802  -9.510 -22.476  0.00  0.00    -0.270 N 
ATOM      9  N   UNL     1      33.848 -11.032 -23.954  0.00  0.00    -0.229 NA
ATOM     10  C   UNL     1      31.611 -11.594 -20.967  0.00  0.00    +0.039 C 
ATOM     11  C   UNL     1      32.545 -11.882 -22.105  0.00  0.00    +0.010 C 
ATOM     12  C   UNL     1      31.961 -10.271 -20.303  0.00  0.00    +0.090 C 
ATOM     13  C   UNL     1      33.084 -10.837 -22.853  0.00  0.00    +0.130 C 
ATOM     14  C   UNL     1      32.817 -13.189 -22.512  0.00  0.00    +0.000 C 
ATOM     15  C   UNL     1      32.170  -9.152 -21.302  0.00  0.00    +0.227 C 
ATOM     16  C   UNL     1      33.617 -13.414 -23.625  0.00  0.00    +0.019 C 
ATOM     17  C   UNL     1      34.100 -12.311 -24.308  0.00  0.00    +0.100 C 
ATOM     18  H   UNL     1      33.074  -8.790 -23.090  0.00  0.00    +0.156 HD
ENDBRANCH   5  16
ENDBRANCH   3   6
BRANCH   2  19
ATOM     19  C   UNL     1      36.227 -17.551 -21.896  0.00  0.00    +0.122 C 
BRANCH  19  21
ATOM     20  N   UNL     1      36.563 -20.471 -19.731  0.00  0.00    -0.284 N 
ATOM     21  C   UNL     1      36.081 -18.763 -21.043  0.00  0.00    +0.014 C 
ATOM     22  C   UNL     1      34.872 -19.440 -20.756  0.00  0.00    +0.013 C 
ATOM     23  C   UNL     1      35.201 -20.513 -19.926  0.00  0.00    +0.051 C 
ATOM     24  C   UNL     1      37.105 -19.411 -20.407  0.00  0.00    +0.063 C 
ATOM     25  C   UNL     1      33.522 -19.250 -21.115  0.00  0.00    +0.001 C 
ATOM     26  C   UNL     1      34.246 -21.410 -19.435  0.00  0.00    +0.015 C 
ATOM     27  C   UNL     1      37.327 -21.404 -18.929  0.00  0.00    +0.117 C 
ATOM     28  C   UNL     1      32.556 -20.140 -20.634  0.00  0.00    +0.000 C 
ATOM     29  C   UNL     1      32.914 -21.202 -19.807  0.00  0.00    +0.001 C 
ENDBRANCH  19  21
ENDBRANCH   2  19
TORSDOF 4
ENDMDL
MODEL 7
REMARK VINA RESULT:      -9.8      4.049     10.419
REMARK  Name = 5288607
REMARK  4 active torsions:
REMARK  status: ('A' for Active; 'I' for Inactive)
REMARK    1  A    between atoms: N_2  and  C_19
REMARK    2  A    between atoms: C_3  and  C_6
REMARK    3  A    between atoms: C_5  and  C_16
REMARK    4  A    between atoms: C_19  and  C_21
REMARK                            x       y       z     vdW  Elec       q    Type
REMARK                         _______ _______ _______ _____ _____    ______ ____
ROOT
ATOM      1  O   UNL     1      30.820 -11.509 -20.652  0.00  0.00    -0.270 OA
ATOM      2  N   UNL     1      32.838 -12.598 -21.031  0.00  0.00    -0.270 N 
ATOM      3  C   UNL     1      31.935 -11.542 -21.175  0.00  0.00    +0.249 C 
ATOM      4  C   UNL     1      32.467 -13.749 -20.217  0.00  0.00    +0.116 C 
ENDROOT
BRANCH   3   6
ATOM      5  C   UNL     1      31.904  -9.164 -21.841  0.00  0.00    +0.006 C 
ATOM      6  C   UNL     1      32.377 -10.415 -22.050  0.00  0.00    +0.058 C 
BRANCH   5  16
ATOM      7  O   UNL     1      34.499  -3.291 -26.096  0.00  0.00    -0.275 OA
ATOM      8  N   UNL     1      33.052  -4.616 -24.904  0.00  0.00    -0.270 N 
ATOM      9  N   UNL     1      31.501  -5.986 -23.759  0.00  0.00    -0.229 NA
ATOM     10  C   UNL     1      35.242  -6.257 -24.167  0.00  0.00    +0.039 C 
ATOM     11  C   UNL     1      33.833  -6.618 -23.804  0.00  0.00    +0.010 C 
ATOM     12  C   UNL     1      35.280  -5.468 -25.466  0.00  0.00    +0.090 C 
ATOM     13  C   UNL     1      32.780  -5.771 -24.146  0.00  0.00    +0.130 C 
ATOM     14  C   UNL     1      33.544  -7.744 -23.031  0.00  0.00    +0.000 C 
ATOM     15  C   UNL     1      34.269  -4.341 -25.496  0.00  0.00    +0.227 C 
ATOM     16  C   UNL     1      32.235  -7.998 -22.640  0.00  0.00    +0.019 C 
ATOM     17  C   UNL     1      31.259  -7.094 -23.023  0.00  0.00    +0.100 C 
ATOM     18  H   UNL     1      32.326  -3.961 -25.019  0.00  0.00    +0.156 HD
ENDBRANCH   5  16
ENDBRANCH   3   6
BRANCH   2  19
ATOM     19  C   UNL     1      34.150 -12.675 -21.669  0.00  0.00    +0.122 C 
BRANCH  19  21
ATOM     20  N   UNL     1      33.630 -14.273 -24.910  0.00  0.00    -0.284 N 
ATOM     21  C   UNL     1      34.072 -13.550 -22.872  0.00  0.00    +0.014 C 
ATOM     22  C   UNL     1      34.570 -14.871 -22.977  0.00  0.00    +0.013 C 
ATOM     23  C   UNL     1      34.279 -15.306 -24.271  0.00  0.00    +0.051 C 
ATOM     24  C   UNL     1      33.500 -13.204 -24.066  0.00  0.00    +0.063 C 
ATOM     25  C   UNL     1      35.242 -15.747 -22.101  0.00  0.00    +0.001 C 
ATOM     26  C   UNL     1      34.629 -16.579 -24.736  0.00  0.00    +0.015 C 
ATOM     27  C   UNL     1      33.149 -14.300 -26.275  0.00  0.00    +0.117 C 
ATOM     28  C   UNL     1      35.597 -17.023 -22.552  0.00  0.00    +0.000 C 
ATOM     29  C   UNL     1      35.295 -17.430 -23.849  0.00  0.00    +0.001 C 
ENDBRANCH  19  21
ENDBRANCH   2  19
TORSDOF 4
ENDMDL
MODEL 8
REMARK VINA RESULT:      -9.7      1.555      2.958
REMARK  Name = 5288607
REMARK  4 active torsions:
REMARK  status: ('A' for Active; 'I' for Inactive)
REMARK    1  A    between atoms: N_2  and  C_19
REMARK    2  A    between atoms: C_3  and  C_6
REMARK    3  A    between atoms: C_5  and  C_16
REMARK    4  A    between atoms: C_19  and  C_21
REMARK                            x       y       z     vdW  Elec       q    Type
REMARK                         _______ _______ _______ _____ _____    ______ ____
ROOT
ATOM      1  O   UNL     1      33.193 -14.550 -26.516  0.00  0.00    -0.270 OA
ATOM      2  N   UNL     1      33.999 -12.860 -25.140  0.00  0.00    -0.270 N 
ATOM      3  C   UNL     1      33.669 -14.184 -25.441  0.00  0.00    +0.249 C 
ATOM      4  C   UNL     1      33.777 -11.823 -26.139  0.00  0.00    +0.116 C 
ENDROOT
BRANCH   3   6
ATOM      5  C   UNL     1      34.648 -16.284 -24.585  0.00  0.00    +0.006 C 
ATOM      6  C   UNL     1      33.896 -15.181 -24.353  0.00  0.00    +0.058 C 
BRANCH   5  16
ATOM      7  O   UNL     1      36.794 -21.396 -19.238  0.00  0.00    -0.275 OA
ATOM      8  N   UNL     1      35.571 -20.414 -20.914  0.00  0.00    -0.270 N 
ATOM      9  N   UNL     1      34.228 -19.406 -22.581  0.00  0.00    -0.229 NA
ATOM     10  C   UNL     1      37.571 -18.417 -21.135  0.00  0.00    +0.039 C 
ATOM     11  C   UNL     1      36.297 -18.343 -21.922  0.00  0.00    +0.010 C 
ATOM     12  C   UNL     1      37.348 -19.136 -19.813  0.00  0.00    +0.090 C 
ATOM     13  C   UNL     1      35.349 -19.360 -21.822  0.00  0.00    +0.130 C 
ATOM     14  C   UNL     1      36.068 -17.322 -22.845  0.00  0.00    +0.000 C 
ATOM     15  C   UNL     1      36.581 -20.432 -19.973  0.00  0.00    +0.227 C 
ATOM     16  C   UNL     1      34.915 -17.335 -23.620  0.00  0.00    +0.019 C 
ATOM     17  C   UNL     1      34.036 -18.392 -23.453  0.00  0.00    +0.100 C 
ATOM     18  H   UNL     1      34.965 -21.189 -20.954  0.00  0.00    +0.156 HD
ENDBRANCH   5  16
ENDBRANCH   3   6
BRANCH   2  19
ATOM     19  C   UNL     1      34.533 -12.397 -23.861  0.00  0.00    +0.122 C 
BRANCH  19  21
ATOM     20  N   UNL     1      32.348  -9.751 -22.614  0.00  0.00    -0.284 N 
ATOM     21  C   UNL     1      33.842 -11.141 -23.454  0.00  0.00    +0.014 C 
ATOM     22  C   UNL     1      34.311  -9.824 -23.672  0.00  0.00    +0.013 C 
ATOM     23  C   UNL     1      33.352  -8.964 -23.133  0.00  0.00    +0.051 C 
ATOM     24  C   UNL     1      32.639 -11.075 -22.806  0.00  0.00    +0.063 C 
ATOM     25  C   UNL     1      35.458  -9.269 -24.273  0.00  0.00    +0.001 C 
ATOM     26  C   UNL     1      33.483  -7.571 -23.165  0.00  0.00    +0.015 C 
ATOM     27  C   UNL     1      31.153  -9.264 -21.958  0.00  0.00    +0.117 C 
ATOM     28  C   UNL     1      35.602  -7.878 -24.313  0.00  0.00    +0.000 C 
ATOM     29  C   UNL     1      34.629  -7.044 -23.767  0.00  0.00    +0.001 C 
ENDBRANCH  19  21
ENDBRANCH   2  19
TORSDOF 4
ENDMDL
MODEL 9
REMARK VINA RESULT:      -9.4      3.186      6.097
REMARK  Name = 5288607
REMARK  4 active torsions:
REMARK  status: ('A' for Active; 'I' for Inactive)
REMARK    1  A    between atoms: N_2  and  C_19
REMARK    2  A    between atoms: C_3  and  C_6
REMARK    3  A    between atoms: C_5  and  C_16
REMARK    4  A    between atoms: C_19  and  C_21
REMARK                            x       y       z     vdW  Elec       q    Type
REMARK                         _______ _______ _______ _____ _____    ______ ____
ROOT
ATOM      1  O   UNL     1      32.288 -10.665 -18.802  0.00  0.00    -0.270 OA
ATOM      2  N   UNL     1      31.721  -9.415 -20.677  0.00  0.00    -0.270 N 
ATOM      3  C   UNL     1      32.078 -10.591 -20.013  0.00  0.00    +0.249 C 
ATOM      4  C   UNL     1      31.583  -8.179 -19.917  0.00  0.00    +0.116 C 
ENDROOT
BRANCH   3   6
ATOM      5  C   UNL     1      33.441 -12.136 -21.374  0.00  0.00    +0.006 C 
ATOM      6  C   UNL     1      32.229 -11.807 -20.867  0.00  0.00    +0.058 C 
BRANCH   5  16
ATOM      7  O   UNL     1      35.259 -18.537 -25.256  0.00  0.00    -0.275 OA
ATOM      8  N   UNL     1      34.420 -16.445 -24.819  0.00  0.00    -0.270 N 
ATOM      9  N   UNL     1      33.464 -14.321 -24.402  0.00  0.00    -0.229 NA
ATOM     10  C   UNL     1      35.562 -16.582 -22.228  0.00  0.00    +0.039 C 
ATOM     11  C   UNL     1      34.688 -15.437 -22.641  0.00  0.00    +0.010 C 
ATOM     12  C   UNL     1      35.165 -17.856 -22.959  0.00  0.00    +0.090 C 
ATOM     13  C   UNL     1      34.172 -15.377 -23.935  0.00  0.00    +0.130 C 
ATOM     14  C   UNL     1      34.451 -14.356 -21.790  0.00  0.00    +0.000 C 
ATOM     15  C   UNL     1      34.991 -17.646 -24.449  0.00  0.00    +0.227 C 
ATOM     16  C   UNL     1      33.708 -13.272 -22.239  0.00  0.00    +0.019 C 
ATOM     17  C   UNL     1      33.244 -13.301 -23.543  0.00  0.00    +0.100 C 
ATOM     18  H   UNL     1      34.169 -16.326 -25.763  0.00  0.00    +0.156 HD
ENDBRANCH   5  16
ENDBRANCH   3   6
BRANCH   2  19
ATOM     19  C   UNL     1      31.500  -9.296 -22.116  0.00  0.00    +0.122 C 
BRANCH  19  21
ATOM     20  N   UNL     1      31.960  -5.802 -23.068  0.00  0.00    -0.284 N 
ATOM     21  C   UNL     1      31.949  -7.955 -22.584  0.00  0.00    +0.014 C 
ATOM     22  C   UNL     1      33.214  -7.645 -23.136  0.00  0.00    +0.013 C 
ATOM     23  C   UNL     1      33.198  -6.281 -23.433  0.00  0.00    +0.051 C 
ATOM     24  C   UNL     1      31.195  -6.813 -22.552  0.00  0.00    +0.063 C 
ATOM     25  C   UNL     1      34.380  -8.385 -23.415  0.00  0.00    +0.001 C 
ATOM     26  C   UNL     1      34.293  -5.617 -23.997  0.00  0.00    +0.015 C 
ATOM     27  C   UNL     1      31.516  -4.430 -23.203  0.00  0.00    +0.117 C 
ATOM     28  C   UNL     1      35.483  -7.735 -23.980  0.00  0.00    +0.000 C 
ATOM     29  C   UNL     1      35.439  -6.373 -24.265  0.00  0.00    +0.001 C 
ENDBRANCH  19  21
ENDBRANCH   2  19
TORSDOF 4
ENDMDL
