MODEL 1
REMARK VINA RESULT:     -12.0      0.000      0.000
REMARK  Name = 9976892
REMARK  4 active torsions:
REMARK  status: ('A' for Active; 'I' for Inactive)
REMARK    1  A    between atoms: N_1  and  C_13
REMARK    2  A    between atoms: C_10  and  O_17
REMARK    3  A    between atoms: O_17  and  C_20
REMARK    4  A    between atoms: C_19  and  N_25
REMARK                            x       y       z     vdW  Elec       q    Type
REMARK                         _______ _______ _______ _____ _____    ______ ____
ROOT
ATOM      1  N   UNL     1      33.440  -6.072 -22.717  0.00  0.00    +0.389 N 
ATOM      2  C   UNL     1      32.446  -7.141 -22.895  0.00  0.00    -0.073 C 
ATOM      3  C   UNL     1      34.550  -6.141 -23.681  0.00  0.00    -0.073 C 
ATOM      4  C   UNL     1      32.959  -8.524 -22.480  0.00  0.00    +0.003 C 
ATOM      5  C   UNL     1      35.502  -7.314 -23.428  0.00  0.00    +0.003 C 
ATOM      6  C   UNL     1      33.799  -9.195 -23.538  0.00  0.00    -0.025 C 
ATOM      7  C   UNL     1      35.002  -8.622 -23.986  0.00  0.00    -0.028 C 
ATOM      8  C   UNL     1      33.380 -10.422 -24.076  0.00  0.00    +0.033 C 
ATOM      9  C   UNL     1      35.760  -9.291 -24.963  0.00  0.00    -0.002 C 
ATOM     10  C   UNL     1      34.139 -11.073 -25.048  0.00  0.00    +0.147 C 
ATOM     11  C   UNL     1      35.329 -10.507 -25.490  0.00  0.00    +0.037 C 
ATOM     12  H   UNL     1      33.843  -6.182 -21.786  0.00  0.00    -0.080 HD
ENDROOT
BRANCH   1  13
ATOM     13  C   UNL     1      32.773  -4.805 -22.875  0.00  0.00    -0.058 C 
ATOM     14  C   UNL     1      33.126  -4.163 -24.233  0.00  0.00    -0.021 C 
ATOM     15  C   UNL     1      31.345  -5.000 -23.424  0.00  0.00    -0.021 C 
ATOM     16  C   UNL     1      31.629  -3.813 -24.369  0.00  0.00    -0.004 C 
ENDBRANCH   1  13
BRANCH  10  17
ATOM     17  O   UNL     1      33.717 -12.261 -25.560  0.00  0.00    -0.436 OA
BRANCH  17  20
ATOM     18  N   UNL     1      33.899 -14.574 -25.537  0.00  0.00    -0.209 NA
ATOM     19  C   UNL     1      34.715 -15.695 -23.555  0.00  0.00    +0.073 C 
ATOM     20  C   UNL     1      34.057 -13.415 -24.873  0.00  0.00    +0.230 C 
ATOM     21  C   UNL     1      34.861 -14.469 -22.915  0.00  0.00    +0.021 C 
ATOM     22  C   UNL     1      34.235 -15.693 -24.855  0.00  0.00    +0.117 C 
ATOM     23  C   UNL     1      34.526 -13.297 -23.582  0.00  0.00    +0.059 C 
BRANCH  19  25
ATOM     24  O   UNL     1      34.335 -18.596 -24.432  0.00  0.00    -0.275 OA
ATOM     25  N   UNL     1      35.050 -16.914 -22.896  0.00  0.00    -0.257 N 
ATOM     26  C   UNL     1      36.174 -18.340 -21.426  0.00  0.00    +0.031 C 
ATOM     27  C   UNL     1      35.606 -16.943 -21.557  0.00  0.00    +0.099 C 
ATOM     28  C   UNL     1      35.253 -19.178 -22.290  0.00  0.00    +0.087 C 
ATOM     29  C   UNL     1      34.828 -18.218 -23.379  0.00  0.00    +0.229 C 
ENDBRANCH  19  25
ENDBRANCH  17  20
ENDBRANCH  10  17
TORSDOF 4
ENDMDL
MODEL 2
REMARK VINA RESULT:     -11.5      8.815     15.396
REMARK  Name = 9976892
REMARK  4 active torsions:
REMARK  status: ('A' for Active; 'I' for Inactive)
REMARK    1  A    between atoms: N_1  and  C_13
REMARK    2  A    between atoms: C_10  and  O_17
REMARK    3  A    between atoms: O_17  and  C_20
REMARK    4  A    between atoms: C_19  and  N_25
REMARK                            x       y       z     vdW  Elec       q    Type
REMARK                         _______ _______ _______ _____ _____    ______ ____
ROOT
ATOM      1  N   UNL     1      37.785 -24.498 -13.587  0.00  0.00    +0.389 N 
ATOM      2  C   UNL     1      37.747 -24.090 -14.999  0.00  0.00    -0.073 C 
ATOM      3  C   UNL     1      36.503 -25.035 -13.102  0.00  0.00    -0.073 C 
ATOM      4  C   UNL     1      36.918 -22.825 -15.245  0.00  0.00    +0.003 C 
ATOM      5  C   UNL     1      35.416 -23.967 -12.950  0.00  0.00    +0.003 C 
ATOM      6  C   UNL     1      35.436 -23.087 -15.333  0.00  0.00    -0.025 C 
ATOM      7  C   UNL     1      34.725 -23.628 -14.247  0.00  0.00    -0.028 C 
ATOM      8  C   UNL     1      34.748 -22.774 -16.516  0.00  0.00    +0.033 C 
ATOM      9  C   UNL     1      33.341 -23.841 -14.369  0.00  0.00    -0.002 C 
ATOM     10  C   UNL     1      33.375 -22.995 -16.625  0.00  0.00    +0.147 C 
ATOM     11  C   UNL     1      32.672 -23.527 -15.551  0.00  0.00    +0.037 C 
ATOM     12  H   UNL     1      37.991 -23.666 -13.034  0.00  0.00    -0.080 HD
ENDROOT
BRANCH   1  13
ATOM     13  C   UNL     1      38.794 -25.515 -13.437  0.00  0.00    -0.058 C 
ATOM     14  C   UNL     1      38.744 -26.517 -14.609  0.00  0.00    -0.021 C 
ATOM     15  C   UNL     1      40.146 -25.036 -14.004  0.00  0.00    -0.021 C 
ATOM     16  C   UNL     1      40.284 -26.433 -14.646  0.00  0.00    -0.004 C 
ENDBRANCH   1  13
BRANCH  10  17
ATOM     17  O   UNL     1      32.725 -22.686 -17.780  0.00  0.00    -0.436 OA
BRANCH  17  20
ATOM     18  N   UNL     1      32.627 -20.947 -19.313  0.00  0.00    -0.209 NA
ATOM     19  C   UNL     1      34.632 -20.256 -20.475  0.00  0.00    +0.073 C 
ATOM     20  C   UNL     1      33.380 -21.870 -18.688  0.00  0.00    +0.230 C 
ATOM     21  C   UNL     1      35.364 -21.227 -19.802  0.00  0.00    +0.021 C 
ATOM     22  C   UNL     1      33.278 -20.157 -20.198  0.00  0.00    +0.117 C 
ATOM     23  C   UNL     1      34.731 -22.058 -18.885  0.00  0.00    +0.059 C 
BRANCH  19  25
ATOM     24  O   UNL     1      37.251 -18.692 -20.316  0.00  0.00    -0.275 OA
ATOM     25  N   UNL     1      35.254 -19.389 -21.421  0.00  0.00    -0.257 N 
ATOM     26  C   UNL     1      35.760 -18.476 -23.512  0.00  0.00    +0.031 C 
ATOM     27  C   UNL     1      34.627 -19.044 -22.683  0.00  0.00    +0.099 C 
ATOM     28  C   UNL     1      36.663 -17.831 -22.479  0.00  0.00    +0.087 C 
ATOM     29  C   UNL     1      36.470 -18.699 -21.256  0.00  0.00    +0.229 C 
ENDBRANCH  19  25
ENDBRANCH  17  20
ENDBRANCH  10  17
TORSDOF 4
ENDMDL
MODEL 3
REMARK VINA RESULT:     -11.3      2.066      3.487
REMARK  Name = 9976892
REMARK  4 active torsions:
REMARK  status: ('A' for Active; 'I' for Inactive)
REMARK    1  A    between atoms: N_1  and  C_13
REMARK    2  A    between atoms: C_10  and  O_17
REMARK    3  A    between atoms: O_17  and  C_20
REMARK    4  A    between atoms: C_19  and  N_25
REMARK                            x       y       z     vdW  Elec       q    Type
REMARK                         _______ _______ _______ _____ _____    ______ ____
ROOT
ATOM      1  N   UNL     1      32.706  -8.126 -22.317  0.00  0.00    +0.389 N 
ATOM      2  C   UNL     1      33.822  -8.595 -23.151  0.00  0.00    -0.073 C 
ATOM      3  C   UNL     1      32.329  -9.077 -21.260  0.00  0.00    -0.073 C 
ATOM      4  C   UNL     1      33.442  -9.754 -24.080  0.00  0.00    +0.003 C 
ATOM      5  C   UNL     1      31.636 -10.335 -21.793  0.00  0.00    +0.003 C 
ATOM      6  C   UNL     1      33.453 -11.098 -23.396  0.00  0.00    -0.025 C 
ATOM      7  C   UNL     1      32.598 -11.372 -22.313  0.00  0.00    -0.028 C 
ATOM      8  C   UNL     1      34.321 -12.100 -23.856  0.00  0.00    +0.033 C 
ATOM      9  C   UNL     1      32.631 -12.645 -21.717  0.00  0.00    -0.002 C 
ATOM     10  C   UNL     1      34.348 -13.357 -23.251  0.00  0.00    +0.147 C 
ATOM     11  C   UNL     1      33.502 -13.629 -22.183  0.00  0.00    +0.037 C 
ATOM     12  H   UNL     1      31.894  -8.016 -22.926  0.00  0.00    -0.080 HD
ENDROOT
BRANCH   1  13
ATOM     13  C   UNL     1      33.095  -6.884 -21.699  0.00  0.00    -0.058 C 
ATOM     14  C   UNL     1      33.399  -5.811 -22.764  0.00  0.00    -0.021 C 
ATOM     15  C   UNL     1      31.857  -6.047 -21.319  0.00  0.00    -0.021 C 
ATOM     16  C   UNL     1      32.607  -4.822 -21.884  0.00  0.00    -0.004 C 
ENDBRANCH   1  13
BRANCH  10  17
ATOM     17  O   UNL     1      35.197 -14.315 -23.710  0.00  0.00    -0.436 OA
BRANCH  17  20
ATOM     18  N   UNL     1      35.354 -15.493 -21.717  0.00  0.00    -0.209 NA
ATOM     19  C   UNL     1      35.230 -17.908 -21.736  0.00  0.00    +0.073 C 
ATOM     20  C   UNL     1      35.207 -15.535 -23.053  0.00  0.00    +0.230 C 
ATOM     21  C   UNL     1      35.081 -17.896 -23.118  0.00  0.00    +0.021 C 
ATOM     22  C   UNL     1      35.362 -16.690 -21.088  0.00  0.00    +0.117 C 
ATOM     23  C   UNL     1      35.068 -16.685 -23.801  0.00  0.00    +0.059 C 
BRANCH  19  25
ATOM     24  O   UNL     1      37.543 -19.398 -20.408  0.00  0.00    -0.275 OA
ATOM     25  N   UNL     1      35.248 -19.134 -21.009  0.00  0.00    -0.257 N 
ATOM     26  C   UNL     1      34.418 -20.893 -19.712  0.00  0.00    +0.031 C 
ATOM     27  C   UNL     1      34.063 -19.956 -20.848  0.00  0.00    +0.099 C 
ATOM     28  C   UNL     1      35.915 -21.076 -19.862  0.00  0.00    +0.087 C 
ATOM     29  C   UNL     1      36.374 -19.754 -20.433  0.00  0.00    +0.229 C 
ENDBRANCH  19  25
ENDBRANCH  17  20
ENDBRANCH  10  17
TORSDOF 4
ENDMDL
MODEL 4
REMARK VINA RESULT:     -11.3      4.306      6.830
REMARK  Name = 9976892
REMARK  4 active torsions:
REMARK  status: ('A' for Active; 'I' for Inactive)
REMARK    1  A    between atoms: N_1  and  C_13
REMARK    2  A    between atoms: C_10  and  O_17
REMARK    3  A    between atoms: O_17  and  C_20
REMARK    4  A    between atoms: C_19  and  N_25
REMARK                            x       y       z     vdW  Elec       q    Type
REMARK                         _______ _______ _______ _____ _____    ______ ____
ROOT
ATOM      1  N   UNL     1      33.010 -12.600 -21.359  0.00  0.00    +0.389 N 
ATOM      2  C   UNL     1      33.498 -13.717 -20.538  0.00  0.00    -0.073 C 
ATOM      3  C   UNL     1      32.716 -12.984 -22.749  0.00  0.00    -0.073 C 
ATOM      4  C   UNL     1      34.916 -14.167 -20.904  0.00  0.00    +0.003 C 
ATOM      5  C   UNL     1      33.971 -13.279 -23.577  0.00  0.00    +0.003 C 
ATOM      6  C   UNL     1      34.964 -15.088 -22.096  0.00  0.00    -0.025 C 
ATOM      7  C   UNL     1      34.516 -14.668 -23.361  0.00  0.00    -0.028 C 
ATOM      8  C   UNL     1      35.478 -16.386 -21.947  0.00  0.00    +0.033 C 
ATOM      9  C   UNL     1      34.595 -15.556 -24.448  0.00  0.00    -0.002 C 
ATOM     10  C   UNL     1      35.546 -17.259 -23.033  0.00  0.00    +0.147 C 
ATOM     11  C   UNL     1      35.105 -16.843 -24.283  0.00  0.00    +0.037 C 
ATOM     12  H   UNL     1      33.750 -11.898 -21.392  0.00  0.00    -0.080 HD
ENDROOT
BRANCH   1  13
ATOM     13  C   UNL     1      31.803 -12.091 -20.760  0.00  0.00    -0.058 C 
ATOM     14  C   UNL     1      32.128 -11.152 -19.580  0.00  0.00    -0.021 C 
ATOM     15  C   UNL     1      31.297 -10.845 -21.514  0.00  0.00    -0.021 C 
ATOM     16  C   UNL     1      31.039 -10.208 -20.132  0.00  0.00    -0.004 C 
ENDBRANCH   1  13
BRANCH  10  17
ATOM     17  O   UNL     1      36.046 -18.513 -22.868  0.00  0.00    -0.436 OA
BRANCH  17  20
ATOM     18  N   UNL     1      36.455 -19.859 -21.023  0.00  0.00    -0.209 NA
ATOM     19  C   UNL     1      34.601 -20.770 -19.766  0.00  0.00    +0.073 C 
ATOM     20  C   UNL     1      35.547 -19.273 -21.823  0.00  0.00    +0.230 C 
ATOM     21  C   UNL     1      33.703 -20.142 -20.622  0.00  0.00    +0.021 C 
ATOM     22  C   UNL     1      35.954 -20.599 -20.007  0.00  0.00    +0.117 C 
ATOM     23  C   UNL     1      34.179 -19.374 -21.679  0.00  0.00    +0.059 C 
BRANCH  19  25
ATOM     24  O   UNL     1      36.151 -22.150 -17.525  0.00  0.00    -0.275 OA
ATOM     25  N   UNL     1      34.143 -21.565 -18.674  0.00  0.00    -0.257 N 
ATOM     26  C   UNL     1      32.655 -22.383 -17.068  0.00  0.00    +0.031 C 
ATOM     27  C   UNL     1      32.746 -21.919 -18.507  0.00  0.00    +0.099 C 
ATOM     28  C   UNL     1      34.019 -22.990 -16.808  0.00  0.00    +0.087 C 
ATOM     29  C   UNL     1      34.939 -22.172 -17.685  0.00  0.00    +0.229 C 
ENDBRANCH  19  25
ENDBRANCH  17  20
ENDBRANCH  10  17
TORSDOF 4
ENDMDL
MODEL 5
REMARK VINA RESULT:     -11.0      6.120     14.092
REMARK  Name = 9976892
REMARK  4 active torsions:
REMARK  status: ('A' for Active; 'I' for Inactive)
REMARK    1  A    between atoms: N_1  and  C_13
REMARK    2  A    between atoms: C_10  and  O_17
REMARK    3  A    between atoms: O_17  and  C_20
REMARK    4  A    between atoms: C_19  and  N_25
REMARK                            x       y       z     vdW  Elec       q    Type
REMARK                         _______ _______ _______ _____ _____    ______ ____
ROOT
ATOM      1  N   UNL     1      36.536 -23.685 -14.171  0.00  0.00    +0.389 N 
ATOM      2  C   UNL     1      37.580 -23.282 -15.124  0.00  0.00    -0.073 C 
ATOM      3  C   UNL     1      35.266 -24.050 -14.819  0.00  0.00    -0.073 C 
ATOM      4  C   UNL     1      37.315 -21.922 -15.778  0.00  0.00    +0.003 C 
ATOM      5  C   UNL     1      34.517 -22.851 -15.407  0.00  0.00    +0.003 C 
ATOM      6  C   UNL     1      36.353 -21.992 -16.938  0.00  0.00    -0.025 C 
ATOM      7  C   UNL     1      35.029 -22.432 -16.762  0.00  0.00    -0.028 C 
ATOM      8  C   UNL     1      36.781 -21.598 -18.215  0.00  0.00    +0.033 C 
ATOM      9  C   UNL     1      34.163 -22.466 -17.868  0.00  0.00    -0.002 C 
ATOM     10  C   UNL     1      35.913 -21.641 -19.306  0.00  0.00    +0.147 C 
ATOM     11  C   UNL     1      34.604 -22.074 -19.132  0.00  0.00    +0.037 C 
ATOM     12  H   UNL     1      36.346 -22.884 -13.568  0.00  0.00    -0.080 HD
ENDROOT
BRANCH   1  13
ATOM     13  C   UNL     1      37.016 -24.823 -13.429  0.00  0.00    -0.058 C 
ATOM     14  C   UNL     1      37.078 -26.077 -14.324  0.00  0.00    -0.021 C 
ATOM     15  C   UNL     1      38.558 -24.855 -13.408  0.00  0.00    -0.021 C 
ATOM     16  C   UNL     1      38.454 -26.369 -13.688  0.00  0.00    -0.004 C 
ENDBRANCH   1  13
BRANCH  10  17
ATOM     17  O   UNL     1      36.346 -21.256 -20.537  0.00  0.00    -0.436 OA
BRANCH  17  20
ATOM     18  N   UNL     1      34.838 -19.734 -21.425  0.00  0.00    -0.209 NA
ATOM     19  C   UNL     1      35.502 -17.429 -21.739  0.00  0.00    +0.073 C 
ATOM     20  C   UNL     1      36.072 -19.960 -20.940  0.00  0.00    +0.230 C 
ATOM     21  C   UNL     1      36.763 -17.717 -21.229  0.00  0.00    +0.021 C 
ATOM     22  C   UNL     1      34.583 -18.464 -21.816  0.00  0.00    +0.117 C 
ATOM     23  C   UNL     1      37.064 -19.010 -20.818  0.00  0.00    +0.059 C 
BRANCH  19  25
ATOM     24  O   UNL     1      35.332 -16.239 -24.547  0.00  0.00    -0.275 OA
ATOM     25  N   UNL     1      35.165 -16.112 -22.169  0.00  0.00    -0.257 N 
ATOM     26  C   UNL     1      34.206 -13.984 -22.072  0.00  0.00    +0.031 C 
ATOM     27  C   UNL     1      34.901 -15.036 -21.234  0.00  0.00    +0.099 C 
ATOM     28  C   UNL     1      34.817 -14.168 -23.446  0.00  0.00    +0.087 C 
ATOM     29  C   UNL     1      35.120 -15.649 -23.498  0.00  0.00    +0.229 C 
ENDBRANCH  19  25
ENDBRANCH  17  20
ENDBRANCH  10  17
TORSDOF 4
ENDMDL
MODEL 6
REMARK VINA RESULT:     -10.6      5.866     13.136
REMARK  Name = 9976892
REMARK  4 active torsions:
REMARK  status: ('A' for Active; 'I' for Inactive)
REMARK    1  A    between atoms: N_1  and  C_13
REMARK    2  A    between atoms: C_10  and  O_17
REMARK    3  A    between atoms: O_17  and  C_20
REMARK    4  A    between atoms: C_19  and  N_25
REMARK                            x       y       z     vdW  Elec       q    Type
REMARK                         _______ _______ _______ _____ _____    ______ ____
ROOT
ATOM      1  N   UNL     1      32.009 -23.019 -15.608  0.00  0.00    +0.389 N 
ATOM      2  C   UNL     1      32.061 -22.737 -17.050  0.00  0.00    -0.073 C 
ATOM      3  C   UNL     1      33.095 -22.378 -14.849  0.00  0.00    -0.073 C 
ATOM      4  C   UNL     1      33.220 -23.438 -17.766  0.00  0.00    +0.003 C 
ATOM      5  C   UNL     1      34.468 -23.006 -15.105  0.00  0.00    +0.003 C 
ATOM      6  C   UNL     1      34.536 -22.716 -17.627  0.00  0.00    -0.025 C 
ATOM      7  C   UNL     1      35.126 -22.511 -16.368  0.00  0.00    -0.028 C 
ATOM      8  C   UNL     1      35.193 -22.250 -18.777  0.00  0.00    +0.033 C 
ATOM      9  C   UNL     1      36.362 -21.846 -16.288  0.00  0.00    -0.002 C 
ATOM     10  C   UNL     1      36.416 -21.587 -18.683  0.00  0.00    +0.147 C 
ATOM     11  C   UNL     1      37.001 -21.386 -17.438  0.00  0.00    +0.037 C 
ATOM     12  H   UNL     1      32.115 -24.028 -15.490  0.00  0.00    -0.080 HD
ENDROOT
BRANCH   1  13
ATOM     13  C   UNL     1      30.749 -22.542 -15.099  0.00  0.00    -0.058 C 
ATOM     14  C   UNL     1      29.713 -22.406 -16.233  0.00  0.00    -0.021 C 
ATOM     15  C   UNL     1      29.895 -23.708 -14.561  0.00  0.00    -0.021 C 
ATOM     16  C   UNL     1      28.693 -23.055 -15.275  0.00  0.00    -0.004 C 
ENDBRANCH   1  13
BRANCH  10  17
ATOM     17  O   UNL     1      37.038 -21.141 -19.809  0.00  0.00    -0.436 OA
BRANCH  17  20
ATOM     18  N   UNL     1      37.476 -18.980 -20.529  0.00  0.00    -0.209 NA
ATOM     19  C   UNL     1      35.698 -17.650 -21.489  0.00  0.00    +0.073 C 
ATOM     20  C   UNL     1      36.574 -19.966 -20.378  0.00  0.00    +0.230 C 
ATOM     21  C   UNL     1      34.807 -18.702 -21.311  0.00  0.00    +0.021 C 
ATOM     22  C   UNL     1      37.011 -17.838 -21.085  0.00  0.00    +0.117 C 
ATOM     23  C   UNL     1      35.247 -19.892 -20.742  0.00  0.00    +0.059 C 
BRANCH  19  25
ATOM     24  O   UNL     1      35.384 -16.837 -24.416  0.00  0.00    -0.275 OA
ATOM     25  N   UNL     1      35.276 -16.418 -22.069  0.00  0.00    -0.257 N 
ATOM     26  C   UNL     1      34.203 -14.347 -22.205  0.00  0.00    +0.031 C 
ATOM     27  C   UNL     1      34.979 -15.247 -21.267  0.00  0.00    +0.099 C 
ATOM     28  C   UNL     1      34.784 -14.673 -23.566  0.00  0.00    +0.087 C 
ATOM     29  C   UNL     1      35.168 -16.130 -23.443  0.00  0.00    +0.229 C 
ENDBRANCH  19  25
ENDBRANCH  17  20
ENDBRANCH  10  17
TORSDOF 4
ENDMDL
MODEL 7
REMARK VINA RESULT:     -10.5      2.193      9.656
REMARK  Name = 9976892
REMARK  4 active torsions:
REMARK  status: ('A' for Active; 'I' for Inactive)
REMARK    1  A    between atoms: N_1  and  C_13
REMARK    2  A    between atoms: C_10  and  O_17
REMARK    3  A    between atoms: O_17  and  C_20
REMARK    4  A    between atoms: C_19  and  N_25
REMARK                            x       y       z     vdW  Elec       q    Type
REMARK                         _______ _______ _______ _____ _____    ______ ____
ROOT
ATOM      1  N   UNL     1      34.621 -16.618 -23.263  0.00  0.00    +0.389 N 
ATOM      2  C   UNL     1      35.271 -15.451 -22.648  0.00  0.00    -0.073 C 
ATOM      3  C   UNL     1      34.395 -16.463 -24.709  0.00  0.00    -0.073 C 
ATOM      4  C   UNL     1      34.358 -14.224 -22.557  0.00  0.00    +0.003 C 
ATOM      5  C   UNL     1      33.298 -15.449 -25.048  0.00  0.00    +0.003 C 
ATOM      6  C   UNL     1      34.278 -13.439 -23.842  0.00  0.00    -0.025 C 
ATOM      7  C   UNL     1      33.776 -14.020 -25.021  0.00  0.00    -0.028 C 
ATOM      8  C   UNL     1      34.698 -12.100 -23.861  0.00  0.00    +0.033 C 
ATOM      9  C   UNL     1      33.706 -13.245 -26.192  0.00  0.00    -0.002 C 
ATOM     10  C   UNL     1      34.627 -11.344 -25.032  0.00  0.00    +0.147 C 
ATOM     11  C   UNL     1      34.130 -11.917 -26.196  0.00  0.00    +0.037 C 
ATOM     12  H   UNL     1      33.705 -16.724 -22.826  0.00  0.00    -0.080 HD
ENDROOT
BRANCH   1  13
ATOM     13  C   UNL     1      35.462 -17.768 -23.051  0.00  0.00    -0.058 C 
ATOM     14  C   UNL     1      35.816 -17.923 -21.558  0.00  0.00    -0.021 C 
ATOM     15  C   UNL     1      34.615 -19.049 -22.906  0.00  0.00    -0.021 C 
ATOM     16  C   UNL     1      35.536 -19.431 -21.728  0.00  0.00    -0.004 C 
ENDBRANCH   1  13
BRANCH  10  17
ATOM     17  O   UNL     1      35.041 -10.048 -25.031  0.00  0.00    -0.436 OA
BRANCH  17  20
ATOM     18  N   UNL     1      33.064  -9.440 -23.981  0.00  0.00    -0.209 NA
ATOM     19  C   UNL     1      32.981  -7.420 -22.654  0.00  0.00    +0.073 C 
ATOM     20  C   UNL     1      34.354  -9.154 -24.227  0.00  0.00    +0.230 C 
ATOM     21  C   UNL     1      34.319  -7.171 -22.938  0.00  0.00    +0.021 C 
ATOM     22  C   UNL     1      32.405  -8.558 -23.194  0.00  0.00    +0.117 C 
ATOM     23  C   UNL     1      35.030  -8.053 -23.744  0.00  0.00    +0.059 C 
BRANCH  19  25
ATOM     24  O   UNL     1      33.149  -6.862 -19.655  0.00  0.00    -0.275 OA
ATOM     25  N   UNL     1      32.226  -6.533 -21.832  0.00  0.00    -0.257 N 
ATOM     26  C   UNL     1      30.892  -4.692 -21.291  0.00  0.00    +0.031 C 
ATOM     27  C   UNL     1      31.119  -5.752 -22.349  0.00  0.00    +0.099 C 
ATOM     28  C   UNL     1      31.286  -5.388 -20.004  0.00  0.00    +0.087 C 
ATOM     29  C   UNL     1      32.371  -6.346 -20.443  0.00  0.00    +0.229 C 
ENDBRANCH  19  25
ENDBRANCH  17  20
ENDBRANCH  10  17
TORSDOF 4
ENDMDL
MODEL 8
REMARK VINA RESULT:     -10.3      1.606      2.022
REMARK  Name = 9976892
REMARK  4 active torsions:
REMARK  status: ('A' for Active; 'I' for Inactive)
REMARK    1  A    between atoms: N_1  and  C_13
REMARK    2  A    between atoms: C_10  and  O_17
REMARK    3  A    between atoms: O_17  and  C_20
REMARK    4  A    between atoms: C_19  and  N_25
REMARK                            x       y       z     vdW  Elec       q    Type
REMARK                         _______ _______ _______ _____ _____    ______ ____
ROOT
ATOM      1  N   UNL     1      33.824  -4.972 -23.754  0.00  0.00    +0.389 N 
ATOM      2  C   UNL     1      32.672  -5.680 -23.179  0.00  0.00    -0.073 C 
ATOM      3  C   UNL     1      34.638  -5.812 -24.647  0.00  0.00    -0.073 C 
ATOM      4  C   UNL     1      33.063  -6.729 -22.132  0.00  0.00    +0.003 C 
ATOM      5  C   UNL     1      35.441  -6.886 -23.907  0.00  0.00    +0.003 C 
ATOM      6  C   UNL     1      33.506  -8.039 -22.733  0.00  0.00    -0.025 C 
ATOM      7  C   UNL     1      34.631  -8.113 -23.573  0.00  0.00    -0.028 C 
ATOM      8  C   UNL     1      32.791  -9.211 -22.438  0.00  0.00    +0.033 C 
ATOM      9  C   UNL     1      35.016  -9.359 -24.098  0.00  0.00    -0.002 C 
ATOM     10  C   UNL     1      33.182 -10.440 -22.969  0.00  0.00    +0.147 C 
ATOM     11  C   UNL     1      34.295 -10.514 -23.798  0.00  0.00    +0.037 C 
ATOM     12  H   UNL     1      34.425  -4.686 -22.980  0.00  0.00    -0.080 HD
ENDROOT
BRANCH   1  13
ATOM     13  C   UNL     1      33.333  -3.845 -24.506  0.00  0.00    -0.058 C 
ATOM     14  C   UNL     1      34.100  -3.694 -25.835  0.00  0.00    -0.021 C 
ATOM     15  C   UNL     1      32.103  -4.241 -25.348  0.00  0.00    -0.021 C 
ATOM     16  C   UNL     1      32.733  -3.438 -26.505  0.00  0.00    -0.004 C 
ENDBRANCH   1  13
BRANCH  10  17
ATOM     17  O   UNL     1      32.476 -11.565 -22.673  0.00  0.00    -0.436 OA
BRANCH  17  20
ATOM     18  N   UNL     1      33.231 -13.357 -23.939  0.00  0.00    -0.209 NA
ATOM     19  C   UNL     1      34.447 -15.154 -22.870  0.00  0.00    +0.073 C 
ATOM     20  C   UNL     1      33.144 -12.777 -22.728  0.00  0.00    +0.230 C 
ATOM     21  C   UNL     1      34.329 -14.512 -21.642  0.00  0.00    +0.021 C 
ATOM     22  C   UNL     1      33.885 -14.541 -23.979  0.00  0.00    +0.117 C 
ATOM     23  C   UNL     1      33.663 -13.295 -21.560  0.00  0.00    +0.059 C 
BRANCH  19  25
ATOM     24  O   UNL     1      35.637 -16.974 -20.725  0.00  0.00    -0.275 OA
ATOM     25  N   UNL     1      35.123 -16.404 -22.985  0.00  0.00    -0.257 N 
ATOM     26  C   UNL     1      35.753 -18.444 -23.935  0.00  0.00    +0.031 C 
ATOM     27  C   UNL     1      35.431 -17.002 -24.270  0.00  0.00    +0.099 C 
ATOM     28  C   UNL     1      36.360 -18.356 -22.550  0.00  0.00    +0.087 C 
ATOM     29  C   UNL     1      35.649 -17.175 -21.930  0.00  0.00    +0.229 C 
ENDBRANCH  19  25
ENDBRANCH  17  20
ENDBRANCH  10  17
TORSDOF 4
ENDMDL
MODEL 9
REMARK VINA RESULT:     -10.2      1.731      2.355
REMARK  Name = 9976892
REMARK  4 active torsions:
REMARK  status: ('A' for Active; 'I' for Inactive)
REMARK    1  A    between atoms: N_1  and  C_13
REMARK    2  A    between atoms: C_10  and  O_17
REMARK    3  A    between atoms: O_17  and  C_20
REMARK    4  A    between atoms: C_19  and  N_25
REMARK                            x       y       z     vdW  Elec       q    Type
REMARK                         _______ _______ _______ _____ _____    ______ ____
ROOT
ATOM      1  N   UNL     1      32.485  -8.368 -22.309  0.00  0.00    +0.389 N 
ATOM      2  C   UNL     1      31.904  -9.715 -22.209  0.00  0.00    -0.073 C 
ATOM      3  C   UNL     1      33.166  -8.122 -23.591  0.00  0.00    -0.073 C 
ATOM      4  C   UNL     1      32.955 -10.822 -22.070  0.00  0.00    +0.003 C 
ATOM      5  C   UNL     1      34.480  -8.894 -23.740  0.00  0.00    +0.003 C 
ATOM      6  C   UNL     1      33.565 -11.237 -23.385  0.00  0.00    -0.025 C 
ATOM      7  C   UNL     1      34.287 -10.325 -24.175  0.00  0.00    -0.028 C 
ATOM      8  C   UNL     1      33.424 -12.563 -23.824  0.00  0.00    +0.033 C 
ATOM      9  C   UNL     1      34.851 -10.760 -25.386  0.00  0.00    -0.002 C 
ATOM     10  C   UNL     1      33.985 -12.981 -25.031  0.00  0.00    +0.147 C 
ATOM     11  C   UNL     1      34.700 -12.080 -25.811  0.00  0.00    +0.037 C 
ATOM     12  H   UNL     1      33.189  -8.283 -21.575  0.00  0.00    -0.080 HD
ENDROOT
BRANCH   1  13
ATOM     13  C   UNL     1      31.424  -7.406 -22.161  0.00  0.00    -0.058 C 
ATOM     14  C   UNL     1      31.768  -6.371 -21.071  0.00  0.00    -0.021 C 
ATOM     15  C   UNL     1      31.572  -6.262 -23.186  0.00  0.00    -0.021 C 
ATOM     16  C   UNL     1      31.234  -5.291 -22.035  0.00  0.00    -0.004 C 
ENDBRANCH   1  13
BRANCH  10  17
ATOM     17  O   UNL     1      33.836 -14.270 -25.441  0.00  0.00    -0.436 OA
BRANCH  17  20
ATOM     18  N   UNL     1      34.245 -16.525 -25.079  0.00  0.00    -0.209 NA
ATOM     19  C   UNL     1      35.153 -17.255 -22.960  0.00  0.00    +0.073 C 
ATOM     20  C   UNL     1      34.283 -15.271 -24.594  0.00  0.00    +0.230 C 
ATOM     21  C   UNL     1      35.172 -15.941 -22.508  0.00  0.00    +0.021 C 
ATOM     22  C   UNL     1      34.684 -17.493 -24.242  0.00  0.00    +0.117 C 
ATOM     23  C   UNL     1      34.728 -14.918 -23.338  0.00  0.00    +0.059 C 
BRANCH  19  25
ATOM     24  O   UNL     1      37.957 -17.974 -21.986  0.00  0.00    -0.275 OA
ATOM     25  N   UNL     1      35.601 -18.325 -22.130  0.00  0.00    -0.257 N 
ATOM     26  C   UNL     1      35.473 -20.014 -20.520  0.00  0.00    +0.031 C 
ATOM     27  C   UNL     1      34.705 -19.359 -21.649  0.00  0.00    +0.099 C 
ATOM     28  C   UNL     1      36.919 -19.876 -20.952  0.00  0.00    +0.087 C 
ATOM     29  C   UNL     1      36.928 -18.584 -21.737  0.00  0.00    +0.229 C 
ENDBRANCH  19  25
ENDBRANCH  17  20
ENDBRANCH  10  17
TORSDOF 4
ENDMDL
