MODEL 1
REMARK VINA RESULT:     -12.2      0.000      0.000
REMARK  Name = 119057475
REMARK  5 active torsions:
REMARK  status: ('A' for Active; 'I' for Inactive)
REMARK    1  A    between atoms: N_1  and  C_22
REMARK    2  A    between atoms: C_2  and  N_8
REMARK    3  A    between atoms: N_8  and  C_11
REMARK    4  A    between atoms: C_11  and  C_16
REMARK    5  A    between atoms: C_22  and  C_26
REMARK                            x       y       z     vdW  Elec       q    Type
REMARK                         _______ _______ _______ _____ _____    ______ ____
ROOT
ATOM      1  N   UNL     1      34.218 -15.405 -23.864  0.00  0.00    +0.387 N 
ATOM      2  C   UNL     1      35.356 -18.088 -23.595  0.00  0.00    -0.066 C 
ATOM      3  C   UNL     1      35.449 -15.617 -23.089  0.00  0.00    -0.079 C 
ATOM      4  C   UNL     1      34.108 -16.374 -24.963  0.00  0.00    -0.079 C 
ATOM      5  C   UNL     1      35.492 -17.029 -22.498  0.00  0.00    -0.044 C 
ATOM      6  C   UNL     1      34.106 -17.811 -24.436  0.00  0.00    -0.044 C 
ATOM      7  H   UNL     1      33.426 -15.548 -23.239  0.00  0.00    -0.080 HD
ENDROOT
BRANCH   2   8
ATOM      8  N   UNL     1      35.304 -19.424 -23.005  0.00  0.00    +0.389 N 
ATOM      9  H   UNL     1      35.822 -20.071 -23.601  0.00  0.00    -0.084 HD
ATOM     10  H   UNL     1      34.329 -19.712 -22.931  0.00  0.00    -0.084 HD
BRANCH   8  11
ATOM     11  C   UNL     1      35.893 -19.425 -21.674  0.00  0.00    -0.032 C 
BRANCH  11  16
ATOM     12  O   UNL     1      35.369 -22.420 -17.887  0.00  0.00    -0.467 OA
ATOM     13  O   UNL     1      32.522 -22.096 -18.154  0.00  0.00    -0.453 OA
ATOM     14  N   UNL     1      33.702 -19.997 -20.776  0.00  0.00    -0.151 NA
ATOM     15  N   UNL     1      32.885 -20.651 -19.906  0.00  0.00    -0.107 NA
ATOM     16  C   UNL     1      35.037 -20.167 -20.683  0.00  0.00    +0.062 C 
ATOM     17  C   UNL     1      35.625 -20.975 -19.731  0.00  0.00    +0.056 C 
ATOM     18  C   UNL     1      34.792 -21.630 -18.840  0.00  0.00    +0.194 C 
ATOM     19  C   UNL     1      33.425 -21.459 -18.969  0.00  0.00    +0.278 C 
ATOM     20  C   UNL     1      34.442 -22.777 -16.857  0.00  0.00    +0.253 C 
ATOM     21  C   UNL     1      33.117 -23.197 -17.463  0.00  0.00    +0.254 C 
ENDBRANCH  11  16
ENDBRANCH   8  11
ENDBRANCH   2   8
BRANCH   1  22
ATOM     22  C   UNL     1      34.167 -14.037 -24.380  0.00  0.00    -0.071 C 
BRANCH  22  26
ATOM     23  F   UNL     1      35.070 -11.134 -25.621  0.00  0.00    -0.204 F 
ATOM     24  O   UNL     1      31.932 -12.849 -19.629  0.00  0.00    -0.270 OA
ATOM     25  N   UNL     1      32.932 -12.209 -21.614  0.00  0.00    -0.255 N 
ATOM     26  C   UNL     1      34.489 -13.028 -23.287  0.00  0.00    +0.025 C 
ATOM     27  C   UNL     1      33.771 -13.368 -21.948  0.00  0.00    +0.101 C 
ATOM     28  C   UNL     1      33.964 -11.652 -23.590  0.00  0.00    +0.018 C 
ATOM     29  C   UNL     1      33.089 -11.244 -22.599  0.00  0.00    +0.052 C 
ATOM     30  C   UNL     1      32.435 -10.029 -22.578  0.00  0.00    +0.014 C 
ATOM     31  C   UNL     1      34.224 -10.794 -24.641  0.00  0.00    +0.137 C 
ATOM     32  C   UNL     1      32.106 -12.030 -20.528  0.00  0.00    +0.253 C 
ATOM     33  C   UNL     1      32.689  -9.160 -23.635  0.00  0.00    +0.004 C 
ATOM     34  C   UNL     1      33.580  -9.544 -24.660  0.00  0.00    +0.029 C 
ATOM     35  C   UNL     1      31.544  -9.779 -21.448  0.00  0.00    +0.006 C 
ATOM     36  C   UNL     1      31.388 -10.709 -20.491  0.00  0.00    +0.058 C 
ENDBRANCH  22  26
ENDBRANCH   1  22
TORSDOF 5
ENDMDL
MODEL 2
REMARK VINA RESULT:     -12.1      3.865     11.377
REMARK  Name = 119057475
REMARK  5 active torsions:
REMARK  status: ('A' for Active; 'I' for Inactive)
REMARK    1  A    between atoms: N_1  and  C_22
REMARK    2  A    between atoms: C_2  and  N_8
REMARK    3  A    between atoms: N_8  and  C_11
REMARK    4  A    between atoms: C_11  and  C_16
REMARK    5  A    between atoms: C_22  and  C_26
REMARK                            x       y       z     vdW  Elec       q    Type
REMARK                         _______ _______ _______ _____ _____    ______ ____
ROOT
ATOM      1  N   UNL     1      34.426 -22.228 -19.302  0.00  0.00    +0.387 N 
ATOM      2  C   UNL     1      35.100 -19.698 -20.610  0.00  0.00    -0.066 C 
ATOM      3  C   UNL     1      35.799 -21.706 -19.251  0.00  0.00    -0.079 C 
ATOM      4  C   UNL     1      33.444 -21.136 -19.362  0.00  0.00    -0.079 C 
ATOM      5  C   UNL     1      36.107 -20.842 -20.477  0.00  0.00    -0.044 C 
ATOM      6  C   UNL     1      33.673 -20.253 -20.592  0.00  0.00    -0.044 C 
ATOM      7  H   UNL     1      34.332 -22.781 -20.154  0.00  0.00    -0.080 HD
ENDROOT
BRANCH   2   8
ATOM      8  N   UNL     1      35.352 -18.942 -21.835  0.00  0.00    +0.389 N 
ATOM      9  H   UNL     1      34.515 -18.963 -22.418  0.00  0.00    -0.084 HD
ATOM     10  H   UNL     1      36.138 -19.367 -22.326  0.00  0.00    -0.084 HD
BRANCH   8  11
ATOM     11  C   UNL     1      35.686 -17.559 -21.529  0.00  0.00    -0.032 C 
BRANCH  11  16
ATOM     12  O   UNL     1      34.414 -13.153 -23.131  0.00  0.00    -0.467 OA
ATOM     13  O   UNL     1      34.078 -14.312 -25.743  0.00  0.00    -0.453 OA
ATOM     14  N   UNL     1      35.131 -17.147 -23.865  0.00  0.00    -0.151 NA
ATOM     15  N   UNL     1      34.741 -16.342 -24.892  0.00  0.00    -0.107 NA
ATOM     16  C   UNL     1      35.259 -16.623 -22.628  0.00  0.00    +0.062 C 
ATOM     17  C   UNL     1      35.021 -15.292 -22.349  0.00  0.00    +0.056 C 
ATOM     18  C   UNL     1      34.637 -14.474 -23.398  0.00  0.00    +0.194 C 
ATOM     19  C   UNL     1      34.489 -15.037 -24.654  0.00  0.00    +0.278 C 
ATOM     20  C   UNL     1      34.336 -12.372 -24.328  0.00  0.00    +0.253 C 
ATOM     21  C   UNL     1      33.474 -13.074 -25.359  0.00  0.00    +0.254 C 
ENDBRANCH  11  16
ENDBRANCH   8  11
ENDBRANCH   2   8
BRANCH   1  22
ATOM     22  C   UNL     1      34.162 -23.091 -18.151  0.00  0.00    -0.071 C 
BRANCH  22  26
ATOM     23  F   UNL     1      31.246 -22.658 -16.705  0.00  0.00    -0.204 F 
ATOM     24  O   UNL     1      37.695 -23.165 -14.090  0.00  0.00    -0.270 OA
ATOM     25  N   UNL     1      35.528 -23.030 -14.888  0.00  0.00    -0.255 N 
ATOM     26  C   UNL     1      34.284 -22.315 -16.847  0.00  0.00    +0.025 C 
ATOM     27  C   UNL     1      35.706 -22.443 -16.223  0.00  0.00    +0.101 C 
ATOM     28  C   UNL     1      33.407 -22.866 -15.756  0.00  0.00    +0.018 C 
ATOM     29  C   UNL     1      34.175 -23.249 -14.671  0.00  0.00    +0.052 C 
ATOM     30  C   UNL     1      33.674 -23.792 -13.505  0.00  0.00    +0.014 C 
ATOM     31  C   UNL     1      32.036 -23.021 -15.688  0.00  0.00    +0.137 C 
ATOM     32  C   UNL     1      36.488 -23.338 -13.950  0.00  0.00    +0.253 C 
ATOM     33  C   UNL     1      32.294 -23.955 -13.430  0.00  0.00    +0.004 C 
ATOM     34  C   UNL     1      31.482 -23.570 -14.518  0.00  0.00    +0.029 C 
ATOM     35  C   UNL     1      34.644 -24.139 -12.470  0.00  0.00    +0.006 C 
ATOM     36  C   UNL     1      35.956 -23.930 -12.673  0.00  0.00    +0.058 C 
ENDBRANCH  22  26
ENDBRANCH   1  22
TORSDOF 5
ENDMDL
MODEL 3
REMARK VINA RESULT:     -12.1      3.903     11.093
REMARK  Name = 119057475
REMARK  5 active torsions:
REMARK  status: ('A' for Active; 'I' for Inactive)
REMARK    1  A    between atoms: N_1  and  C_22
REMARK    2  A    between atoms: C_2  and  N_8
REMARK    3  A    between atoms: N_8  and  C_11
REMARK    4  A    between atoms: C_11  and  C_16
REMARK    5  A    between atoms: C_22  and  C_26
REMARK                            x       y       z     vdW  Elec       q    Type
REMARK                         _______ _______ _______ _____ _____    ______ ____
ROOT
ATOM      1  N   UNL     1      35.057 -21.627 -18.917  0.00  0.00    +0.387 N 
ATOM      2  C   UNL     1      34.890 -19.646 -21.065  0.00  0.00    -0.066 C 
ATOM      3  C   UNL     1      36.244 -20.855 -19.312  0.00  0.00    -0.079 C 
ATOM      4  C   UNL     1      33.826 -20.850 -19.119  0.00  0.00    -0.079 C 
ATOM      5  C   UNL     1      36.168 -20.440 -20.784  0.00  0.00    -0.044 C 
ATOM      6  C   UNL     1      33.668 -20.434 -20.584  0.00  0.00    -0.044 C 
ATOM      7  H   UNL     1      35.007 -22.453 -19.513  0.00  0.00    -0.080 HD
ENDROOT
BRANCH   2   8
ATOM      8  N   UNL     1      34.788 -19.339 -22.490  0.00  0.00    +0.389 N 
ATOM      9  H   UNL     1      33.879 -18.914 -22.675  0.00  0.00    -0.084 HD
ATOM     10  H   UNL     1      34.889 -20.205 -23.019  0.00  0.00    -0.084 HD
BRANCH   8  11
ATOM     11  C   UNL     1      35.837 -18.418 -22.898  0.00  0.00    -0.032 C 
BRANCH  11  16
ATOM     12  O   UNL     1      34.775 -13.685 -22.641  0.00  0.00    -0.467 OA
ATOM     13  O   UNL     1      33.666 -13.894 -25.288  0.00  0.00    -0.453 OA
ATOM     14  N   UNL     1      34.783 -17.231 -24.745  0.00  0.00    -0.151 NA
ATOM     15  N   UNL     1      34.258 -16.116 -25.324  0.00  0.00    -0.107 NA
ATOM     16  C   UNL     1      35.275 -17.154 -23.491  0.00  0.00    +0.062 C 
ATOM     17  C   UNL     1      35.282 -15.984 -22.759  0.00  0.00    +0.056 C 
ATOM     18  C   UNL     1      34.758 -14.849 -23.355  0.00  0.00    +0.194 C 
ATOM     19  C   UNL     1      34.238 -14.957 -24.633  0.00  0.00    +0.278 C 
ATOM     20  C   UNL     1      34.504 -12.548 -23.466  0.00  0.00    +0.253 C 
ATOM     21  C   UNL     1      33.335 -12.834 -24.388  0.00  0.00    +0.254 C 
ENDBRANCH  11  16
ENDBRANCH   8  11
ENDBRANCH   2   8
BRANCH   1  22
ATOM     22  C   UNL     1      35.166 -22.059 -17.525  0.00  0.00    -0.071 C 
BRANCH  22  26
ATOM     23  F   UNL     1      36.381 -24.182 -15.334  0.00  0.00    -0.204 F 
ATOM     24  O   UNL     1      29.835 -22.273 -16.814  0.00  0.00    -0.270 OA
ATOM     25  N   UNL     1      31.982 -22.919 -16.246  0.00  0.00    -0.255 N 
ATOM     26  C   UNL     1      34.188 -23.186 -17.223  0.00  0.00    +0.025 C 
ATOM     27  C   UNL     1      32.714 -22.772 -17.511  0.00  0.00    +0.101 C 
ATOM     28  C   UNL     1      34.140 -23.542 -15.763  0.00  0.00    +0.018 C 
ATOM     29  C   UNL     1      32.858 -23.373 -15.270  0.00  0.00    +0.052 C 
ATOM     30  C   UNL     1      32.478 -23.616 -13.966  0.00  0.00    +0.014 C 
ATOM     31  C   UNL     1      35.127 -23.993 -14.907  0.00  0.00    +0.137 C 
ATOM     32  C   UNL     1      30.652 -22.673 -15.989  0.00  0.00    +0.253 C 
ATOM     33  C   UNL     1      33.467 -24.067 -13.097  0.00  0.00    +0.004 C 
ATOM     34  C   UNL     1      34.784 -24.254 -13.569  0.00  0.00    +0.029 C 
ATOM     35  C   UNL     1      31.078 -23.375 -13.632  0.00  0.00    +0.006 C 
ATOM     36  C   UNL     1      30.223 -22.935 -14.571  0.00  0.00    +0.058 C 
ENDBRANCH  22  26
ENDBRANCH   1  22
TORSDOF 5
ENDMDL
MODEL 4
REMARK VINA RESULT:     -12.0      2.626      4.222
REMARK  Name = 119057475
REMARK  5 active torsions:
REMARK  status: ('A' for Active; 'I' for Inactive)
REMARK    1  A    between atoms: N_1  and  C_22
REMARK    2  A    between atoms: C_2  and  N_8
REMARK    3  A    between atoms: N_8  and  C_11
REMARK    4  A    between atoms: C_11  and  C_16
REMARK    5  A    between atoms: C_22  and  C_26
REMARK                            x       y       z     vdW  Elec       q    Type
REMARK                         _______ _______ _______ _____ _____    ______ ____
ROOT
ATOM      1  N   UNL     1      33.848 -12.191 -23.901  0.00  0.00    +0.387 N 
ATOM      2  C   UNL     1      34.331 -14.972 -24.673  0.00  0.00    -0.066 C 
ATOM      3  C   UNL     1      34.715 -13.051 -23.083  0.00  0.00    -0.079 C 
ATOM      4  C   UNL     1      33.910 -12.570 -25.320  0.00  0.00    -0.079 C 
ATOM      5  C   UNL     1      34.311 -14.523 -23.211  0.00  0.00    -0.044 C 
ATOM      6  C   UNL     1      33.479 -14.025 -25.523  0.00  0.00    -0.044 C 
ATOM      7  H   UNL     1      32.888 -12.321 -23.583  0.00  0.00    -0.080 HD
ENDROOT
BRANCH   2   8
ATOM      8  N   UNL     1      33.853 -16.349 -24.786  0.00  0.00    +0.389 N 
ATOM      9  H   UNL     1      33.296 -16.440 -25.636  0.00  0.00    -0.084 HD
ATOM     10  H   UNL     1      33.288 -16.568 -23.966  0.00  0.00    -0.084 HD
BRANCH   8  11
ATOM     11  C   UNL     1      34.969 -17.280 -24.845  0.00  0.00    -0.032 C 
BRANCH  11  16
ATOM     12  O   UNL     1      37.614 -18.721 -21.034  0.00  0.00    -0.467 OA
ATOM     13  O   UNL     1      35.327 -20.221 -20.143  0.00  0.00    -0.453 OA
ATOM     14  N   UNL     1      34.053 -18.727 -23.113  0.00  0.00    -0.151 NA
ATOM     15  N   UNL     1      34.149 -19.440 -21.957  0.00  0.00    -0.107 NA
ATOM     16  C   UNL     1      35.129 -18.047 -23.560  0.00  0.00    +0.062 C 
ATOM     17  C   UNL     1      36.336 -18.029 -22.890  0.00  0.00    +0.056 C 
ATOM     18  C   UNL     1      36.427 -18.746 -21.709  0.00  0.00    +0.194 C 
ATOM     19  C   UNL     1      35.318 -19.455 -21.282  0.00  0.00    +0.278 C 
ATOM     20  C   UNL     1      37.483 -19.226 -19.702  0.00  0.00    +0.253 C 
ATOM     21  C   UNL     1      36.658 -20.498 -19.701  0.00  0.00    +0.254 C 
ENDBRANCH  11  16
ENDBRANCH   8  11
ENDBRANCH   2   8
BRANCH   1  22
ATOM     22  C   UNL     1      34.213 -10.785 -23.731  0.00  0.00    -0.071 C 
BRANCH  22  26
ATOM     23  F   UNL     1      31.982 -12.320 -21.872  0.00  0.00    -0.204 F 
ATOM     24  O   UNL     1      33.459  -5.553 -22.716  0.00  0.00    -0.270 OA
ATOM     25  N   UNL     1      32.946  -7.780 -22.359  0.00  0.00    -0.255 N 
ATOM     26  C   UNL     1      32.979  -9.925 -23.497  0.00  0.00    +0.025 C 
ATOM     27  C   UNL     1      33.291  -8.406 -23.643  0.00  0.00    +0.101 C 
ATOM     28  C   UNL     1      32.467 -10.010 -22.085  0.00  0.00    +0.018 C 
ATOM     29  C   UNL     1      32.469  -8.758 -21.498  0.00  0.00    +0.052 C 
ATOM     30  C   UNL     1      32.057  -8.493 -20.207  0.00  0.00    +0.014 C 
ATOM     31  C   UNL     1      32.015 -11.089 -21.349  0.00  0.00    +0.137 C 
ATOM     32  C   UNL     1      33.046  -6.456 -21.994  0.00  0.00    +0.253 C 
ATOM     33  C   UNL     1      31.604  -9.575 -19.458  0.00  0.00    +0.004 C 
ATOM     34  C   UNL     1      31.584 -10.865 -20.030  0.00  0.00    +0.029 C 
ATOM     35  C   UNL     1      32.137  -7.105 -19.761  0.00  0.00    +0.006 C 
ATOM     36  C   UNL     1      32.598  -6.153 -20.590  0.00  0.00    +0.058 C 
ENDBRANCH  22  26
ENDBRANCH   1  22
TORSDOF 5
ENDMDL
MODEL 5
REMARK VINA RESULT:     -11.9      4.229     11.700
REMARK  Name = 119057475
REMARK  5 active torsions:
REMARK  status: ('A' for Active; 'I' for Inactive)
REMARK    1  A    between atoms: N_1  and  C_22
REMARK    2  A    between atoms: C_2  and  N_8
REMARK    3  A    between atoms: N_8  and  C_11
REMARK    4  A    between atoms: C_11  and  C_16
REMARK    5  A    between atoms: C_22  and  C_26
REMARK                            x       y       z     vdW  Elec       q    Type
REMARK                         _______ _______ _______ _____ _____    ______ ____
ROOT
ATOM      1  N   UNL     1      35.707 -21.550 -18.039  0.00  0.00    +0.387 N 
ATOM      2  C   UNL     1      35.107 -20.543 -20.720  0.00  0.00    -0.066 C 
ATOM      3  C   UNL     1      34.492 -21.984 -18.742  0.00  0.00    -0.079 C 
ATOM      4  C   UNL     1      36.793 -21.258 -18.985  0.00  0.00    -0.079 C 
ATOM      5  C   UNL     1      34.008 -20.911 -19.721  0.00  0.00    -0.044 C 
ATOM      6  C   UNL     1      36.387 -20.160 -19.971  0.00  0.00    -0.044 C 
ATOM      7  H   UNL     1      35.488 -20.690 -17.536  0.00  0.00    -0.080 HD
ENDROOT
BRANCH   2   8
ATOM      8  N   UNL     1      34.660 -19.453 -21.585  0.00  0.00    +0.389 N 
ATOM      9  H   UNL     1      34.097 -18.802 -21.037  0.00  0.00    -0.084 HD
ATOM     10  H   UNL     1      34.108 -19.845 -22.347  0.00  0.00    -0.084 HD
BRANCH   8  11
ATOM     11  C   UNL     1      35.797 -18.742 -22.149  0.00  0.00    -0.032 C 
BRANCH  11  16
ATOM     12  O   UNL     1      34.658 -14.041 -22.597  0.00  0.00    -0.467 OA
ATOM     13  O   UNL     1      34.156 -14.533 -25.387  0.00  0.00    -0.453 OA
ATOM     14  N   UNL     1      35.160 -17.767 -24.289  0.00  0.00    -0.151 NA
ATOM     15  N   UNL     1      34.763 -16.729 -25.075  0.00  0.00    -0.107 NA
ATOM     16  C   UNL     1      35.365 -17.557 -22.972  0.00  0.00    +0.062 C 
ATOM     17  C   UNL     1      35.201 -16.324 -22.375  0.00  0.00    +0.056 C 
ATOM     18  C   UNL     1      34.809 -15.267 -23.179  0.00  0.00    +0.194 C 
ATOM     19  C   UNL     1      34.581 -15.511 -24.523  0.00  0.00    +0.278 C 
ATOM     20  C   UNL     1      34.563 -12.996 -23.570  0.00  0.00    +0.253 C 
ATOM     21  C   UNL     1      33.626 -13.403 -24.690  0.00  0.00    +0.254 C 
ENDBRANCH  11  16
ENDBRANCH   8  11
ENDBRANCH   2   8
BRANCH   1  22
ATOM     22  C   UNL     1      36.129 -22.563 -17.072  0.00  0.00    -0.071 C 
BRANCH  22  26
ATOM     23  F   UNL     1      32.973 -22.314 -16.201  0.00  0.00    -0.204 F 
ATOM     24  O   UNL     1      38.738 -23.537 -12.465  0.00  0.00    -0.270 OA
ATOM     25  N   UNL     1      36.784 -23.176 -13.650  0.00  0.00    -0.255 N 
ATOM     26  C   UNL     1      35.972 -22.057 -15.645  0.00  0.00    +0.025 C 
ATOM     27  C   UNL     1      37.233 -22.351 -14.779  0.00  0.00    +0.101 C 
ATOM     28  C   UNL     1      34.890 -22.775 -14.887  0.00  0.00    +0.018 C 
ATOM     29  C   UNL     1      35.417 -23.385 -13.762  0.00  0.00    +0.052 C 
ATOM     30  C   UNL     1      34.687 -24.124 -12.853  0.00  0.00    +0.014 C 
ATOM     31  C   UNL     1      33.536 -22.893 -15.133  0.00  0.00    +0.137 C 
ATOM     32  C   UNL     1      37.529 -23.692 -12.613  0.00  0.00    +0.253 C 
ATOM     33  C   UNL     1      33.323 -24.250 -13.096  0.00  0.00    +0.004 C 
ATOM     34  C   UNL     1      32.753 -23.635 -14.232  0.00  0.00    +0.029 C 
ATOM     35  C   UNL     1      35.422 -24.696 -11.728  0.00  0.00    +0.006 C 
ATOM     36  C   UNL     1      36.746 -24.497 -11.613  0.00  0.00    +0.058 C 
ENDBRANCH  22  26
ENDBRANCH   1  22
TORSDOF 5
ENDMDL
MODEL 6
REMARK VINA RESULT:     -11.9      3.516     10.904
REMARK  Name = 119057475
REMARK  5 active torsions:
REMARK  status: ('A' for Active; 'I' for Inactive)
REMARK    1  A    between atoms: N_1  and  C_22
REMARK    2  A    between atoms: C_2  and  N_8
REMARK    3  A    between atoms: N_8  and  C_11
REMARK    4  A    between atoms: C_11  and  C_16
REMARK    5  A    between atoms: C_22  and  C_26
REMARK                            x       y       z     vdW  Elec       q    Type
REMARK                         _______ _______ _______ _____ _____    ______ ____
ROOT
ATOM      1  N   UNL     1      35.980 -20.833 -20.516  0.00  0.00    +0.387 N 
ATOM      2  C   UNL     1      35.784 -18.020 -21.299  0.00  0.00    -0.066 C 
ATOM      3  C   UNL     1      36.993 -19.865 -20.074  0.00  0.00    -0.079 C 
ATOM      4  C   UNL     1      34.666 -20.193 -20.672  0.00  0.00    -0.079 C 
ATOM      5  C   UNL     1      37.129 -18.712 -21.073  0.00  0.00    -0.044 C 
ATOM      6  C   UNL     1      34.723 -19.053 -21.692  0.00  0.00    -0.044 C 
ATOM      7  H   UNL     1      36.265 -21.190 -21.428  0.00  0.00    -0.080 HD
ENDROOT
BRANCH   2   8
ATOM      8  N   UNL     1      35.912 -16.986 -22.324  0.00  0.00    +0.389 N 
ATOM      9  H   UNL     1      36.839 -17.048 -22.746  0.00  0.00    -0.084 HD
ATOM     10  H   UNL     1      35.781 -16.074 -21.887  0.00  0.00    -0.084 HD
BRANCH   8  11
ATOM     11  C   UNL     1      34.904 -17.156 -23.359  0.00  0.00    -0.032 C 
BRANCH  11  16
ATOM     12  O   UNL     1      34.666 -12.304 -23.372  0.00  0.00    -0.467 OA
ATOM     13  O   UNL     1      33.497 -12.469 -25.995  0.00  0.00    -0.453 OA
ATOM     14  N   UNL     1      34.038 -15.912 -25.266  0.00  0.00    -0.151 NA
ATOM     15  N   UNL     1      33.701 -14.758 -25.906  0.00  0.00    -0.107 NA
ATOM     16  C   UNL     1      34.555 -15.850 -24.022  0.00  0.00    +0.062 C 
ATOM     17  C   UNL     1      34.773 -14.659 -23.359  0.00  0.00    +0.056 C 
ATOM     18  C   UNL     1      34.441 -13.487 -24.017  0.00  0.00    +0.194 C 
ATOM     19  C   UNL     1      33.889 -13.575 -25.283  0.00  0.00    +0.278 C 
ATOM     20  C   UNL     1      34.581 -11.186 -24.260  0.00  0.00    +0.253 C 
ATOM     21  C   UNL     1      33.365 -11.319 -25.157  0.00  0.00    +0.254 C 
ENDBRANCH  11  16
ENDBRANCH   8  11
ENDBRANCH   2   8
BRANCH   1  22
ATOM     22  C   UNL     1      35.897 -21.952 -19.579  0.00  0.00    -0.071 C 
BRANCH  22  26
ATOM     23  F   UNL     1      32.735 -21.581 -18.774  0.00  0.00    -0.204 F 
ATOM     24  O   UNL     1      38.359 -23.090 -14.929  0.00  0.00    -0.270 OA
ATOM     25  N   UNL     1      36.449 -22.633 -16.151  0.00  0.00    -0.255 N 
ATOM     26  C   UNL     1      35.729 -21.457 -18.149  0.00  0.00    +0.025 C 
ATOM     27  C   UNL     1      36.957 -21.814 -17.260  0.00  0.00    +0.101 C 
ATOM     28  C   UNL     1      34.601 -22.138 -17.424  0.00  0.00    +0.018 C 
ATOM     29  C   UNL     1      35.077 -22.783 -16.296  0.00  0.00    +0.052 C 
ATOM     30  C   UNL     1      34.297 -23.501 -15.412  0.00  0.00    +0.014 C 
ATOM     31  C   UNL     1      33.249 -22.195 -17.702  0.00  0.00    +0.137 C 
ATOM     32  C   UNL     1      37.148 -23.192 -15.105  0.00  0.00    +0.253 C 
ATOM     33  C   UNL     1      32.934 -23.567 -15.687  0.00  0.00    +0.004 C 
ATOM     34  C   UNL     1      32.417 -22.915 -16.827  0.00  0.00    +0.029 C 
ATOM     35  C   UNL     1      34.982 -24.117 -14.280  0.00  0.00    +0.006 C 
ATOM     36  C   UNL     1      36.310 -23.976 -14.133  0.00  0.00    +0.058 C 
ENDBRANCH  22  26
ENDBRANCH   1  22
TORSDOF 5
ENDMDL
MODEL 7
REMARK VINA RESULT:     -11.7      2.027      2.944
REMARK  Name = 119057475
REMARK  5 active torsions:
REMARK  status: ('A' for Active; 'I' for Inactive)
REMARK    1  A    between atoms: N_1  and  C_22
REMARK    2  A    between atoms: C_2  and  N_8
REMARK    3  A    between atoms: N_8  and  C_11
REMARK    4  A    between atoms: C_11  and  C_16
REMARK    5  A    between atoms: C_22  and  C_26
REMARK                            x       y       z     vdW  Elec       q    Type
REMARK                         _______ _______ _______ _____ _____    ______ ____
ROOT
ATOM      1  N   UNL     1      34.651 -14.813 -22.599  0.00  0.00    +0.387 N 
ATOM      2  C   UNL     1      35.609 -17.577 -22.535  0.00  0.00    -0.066 C 
ATOM      3  C   UNL     1      35.228 -15.372 -21.369  0.00  0.00    -0.079 C 
ATOM      4  C   UNL     1      35.256 -15.419 -23.794  0.00  0.00    -0.079 C 
ATOM      5  C   UNL     1      35.022 -16.888 -21.302  0.00  0.00    -0.044 C 
ATOM      6  C   UNL     1      35.051 -16.936 -23.809  0.00  0.00    -0.044 C 
ATOM      7  H   UNL     1      33.655 -15.032 -22.606  0.00  0.00    -0.080 HD
ENDROOT
BRANCH   2   8
ATOM      8  N   UNL     1      35.322 -19.009 -22.501  0.00  0.00    +0.389 N 
ATOM      9  H   UNL     1      36.117 -19.499 -22.091  0.00  0.00    -0.084 HD
ATOM     10  H   UNL     1      35.159 -19.333 -23.454  0.00  0.00    -0.084 HD
BRANCH   8  11
ATOM     11  C   UNL     1      34.133 -19.279 -21.707  0.00  0.00    -0.032 C 
BRANCH  11  16
ATOM     12  O   UNL     1      32.718 -22.323 -18.196  0.00  0.00    -0.467 OA
ATOM     13  O   UNL     1      35.478 -22.541 -17.412  0.00  0.00    -0.453 OA
ATOM     14  N   UNL     1      35.724 -20.324 -20.187  0.00  0.00    -0.151 NA
ATOM     15  N   UNL     1      36.044 -21.129 -19.137  0.00  0.00    -0.107 NA
ATOM     16  C   UNL     1      34.430 -20.186 -20.543  0.00  0.00    +0.062 C 
ATOM     17  C   UNL     1      33.401 -20.838 -19.894  0.00  0.00    +0.056 C 
ATOM     18  C   UNL     1      33.731 -21.665 -18.834  0.00  0.00    +0.194 C 
ATOM     19  C   UNL     1      35.062 -21.773 -18.471  0.00  0.00    +0.278 C 
ATOM     20  C   UNL     1      33.209 -23.365 -17.347  0.00  0.00    +0.253 C 
ATOM     21  C   UNL     1      34.395 -22.873 -16.541  0.00  0.00    +0.254 C 
ENDBRANCH  11  16
ENDBRANCH   8  11
ENDBRANCH   2   8
BRANCH   1  22
ATOM     22  C   UNL     1      34.811 -13.359 -22.625  0.00  0.00    -0.071 C 
BRANCH  22  26
ATOM     23  F   UNL     1      32.365 -13.976 -20.523  0.00  0.00    -0.204 F 
ATOM     24  O   UNL     1      33.652  -8.519 -24.676  0.00  0.00    -0.270 OA
ATOM     25  N   UNL     1      33.188 -10.278 -23.246  0.00  0.00    -0.255 N 
ATOM     26  C   UNL     1      33.517 -12.674 -23.042  0.00  0.00    +0.025 C 
ATOM     27  C   UNL     1      33.779 -11.429 -23.941  0.00  0.00    +0.101 C 
ATOM     28  C   UNL     1      32.772 -12.077 -21.880  0.00  0.00    +0.018 C 
ATOM     29  C   UNL     1      32.615 -10.714 -22.061  0.00  0.00    +0.052 C 
ATOM     30  C   UNL     1      31.973  -9.872 -21.175  0.00  0.00    +0.014 C 
ATOM     31  C   UNL     1      32.250 -12.661 -20.742  0.00  0.00    +0.137 C 
ATOM     32  C   UNL     1      33.162  -8.958 -23.639  0.00  0.00    +0.253 C 
ATOM     33  C   UNL     1      31.447 -10.452 -20.025  0.00  0.00    +0.004 C 
ATOM     34  C   UNL     1      31.586 -11.841 -19.813  0.00  0.00    +0.029 C 
ATOM     35  C   UNL     1      31.911  -8.459 -21.537  0.00  0.00    +0.006 C 
ATOM     36  C   UNL     1      32.464  -8.029 -22.684  0.00  0.00    +0.058 C 
ENDBRANCH  22  26
ENDBRANCH   1  22
TORSDOF 5
ENDMDL
MODEL 8
REMARK VINA RESULT:     -11.5      2.612      4.089
REMARK  Name = 119057475
REMARK  5 active torsions:
REMARK  status: ('A' for Active; 'I' for Inactive)
REMARK    1  A    between atoms: N_1  and  C_22
REMARK    2  A    between atoms: C_2  and  N_8
REMARK    3  A    between atoms: N_8  and  C_11
REMARK    4  A    between atoms: C_11  and  C_16
REMARK    5  A    between atoms: C_22  and  C_26
REMARK                            x       y       z     vdW  Elec       q    Type
REMARK                         _______ _______ _______ _____ _____    ______ ____
ROOT
ATOM      1  N   UNL     1      33.753 -12.962 -22.426  0.00  0.00    +0.387 N 
ATOM      2  C   UNL     1      34.707 -15.616 -23.207  0.00  0.00    -0.066 C 
ATOM      3  C   UNL     1      33.228 -13.616 -23.632  0.00  0.00    -0.079 C 
ATOM      4  C   UNL     1      34.123 -13.950 -21.403  0.00  0.00    -0.079 C 
ATOM      5  C   UNL     1      34.260 -14.574 -24.234  0.00  0.00    -0.044 C 
ATOM      6  C   UNL     1      35.185 -14.919 -21.930  0.00  0.00    -0.044 C 
ATOM      7  H   UNL     1      34.595 -12.450 -22.688  0.00  0.00    -0.080 HD
ENDROOT
BRANCH   2   8
ATOM      8  N   UNL     1      35.758 -16.461 -23.768  0.00  0.00    +0.389 N 
ATOM      9  H   UNL     1      36.605 -16.355 -23.208  0.00  0.00    -0.084 HD
ATOM     10  H   UNL     1      35.931 -16.174 -24.731  0.00  0.00    -0.084 HD
BRANCH   8  11
ATOM     11  C   UNL     1      35.356 -17.859 -23.763  0.00  0.00    -0.032 C 
BRANCH  11  16
ATOM     12  O   UNL     1      34.679 -20.984 -20.106  0.00  0.00    -0.467 OA
ATOM     13  O   UNL     1      37.338 -20.353 -19.209  0.00  0.00    -0.453 OA
ATOM     14  N   UNL     1      37.093 -18.315 -22.118  0.00  0.00    -0.151 NA
ATOM     15  N   UNL     1      37.572 -18.935 -21.004  0.00  0.00    -0.107 NA
ATOM     16  C   UNL     1      35.836 -18.577 -22.530  0.00  0.00    +0.062 C 
ATOM     17  C   UNL     1      35.001 -19.461 -21.876  0.00  0.00    +0.056 C 
ATOM     18  C   UNL     1      35.495 -20.098 -20.750  0.00  0.00    +0.194 C 
ATOM     19  C   UNL     1      36.779 -19.797 -20.332  0.00  0.00    +0.278 C 
ATOM     20  C   UNL     1      35.399 -21.792 -19.171  0.00  0.00    +0.253 C 
ATOM     21  C   UNL     1      36.349 -20.935 -18.357  0.00  0.00    +0.254 C 
ENDBRANCH  11  16
ENDBRANCH   8  11
ENDBRANCH   2   8
BRANCH   1  22
ATOM     22  C   UNL     1      32.776 -12.013 -21.891  0.00  0.00    -0.071 C 
BRANCH  22  26
ATOM     23  F   UNL     1      30.771  -9.740 -20.630  0.00  0.00    -0.204 F 
ATOM     24  O   UNL     1      35.997  -9.284 -25.232  0.00  0.00    -0.270 OA
ATOM     25  N   UNL     1      34.281  -9.359 -23.681  0.00  0.00    -0.255 N 
ATOM     26  C   UNL     1      32.557 -10.854 -22.852  0.00  0.00    +0.025 C 
ATOM     27  C   UNL     1      33.729 -10.708 -23.868  0.00  0.00    +0.101 C 
ATOM     28  C   UNL     1      32.563  -9.516 -22.164  0.00  0.00    +0.018 C 
ATOM     29  C   UNL     1      33.563  -8.714 -22.685  0.00  0.00    +0.052 C 
ATOM     30  C   UNL     1      33.832  -7.425 -22.272  0.00  0.00    +0.014 C 
ATOM     31  C   UNL     1      31.758  -9.009 -21.162  0.00  0.00    +0.137 C 
ATOM     32  C   UNL     1      35.329  -8.760 -24.344  0.00  0.00    +0.253 C 
ATOM     33  C   UNL     1      33.028  -6.908 -21.260  0.00  0.00    +0.004 C 
ATOM     34  C   UNL     1      31.996  -7.700 -20.711  0.00  0.00    +0.029 C 
ATOM     35  C   UNL     1      34.932  -6.735 -22.939  0.00  0.00    +0.006 C 
ATOM     36  C   UNL     1      35.633  -7.354 -23.904  0.00  0.00    +0.058 C 
ENDBRANCH  22  26
ENDBRANCH   1  22
TORSDOF 5
ENDMDL
MODEL 9
REMARK VINA RESULT:     -11.4      2.729      4.214
REMARK  Name = 119057475
REMARK  5 active torsions:
REMARK  status: ('A' for Active; 'I' for Inactive)
REMARK    1  A    between atoms: N_1  and  C_22
REMARK    2  A    between atoms: C_2  and  N_8
REMARK    3  A    between atoms: N_8  and  C_11
REMARK    4  A    between atoms: C_11  and  C_16
REMARK    5  A    between atoms: C_22  and  C_26
REMARK                            x       y       z     vdW  Elec       q    Type
REMARK                         _______ _______ _______ _____ _____    ______ ____
ROOT
ATOM      1  N   UNL     1      35.723 -17.684 -22.351  0.00  0.00    +0.387 N 
ATOM      2  C   UNL     1      36.114 -20.107 -20.757  0.00  0.00    -0.066 C 
ATOM      3  C   UNL     1      37.074 -18.218 -22.126  0.00  0.00    -0.079 C 
ATOM      4  C   UNL     1      34.724 -18.761 -22.376  0.00  0.00    -0.079 C 
ATOM      5  C   UNL     1      37.152 -18.985 -20.803  0.00  0.00    -0.044 C 
ATOM      6  C   UNL     1      34.722 -19.546 -21.062  0.00  0.00    -0.044 C 
ATOM      7  H   UNL     1      35.498 -17.065 -21.572  0.00  0.00    -0.080 HD
ENDROOT
BRANCH   2   8
ATOM      8  N   UNL     1      36.138 -20.767 -19.453  0.00  0.00    +0.389 N 
ATOM      9  H   UNL     1      35.740 -20.139 -18.754  0.00  0.00    -0.084 HD
ATOM     10  H   UNL     1      37.104 -20.992 -19.218  0.00  0.00    -0.084 HD
BRANCH   8  11
ATOM     11  C   UNL     1      35.365 -21.999 -19.482  0.00  0.00    -0.032 C 
BRANCH  11  16
ATOM     12  O   UNL     1      31.505 -22.839 -16.656  0.00  0.00    -0.467 OA
ATOM     13  O   UNL     1      33.315 -23.088 -14.432  0.00  0.00    -0.453 OA
ATOM     14  N   UNL     1      35.586 -22.458 -17.100  0.00  0.00    -0.151 NA
ATOM     15  N   UNL     1      35.075 -22.729 -15.868  0.00  0.00    -0.107 NA
ATOM     16  C   UNL     1      34.746 -22.305 -18.144  0.00  0.00    +0.062 C 
ATOM     17  C   UNL     1      33.376 -22.421 -18.027  0.00  0.00    +0.056 C 
ATOM     18  C   UNL     1      32.860 -22.709 -16.775  0.00  0.00    +0.194 C 
ATOM     19  C   UNL     1      33.738 -22.839 -15.714  0.00  0.00    +0.278 C 
ATOM     20  C   UNL     1      31.134 -23.437 -15.409  0.00  0.00    +0.253 C 
ATOM     21  C   UNL     1      31.921 -22.814 -14.272  0.00  0.00    +0.254 C 
ENDBRANCH  11  16
ENDBRANCH   8  11
ENDBRANCH   2   8
BRANCH   1  22
ATOM     22  C   UNL     1      35.677 -16.913 -23.592  0.00  0.00    -0.071 C 
BRANCH  22  26
ATOM     23  F   UNL     1      34.790 -15.640 -20.698  0.00  0.00    -0.204 F 
ATOM     24  O   UNL     1      33.679 -13.504 -27.248  0.00  0.00    -0.270 OA
ATOM     25  N   UNL     1      34.047 -14.134 -25.052  0.00  0.00    -0.255 N 
ATOM     26  C   UNL     1      34.383 -16.118 -23.694  0.00  0.00    +0.025 C 
ATOM     27  C   UNL     1      34.131 -15.597 -25.141  0.00  0.00    +0.101 C 
ATOM     28  C   UNL     1      34.418 -14.842 -22.899  0.00  0.00    +0.018 C 
ATOM     29  C   UNL     1      34.216 -13.754 -23.728  0.00  0.00    +0.052 C 
ATOM     30  C   UNL     1      34.188 -12.439 -23.309  0.00  0.00    +0.014 C 
ATOM     31  C   UNL     1      34.600 -14.622 -21.547  0.00  0.00    +0.137 C 
ATOM     32  C   UNL     1      33.835 -13.222 -26.062  0.00  0.00    +0.253 C 
ATOM     33  C   UNL     1      34.374 -12.209 -21.949  0.00  0.00    +0.004 C 
ATOM     34  C   UNL     1      34.578 -13.298 -21.075  0.00  0.00    +0.029 C 
ATOM     35  C   UNL     1      33.965 -11.425 -24.335  0.00  0.00    +0.006 C 
ATOM     36  C   UNL     1      33.801 -11.785 -25.619  0.00  0.00    +0.058 C 
ENDBRANCH  22  26
ENDBRANCH   1  22
TORSDOF 5
ENDMDL
