MODEL 1
REMARK VINA RESULT:     -11.4      0.000      0.000
REMARK  Name = 44177328
REMARK  2 active torsions:
REMARK  status: ('A' for Active; 'I' for Inactive)
REMARK    1  A    between atoms: N_1  and  C_15
REMARK    2  A    between atoms: C_6  and  C_23
REMARK                            x       y       z     vdW  Elec       q    Type
REMARK                         _______ _______ _______ _____ _____    ______ ____
ROOT
ATOM      1  N   UNL     1      32.596 -22.411 -18.033  0.00  0.00    -0.286 N 
ATOM      2  N   UNL     1      33.584 -23.312 -16.079  0.00  0.00    -0.386 NA
ATOM      3  N   UNL     1      31.060 -23.367 -14.855  0.00  0.00    -0.246 NA
ATOM      4  N   UNL     1      30.100 -22.465 -16.828  0.00  0.00    -0.340 N 
ATOM      5  C   UNL     1      32.473 -22.891 -16.715  0.00  0.00    +0.214 C 
ATOM      6  C   UNL     1      33.411 -23.761 -14.820  0.00  0.00    +0.135 C 
ATOM      7  C   UNL     1      31.233 -22.918 -16.115  0.00  0.00    +0.166 C 
ATOM      8  C   UNL     1      32.171 -23.788 -14.220  0.00  0.00    +0.185 C 
ATOM      9  H   UNL     1      31.795 -22.560 -18.585  0.00  0.00    +0.155 HD
ATOM     10  H   UNL     1      29.212 -22.482 -16.404  0.00  0.00    +0.144 HD
ATOM     11  H   UNL     1      30.199 -22.132 -17.749  0.00  0.00    +0.144 HD
ENDROOT
BRANCH   1  15
ATOM     12  N   UNL     1      36.532 -19.730 -20.849  0.00  0.00    -0.312 N 
ATOM     13  C   UNL     1      34.394 -20.180 -20.396  0.00  0.00    +0.016 C 
ATOM     14  C   UNL     1      35.711 -20.491 -20.047  0.00  0.00    +0.048 C 
ATOM     15  C   UNL     1      33.646 -21.759 -18.718  0.00  0.00    +0.050 C 
ATOM     16  C   UNL     1      33.342 -20.828 -19.717  0.00  0.00    +0.016 C 
ATOM     17  C   UNL     1      36.028 -21.418 -19.049  0.00  0.00    +0.016 C 
ATOM     18  C   UNL     1      34.968 -22.049 -18.390  0.00  0.00    +0.016 C 
ATOM     19  C   UNL     1      34.455 -19.209 -21.434  0.00  0.00    +0.017 C 
ATOM     20  C   UNL     1      35.782 -18.953 -21.691  0.00  0.00    +0.062 C 
ATOM     21  H   UNL     1      37.516 -19.745 -20.822  0.00  0.00    +0.152 HD
ENDBRANCH   1  15
BRANCH   6  23
ATOM     22  N   UNL     1      36.908 -25.074 -12.822  0.00  0.00    -0.242 NA
ATOM     23  C   UNL     1      34.601 -24.208 -14.141  0.00  0.00    +0.031 C 
ATOM     24  C   UNL     1      35.644 -24.778 -14.862  0.00  0.00    +0.023 C 
ATOM     25  C   UNL     1      34.710 -24.068 -12.762  0.00  0.00    +0.023 C 
ATOM     26  C   UNL     1      36.766 -25.191 -14.162  0.00  0.00    +0.099 C 
ATOM     27  C   UNL     1      35.874 -24.514 -12.156  0.00  0.00    +0.099 C 
ENDBRANCH   6  23
TORSDOF 2
ENDMDL
MODEL 2
REMARK VINA RESULT:     -10.4      2.058      6.844
REMARK  Name = 44177328
REMARK  2 active torsions:
REMARK  status: ('A' for Active; 'I' for Inactive)
REMARK    1  A    between atoms: N_1  and  C_15
REMARK    2  A    between atoms: C_6  and  C_23
REMARK                            x       y       z     vdW  Elec       q    Type
REMARK                         _______ _______ _______ _____ _____    ______ ____
ROOT
ATOM      1  N   UNL     1      35.397 -24.630 -13.786  0.00  0.00    -0.286 N 
ATOM      2  N   UNL     1      34.996 -23.410 -15.774  0.00  0.00    -0.386 NA
ATOM      3  N   UNL     1      32.246 -23.873 -15.479  0.00  0.00    -0.246 NA
ATOM      4  N   UNL     1      32.679 -25.090 -13.489  0.00  0.00    -0.340 N 
ATOM      5  C   UNL     1      34.499 -24.116 -14.739  0.00  0.00    +0.214 C 
ATOM      6  C   UNL     1      34.095 -22.940 -16.659  0.00  0.00    +0.135 C 
ATOM      7  C   UNL     1      33.148 -24.344 -14.593  0.00  0.00    +0.166 C 
ATOM      8  C   UNL     1      32.744 -23.168 -16.513  0.00  0.00    +0.185 C 
ATOM      9  H   UNL     1      35.014 -24.706 -12.882  0.00  0.00    +0.155 HD
ATOM     10  H   UNL     1      31.714 -25.256 -13.380  0.00  0.00    +0.144 HD
ATOM     11  H   UNL     1      33.317 -25.445 -12.828  0.00  0.00    +0.144 HD
ENDROOT
BRANCH   1  15
ATOM     12  N   UNL     1      40.592 -26.457 -14.319  0.00  0.00    -0.312 N 
ATOM     13  C   UNL     1      38.445 -26.421 -14.925  0.00  0.00    +0.016 C 
ATOM     14  C   UNL     1      39.373 -25.886 -14.028  0.00  0.00    +0.048 C 
ATOM     15  C   UNL     1      36.740 -25.059 -13.872  0.00  0.00    +0.050 C 
ATOM     16  C   UNL     1      37.103 -25.998 -14.844  0.00  0.00    +0.016 C 
ATOM     17  C   UNL     1      39.025 -24.946 -13.053  0.00  0.00    +0.016 C 
ATOM     18  C   UNL     1      37.687 -24.542 -12.991  0.00  0.00    +0.016 C 
ATOM     19  C   UNL     1      39.149 -27.332 -15.761  0.00  0.00    +0.017 C 
ATOM     20  C   UNL     1      40.466 -27.333 -15.364  0.00  0.00    +0.062 C 
ATOM     21  H   UNL     1      41.431 -26.265 -13.842  0.00  0.00    +0.152 HD
ENDBRANCH   1  15
BRANCH   6  23
ATOM     22  N   UNL     1      35.670 -20.733 -19.913  0.00  0.00    -0.242 NA
ATOM     23  C   UNL     1      34.630 -22.189 -17.766  0.00  0.00    +0.031 C 
ATOM     24  C   UNL     1      33.788 -21.740 -18.777  0.00  0.00    +0.023 C 
ATOM     25  C   UNL     1      35.991 -21.910 -17.826  0.00  0.00    +0.023 C 
ATOM     26  C   UNL     1      34.352 -21.022 -19.819  0.00  0.00    +0.099 C 
ATOM     27  C   UNL     1      36.457 -21.185 -18.912  0.00  0.00    +0.099 C 
ENDBRANCH   6  23
TORSDOF 2
ENDMDL
MODEL 3
REMARK VINA RESULT:     -10.2      1.739      6.844
REMARK  Name = 44177328
REMARK  2 active torsions:
REMARK  status: ('A' for Active; 'I' for Inactive)
REMARK    1  A    between atoms: N_1  and  C_15
REMARK    2  A    between atoms: C_6  and  C_23
REMARK                            x       y       z     vdW  Elec       q    Type
REMARK                         _______ _______ _______ _____ _____    ______ ____
ROOT
ATOM      1  N   UNL     1      34.428 -24.286 -14.443  0.00  0.00    -0.286 N 
ATOM      2  N   UNL     1      35.190 -22.949 -16.242  0.00  0.00    -0.386 NA
ATOM      3  N   UNL     1      37.654 -22.637 -14.937  0.00  0.00    -0.246 NA
ATOM      4  N   UNL     1      36.862 -23.983 -13.151  0.00  0.00    -0.340 N 
ATOM      5  C   UNL     1      35.441 -23.516 -15.045  0.00  0.00    +0.214 C 
ATOM      6  C   UNL     1      36.193 -22.223 -16.775  0.00  0.00    +0.135 C 
ATOM      7  C   UNL     1      36.651 -23.365 -14.404  0.00  0.00    +0.166 C 
ATOM      8  C   UNL     1      37.402 -22.070 -16.133  0.00  0.00    +0.185 C 
ATOM      9  H   UNL     1      34.768 -25.014 -13.875  0.00  0.00    +0.155 HD
ATOM     10  H   UNL     1      37.724 -23.877 -12.688  0.00  0.00    +0.144 HD
ATOM     11  H   UNL     1      36.145 -24.518 -12.740  0.00  0.00    +0.144 HD
ENDROOT
BRANCH   1  15
ATOM     12  N   UNL     1      28.926 -23.860 -14.845  0.00  0.00    -0.312 N 
ATOM     13  C   UNL     1      30.995 -23.337 -15.497  0.00  0.00    +0.016 C 
ATOM     14  C   UNL     1      30.258 -24.099 -14.587  0.00  0.00    +0.048 C 
ATOM     15  C   UNL     1      33.018 -24.219 -14.496  0.00  0.00    +0.050 C 
ATOM     16  C   UNL     1      32.402 -23.399 -15.449  0.00  0.00    +0.016 C 
ATOM     17  C   UNL     1      30.860 -24.923 -13.631  0.00  0.00    +0.016 C 
ATOM     18  C   UNL     1      32.257 -24.968 -13.602  0.00  0.00    +0.016 C 
ATOM     19  C   UNL     1      30.061 -22.633 -16.307  0.00  0.00    +0.017 C 
ATOM     20  C   UNL     1      28.797 -22.975 -15.882  0.00  0.00    +0.062 C 
ATOM     21  H   UNL     1      28.176 -24.265 -14.354  0.00  0.00    +0.152 HD
ENDBRANCH   1  15
BRANCH   6  23
ATOM     22  N   UNL     1      35.394 -20.433 -20.530  0.00  0.00    -0.242 NA
ATOM     23  C   UNL     1      35.920 -21.614 -18.051  0.00  0.00    +0.031 C 
ATOM     24  C   UNL     1      34.648 -21.695 -18.607  0.00  0.00    +0.023 C 
ATOM     25  C   UNL     1      36.930 -20.942 -18.733  0.00  0.00    +0.023 C 
ATOM     26  C   UNL     1      34.439 -21.093 -19.837  0.00  0.00    +0.099 C 
ATOM     27  C   UNL     1      36.618 -20.374 -19.958  0.00  0.00    +0.099 C 
ENDBRANCH   6  23
TORSDOF 2
ENDMDL
MODEL 4
REMARK VINA RESULT:     -10.1      1.590      4.034
REMARK  Name = 44177328
REMARK  2 active torsions:
REMARK  status: ('A' for Active; 'I' for Inactive)
REMARK    1  A    between atoms: N_1  and  C_15
REMARK    2  A    between atoms: C_6  and  C_23
REMARK                            x       y       z     vdW  Elec       q    Type
REMARK                         _______ _______ _______ _____ _____    ______ ____
ROOT
ATOM      1  N   UNL     1      36.863 -22.071 -16.810  0.00  0.00    -0.286 N 
ATOM      2  N   UNL     1      35.014 -22.910 -15.593  0.00  0.00    -0.386 NA
ATOM      3  N   UNL     1      36.731 -24.659 -14.230  0.00  0.00    -0.246 NA
ATOM      4  N   UNL     1      38.565 -23.797 -15.464  0.00  0.00    -0.340 N 
ATOM      5  C   UNL     1      36.339 -22.944 -15.838  0.00  0.00    +0.214 C 
ATOM      6  C   UNL     1      34.562 -23.765 -14.654  0.00  0.00    +0.135 C 
ATOM      7  C   UNL     1      37.183 -23.802 -15.169  0.00  0.00    +0.166 C 
ATOM      8  C   UNL     1      35.407 -24.624 -13.985  0.00  0.00    +0.185 C 
ATOM      9  H   UNL     1      37.793 -21.797 -16.635  0.00  0.00    +0.155 HD
ATOM     10  H   UNL     1      39.173 -24.409 -14.989  0.00  0.00    +0.144 HD
ATOM     11  H   UNL     1      38.920 -23.182 -16.146  0.00  0.00    +0.144 HD
ENDROOT
BRANCH   1  15
ATOM     12  N   UNL     1      34.940 -19.753 -21.450  0.00  0.00    -0.312 N 
ATOM     13  C   UNL     1      36.529 -20.059 -19.914  0.00  0.00    +0.016 C 
ATOM     14  C   UNL     1      35.233 -20.426 -20.285  0.00  0.00    +0.048 C 
ATOM     15  C   UNL     1      36.317 -21.511 -17.986  0.00  0.00    +0.050 C 
ATOM     16  C   UNL     1      37.080 -20.614 -18.741  0.00  0.00    +0.016 C 
ATOM     17  C   UNL     1      34.460 -21.323 -19.541  0.00  0.00    +0.016 C 
ATOM     18  C   UNL     1      35.027 -21.859 -18.381  0.00  0.00    +0.016 C 
ATOM     19  C   UNL     1      37.002 -19.143 -20.894  0.00  0.00    +0.017 C 
ATOM     20  C   UNL     1      36.003 -18.974 -21.826  0.00  0.00    +0.062 C 
ATOM     21  H   UNL     1      34.090 -19.820 -21.940  0.00  0.00    +0.152 HD
ENDBRANCH   1  15
BRANCH   6  23
ATOM     22  N   UNL     1      30.396 -23.656 -13.899  0.00  0.00    -0.242 NA
ATOM     23  C   UNL     1      33.146 -23.728 -14.397  0.00  0.00    +0.031 C 
ATOM     24  C   UNL     1      32.561 -24.680 -13.569  0.00  0.00    +0.023 C 
ATOM     25  C   UNL     1      32.357 -22.740 -14.976  0.00  0.00    +0.023 C 
ATOM     26  C   UNL     1      31.195 -24.601 -13.353  0.00  0.00    +0.099 C 
ATOM     27  C   UNL     1      30.999 -22.748 -14.698  0.00  0.00    +0.099 C 
ENDBRANCH   6  23
TORSDOF 2
ENDMDL
MODEL 5
REMARK VINA RESULT:     -10.1      2.293      4.273
REMARK  Name = 44177328
REMARK  2 active torsions:
REMARK  status: ('A' for Active; 'I' for Inactive)
REMARK    1  A    between atoms: N_1  and  C_15
REMARK    2  A    between atoms: C_6  and  C_23
REMARK                            x       y       z     vdW  Elec       q    Type
REMARK                         _______ _______ _______ _____ _____    ______ ____
ROOT
ATOM      1  N   UNL     1      34.466 -23.678 -14.902  0.00  0.00    -0.286 N 
ATOM      2  N   UNL     1      36.498 -24.826 -14.506  0.00  0.00    -0.386 NA
ATOM      3  N   UNL     1      35.986 -24.736 -11.749  0.00  0.00    -0.246 NA
ATOM      4  N   UNL     1      33.955 -23.588 -12.178  0.00  0.00    -0.340 N 
ATOM      5  C   UNL     1      35.388 -24.249 -14.004  0.00  0.00    +0.214 C 
ATOM      6  C   UNL     1      37.348 -25.357 -13.605  0.00  0.00    +0.135 C 
ATOM      7  C   UNL     1      35.135 -24.205 -12.651  0.00  0.00    +0.166 C 
ATOM      8  C   UNL     1      37.096 -25.313 -12.251  0.00  0.00    +0.185 C 
ATOM      9  H   UNL     1      33.535 -23.703 -14.582  0.00  0.00    +0.155 HD
ATOM     10  H   UNL     1      33.770 -23.554 -11.212  0.00  0.00    +0.144 HD
ATOM     11  H   UNL     1      33.318 -23.192 -12.816  0.00  0.00    +0.144 HD
ENDROOT
BRANCH   1  15
ATOM     12  N   UNL     1      35.284 -21.247 -19.804  0.00  0.00    -0.312 N 
ATOM     13  C   UNL     1      35.943 -21.799 -17.745  0.00  0.00    +0.016 C 
ATOM     14  C   UNL     1      34.893 -21.907 -18.660  0.00  0.00    +0.048 C 
ATOM     15  C   UNL     1      34.615 -23.076 -16.171  0.00  0.00    +0.050 C 
ATOM     16  C   UNL     1      35.800 -22.396 -16.476  0.00  0.00    +0.016 C 
ATOM     17  C   UNL     1      33.704 -22.585 -18.369  0.00  0.00    +0.016 C 
ATOM     18  C   UNL     1      33.585 -23.168 -17.104  0.00  0.00    +0.016 C 
ATOM     19  C   UNL     1      36.975 -21.052 -18.379  0.00  0.00    +0.017 C 
ATOM     20  C   UNL     1      36.540 -20.726 -19.643  0.00  0.00    +0.062 C 
ATOM     21  H   UNL     1      34.737 -21.160 -20.618  0.00  0.00    +0.152 HD
ENDBRANCH   1  15
BRANCH   6  23
ATOM     22  N   UNL     1      40.840 -27.159 -15.186  0.00  0.00    -0.242 NA
ATOM     23  C   UNL     1      38.535 -25.970 -14.143  0.00  0.00    +0.031 C 
ATOM     24  C   UNL     1      38.441 -26.860 -15.207  0.00  0.00    +0.023 C 
ATOM     25  C   UNL     1      39.781 -25.673 -13.600  0.00  0.00    +0.023 C 
ATOM     26  C   UNL     1      39.612 -27.422 -15.688  0.00  0.00    +0.099 C 
ATOM     27  C   UNL     1      40.892 -26.289 -14.153  0.00  0.00    +0.099 C 
ENDBRANCH   6  23
TORSDOF 2
ENDMDL
MODEL 6
REMARK VINA RESULT:      -9.5      8.673     13.110
REMARK  Name = 44177328
REMARK  2 active torsions:
REMARK  status: ('A' for Active; 'I' for Inactive)
REMARK    1  A    between atoms: N_1  and  C_15
REMARK    2  A    between atoms: C_6  and  C_23
REMARK                            x       y       z     vdW  Elec       q    Type
REMARK                         _______ _______ _______ _____ _____    ______ ____
ROOT
ATOM      1  N   UNL     1      34.058 -10.828 -25.253  0.00  0.00    -0.286 N 
ATOM      2  N   UNL     1      34.297 -12.853 -24.051  0.00  0.00    -0.386 NA
ATOM      3  N   UNL     1      33.273 -14.256 -26.253  0.00  0.00    -0.246 NA
ATOM      4  N   UNL     1      33.046 -12.211 -27.433  0.00  0.00    -0.340 N 
ATOM      5  C   UNL     1      33.924 -12.227 -25.185  0.00  0.00    +0.214 C 
ATOM      6  C   UNL     1      34.149 -14.193 -24.037  0.00  0.00    +0.135 C 
ATOM      7  C   UNL     1      33.422 -12.916 -26.267  0.00  0.00    +0.166 C 
ATOM      8  C   UNL     1      33.646 -14.881 -25.119  0.00  0.00    +0.185 C 
ATOM      9  H   UNL     1      34.227 -10.490 -26.162  0.00  0.00    +0.155 HD
ATOM     10  H   UNL     1      32.686 -12.698 -28.209  0.00  0.00    +0.144 HD
ATOM     11  H   UNL     1      33.144 -11.232 -27.468  0.00  0.00    +0.144 HD
ENDROOT
BRANCH   1  15
ATOM     12  N   UNL     1      33.609  -6.965 -21.318  0.00  0.00    -0.312 N 
ATOM     13  C   UNL     1      32.898  -8.803 -22.364  0.00  0.00    +0.016 C 
ATOM     14  C   UNL     1      33.893  -7.822 -22.357  0.00  0.00    +0.048 C 
ATOM     15  C   UNL     1      33.997  -9.813 -24.271  0.00  0.00    +0.050 C 
ATOM     16  C   UNL     1      32.952  -9.817 -23.341  0.00  0.00    +0.016 C 
ATOM     17  C   UNL     1      34.944  -7.808 -23.280  0.00  0.00    +0.016 C 
ATOM     18  C   UNL     1      34.976  -8.823 -24.241  0.00  0.00    +0.016 C 
ATOM     19  C   UNL     1      32.008  -8.502 -21.295  0.00  0.00    +0.017 C 
ATOM     20  C   UNL     1      32.472  -7.367 -20.671  0.00  0.00    +0.062 C 
ATOM     21  H   UNL     1      34.146  -6.176 -21.077  0.00  0.00    +0.152 HD
ENDBRANCH   1  15
BRANCH   6  23
ATOM     22  N   UNL     1      35.313 -16.149 -20.464  0.00  0.00    -0.242 NA
ATOM     23  C   UNL     1      34.545 -14.858 -22.822  0.00  0.00    +0.031 C 
ATOM     24  C   UNL     1      35.154 -16.107 -22.877  0.00  0.00    +0.023 C 
ATOM     25  C   UNL     1      34.320 -14.253 -21.590  0.00  0.00    +0.023 C 
ATOM     26  C   UNL     1      35.516 -16.705 -21.681  0.00  0.00    +0.099 C 
ATOM     27  C   UNL     1      34.719 -14.935 -20.451  0.00  0.00    +0.099 C 
ENDBRANCH   6  23
TORSDOF 2
ENDMDL
MODEL 7
REMARK VINA RESULT:      -9.5      1.658      4.026
REMARK  Name = 44177328
REMARK  2 active torsions:
REMARK  status: ('A' for Active; 'I' for Inactive)
REMARK    1  A    between atoms: N_1  and  C_15
REMARK    2  A    between atoms: C_6  and  C_23
REMARK                            x       y       z     vdW  Elec       q    Type
REMARK                         _______ _______ _______ _____ _____    ______ ____
ROOT
ATOM      1  N   UNL     1      36.818 -22.193 -16.727  0.00  0.00    -0.286 N 
ATOM      2  N   UNL     1      34.970 -23.022 -15.502  0.00  0.00    -0.386 NA
ATOM      3  N   UNL     1      36.670 -24.840 -14.209  0.00  0.00    -0.246 NA
ATOM      4  N   UNL     1      38.503 -23.987 -15.451  0.00  0.00    -0.340 N 
ATOM      5  C   UNL     1      36.290 -23.078 -15.769  0.00  0.00    +0.214 C 
ATOM      6  C   UNL     1      34.515 -23.890 -14.577  0.00  0.00    +0.135 C 
ATOM      7  C   UNL     1      37.126 -23.970 -15.134  0.00  0.00    +0.166 C 
ATOM      8  C   UNL     1      35.351 -24.783 -13.943  0.00  0.00    +0.185 C 
ATOM      9  H   UNL     1      37.756 -21.943 -16.560  0.00  0.00    +0.155 HD
ATOM     10  H   UNL     1      39.105 -24.623 -15.000  0.00  0.00    +0.144 HD
ATOM     11  H   UNL     1      38.861 -23.363 -16.123  0.00  0.00    +0.144 HD
ENDROOT
BRANCH   1  15
ATOM     12  N   UNL     1      34.424 -19.912 -21.162  0.00  0.00    -0.312 N 
ATOM     13  C   UNL     1      34.337 -21.036 -19.237  0.00  0.00    +0.016 C 
ATOM     14  C   UNL     1      35.201 -20.412 -20.141  0.00  0.00    +0.048 C 
ATOM     15  C   UNL     1      36.266 -21.592 -17.880  0.00  0.00    +0.050 C 
ATOM     16  C   UNL     1      34.882 -21.638 -18.085  0.00  0.00    +0.016 C 
ATOM     17  C   UNL     1      36.585 -20.357 -19.948  0.00  0.00    +0.016 C 
ATOM     18  C   UNL     1      37.102 -20.962 -18.798  0.00  0.00    +0.016 C 
ATOM     19  C   UNL     1      33.019 -20.895 -19.753  0.00  0.00    +0.017 C 
ATOM     20  C   UNL     1      33.105 -20.200 -20.937  0.00  0.00    +0.062 C 
ATOM     21  H   UNL     1      34.769 -19.421 -21.943  0.00  0.00    +0.152 HD
ENDBRANCH   1  15
BRANCH   6  23
ATOM     22  N   UNL     1      30.364 -23.715 -13.751  0.00  0.00    -0.242 NA
ATOM     23  C   UNL     1      33.104 -23.831 -14.297  0.00  0.00    +0.031 C 
ATOM     24  C   UNL     1      32.332 -22.795 -14.812  0.00  0.00    +0.023 C 
ATOM     25  C   UNL     1      32.507 -24.810 -13.509  0.00  0.00    +0.023 C 
ATOM     26  C   UNL     1      30.980 -22.783 -14.513  0.00  0.00    +0.099 C 
ATOM     27  C   UNL     1      31.146 -24.707 -13.268  0.00  0.00    +0.099 C 
ENDBRANCH   6  23
TORSDOF 2
ENDMDL
MODEL 8
REMARK VINA RESULT:      -9.2      1.747      4.643
REMARK  Name = 44177328
REMARK  2 active torsions:
REMARK  status: ('A' for Active; 'I' for Inactive)
REMARK    1  A    between atoms: N_1  and  C_15
REMARK    2  A    between atoms: C_6  and  C_23
REMARK                            x       y       z     vdW  Elec       q    Type
REMARK                         _______ _______ _______ _____ _____    ______ ____
ROOT
ATOM      1  N   UNL     1      34.735 -22.903 -15.803  0.00  0.00    -0.286 N 
ATOM      2  N   UNL     1      32.389 -23.174 -15.635  0.00  0.00    -0.386 NA
ATOM      3  N   UNL     1      32.784 -25.284 -13.829  0.00  0.00    -0.246 NA
ATOM      4  N   UNL     1      35.130 -24.987 -14.018  0.00  0.00    -0.340 N 
ATOM      5  C   UNL     1      33.622 -23.573 -15.263  0.00  0.00    +0.214 C 
ATOM      6  C   UNL     1      31.358 -23.848 -15.089  0.00  0.00    +0.135 C 
ATOM      7  C   UNL     1      33.816 -24.609 -14.375  0.00  0.00    +0.166 C 
ATOM      8  C   UNL     1      31.552 -24.884 -14.202  0.00  0.00    +0.185 C 
ATOM      9  H   UNL     1      35.516 -22.887 -15.205  0.00  0.00    +0.155 HD
ATOM     10  H   UNL     1      35.275 -25.727 -13.385  0.00  0.00    +0.144 HD
ATOM     11  H   UNL     1      35.901 -24.511 -14.403  0.00  0.00    +0.144 HD
ENDROOT
BRANCH   1  15
ATOM     12  N   UNL     1      35.326 -20.331 -20.666  0.00  0.00    -0.312 N 
ATOM     13  C   UNL     1      34.073 -21.217 -19.046  0.00  0.00    +0.016 C 
ATOM     14  C   UNL     1      35.388 -20.971 -19.448  0.00  0.00    +0.048 C 
ATOM     15  C   UNL     1      34.950 -22.250 -17.037  0.00  0.00    +0.050 C 
ATOM     16  C   UNL     1      33.852 -21.869 -17.816  0.00  0.00    +0.016 C 
ATOM     17  C   UNL     1      36.495 -21.344 -18.679  0.00  0.00    +0.016 C 
ATOM     18  C   UNL     1      36.251 -21.991 -17.463  0.00  0.00    +0.016 C 
ATOM     19  C   UNL     1      33.222 -20.704 -20.064  0.00  0.00    +0.017 C 
ATOM     20  C   UNL     1      34.021 -20.167 -21.047  0.00  0.00    +0.062 C 
ATOM     21  H   UNL     1      36.107 -20.037 -21.188  0.00  0.00    +0.152 HD
ENDBRANCH   1  15
BRANCH   6  23
ATOM     22  N   UNL     1      27.489 -22.595 -16.273  0.00  0.00    -0.242 NA
ATOM     23  C   UNL     1      30.042 -23.421 -15.491  0.00  0.00    +0.031 C 
ATOM     24  C   UNL     1      29.409 -22.380 -14.820  0.00  0.00    +0.023 C 
ATOM     25  C   UNL     1      29.400 -24.048 -16.553  0.00  0.00    +0.023 C 
ATOM     26  C   UNL     1      28.145 -22.008 -15.246  0.00  0.00    +0.099 C 
ATOM     27  C   UNL     1      28.135 -23.602 -16.902  0.00  0.00    +0.099 C 
ENDBRANCH   6  23
TORSDOF 2
ENDMDL
MODEL 9
REMARK VINA RESULT:      -9.2     10.676     14.071
REMARK  Name = 44177328
REMARK  2 active torsions:
REMARK  status: ('A' for Active; 'I' for Inactive)
REMARK    1  A    between atoms: N_1  and  C_15
REMARK    2  A    between atoms: C_6  and  C_23
REMARK                            x       y       z     vdW  Elec       q    Type
REMARK                         _______ _______ _______ _____ _____    ______ ____
ROOT
ATOM      1  N   UNL     1      32.258  -9.158 -22.048  0.00  0.00    -0.286 N 
ATOM      2  N   UNL     1      32.931 -11.373 -22.543  0.00  0.00    -0.386 NA
ATOM      3  N   UNL     1      31.859 -12.223 -20.094  0.00  0.00    -0.246 NA
ATOM      4  N   UNL     1      31.196  -9.993 -19.627  0.00  0.00    -0.340 N 
ATOM      5  C   UNL     1      32.337 -10.516 -21.688  0.00  0.00    +0.214 C 
ATOM      6  C   UNL     1      32.980 -12.661 -22.152  0.00  0.00    +0.135 C 
ATOM      7  C   UNL     1      31.809 -10.933 -20.486  0.00  0.00    +0.166 C 
ATOM      8  C   UNL     1      32.454 -13.078 -20.948  0.00  0.00    +0.185 C 
ATOM      9  H   UNL     1      31.471  -8.696 -21.679  0.00  0.00    +0.155 HD
ATOM     10  H   UNL     1      30.818 -10.286 -18.766  0.00  0.00    +0.144 HD
ATOM     11  H   UNL     1      31.147  -9.046 -19.889  0.00  0.00    +0.144 HD
ENDROOT
BRANCH   1  15
ATOM     12  N   UNL     1      35.327  -5.729 -25.119  0.00  0.00    -0.312 N 
ATOM     13  C   UNL     1      33.479  -6.224 -23.970  0.00  0.00    +0.016 C 
ATOM     14  C   UNL     1      34.722  -6.717 -24.375  0.00  0.00    +0.048 C 
ATOM     15  C   UNL     1      33.087  -8.328 -22.835  0.00  0.00    +0.050 C 
ATOM     16  C   UNL     1      32.647  -7.047 -23.185  0.00  0.00    +0.016 C 
ATOM     17  C   UNL     1      35.176  -7.995 -24.031  0.00  0.00    +0.016 C 
ATOM     18  C   UNL     1      34.332  -8.794 -23.252  0.00  0.00    +0.016 C 
ATOM     19  C   UNL     1      33.360  -4.908 -24.498  0.00  0.00    +0.017 C 
ATOM     20  C   UNL     1      34.511  -4.632 -25.199  0.00  0.00    +0.062 C 
ATOM     21  H   UNL     1      36.216  -5.802 -25.534  0.00  0.00    +0.152 HD
ENDBRANCH   1  15
BRANCH   6  23
ATOM     22  N   UNL     1      34.860 -15.345 -24.836  0.00  0.00    -0.242 NA
ATOM     23  C   UNL     1      33.619 -13.574 -23.065  0.00  0.00    +0.031 C 
ATOM     24  C   UNL     1      33.231 -13.613 -24.399  0.00  0.00    +0.023 C 
ATOM     25  C   UNL     1      34.629 -14.418 -22.615  0.00  0.00    +0.023 C 
ATOM     26  C   UNL     1      33.876 -14.508 -25.237  0.00  0.00    +0.099 C 
ATOM     27  C   UNL     1      35.212 -15.278 -23.532  0.00  0.00    +0.099 C 
ENDBRANCH   6  23
TORSDOF 2
ENDMDL
