MODEL 1
REMARK VINA RESULT:     -11.7      0.000      0.000
REMARK  Name = 10157080
REMARK  5 active torsions:
REMARK  status: ('A' for Active; 'I' for Inactive)
REMARK    1  A    between atoms: C_3  and  O_8
REMARK    2  A    between atoms: C_6  and  O_18
REMARK    3  A    between atoms: O_8  and  C_13
REMARK    4  A    between atoms: O_18  and  C_20
REMARK    5  A    between atoms: C_19  and  N_25
REMARK                            x       y       z     vdW  Elec       q    Type
REMARK                         _______ _______ _______ _____ _____    ______ ____
ROOT
ATOM      1  N   UNL     1      34.785 -23.027 -16.517  0.00  0.00    -0.277 NA
ATOM      2  N   UNL     1      32.391 -23.001 -16.799  0.00  0.00    -0.319 NA
ATOM      3  C   UNL     1      34.581 -22.885 -15.197  0.00  0.00    +0.278 C 
ATOM      4  C   UNL     1      33.348 -22.793 -14.600  0.00  0.00    +0.156 C 
ATOM      5  C   UNL     1      32.272 -22.859 -15.462  0.00  0.00    +0.113 C 
ATOM      6  C   UNL     1      33.658 -23.077 -17.252  0.00  0.00    +0.317 C 
ATOM      7  C   UNL     1      30.887 -22.770 -14.918  0.00  0.00    +0.063 C 
ENDROOT
BRANCH   3   8
ATOM      8  O   UNL     1      35.711 -22.832 -14.400  0.00  0.00    -0.429 OA
BRANCH   8  13
ATOM      9  O   UNL     1      40.149 -24.687 -14.736  0.00  0.00    -0.435 OA
ATOM     10  O   UNL     1      39.304 -26.943 -14.668  0.00  0.00    -0.435 OA
ATOM     11  C   UNL     1      38.793 -24.728 -14.632  0.00  0.00    +0.179 C 
ATOM     12  C   UNL     1      38.310 -26.016 -14.594  0.00  0.00    +0.177 C 
ATOM     13  C   UNL     1      36.581 -23.878 -14.466  0.00  0.00    +0.151 C 
ATOM     14  C   UNL     1      37.952 -23.636 -14.570  0.00  0.00    +0.078 C 
ATOM     15  C   UNL     1      36.960 -26.283 -14.491  0.00  0.00    +0.043 C 
ATOM     16  C   UNL     1      36.087 -25.195 -14.426  0.00  0.00    +0.041 C 
ATOM     17  C   UNL     1      40.466 -26.094 -14.757  0.00  0.00    +0.429 C 
ENDBRANCH   8  13
ENDBRANCH   3   8
BRANCH   6  18
ATOM     18  O   UNL     1      33.817 -23.219 -18.611  0.00  0.00    -0.375 OA
BRANCH  18  20
ATOM     19  C   UNL     1      34.738 -19.801 -20.777  0.00  0.00    +0.057 C 
ATOM     20  C   UNL     1      34.123 -22.084 -19.330  0.00  0.00    +0.161 C 
ATOM     21  C   UNL     1      33.406 -20.119 -20.511  0.00  0.00    +0.018 C 
ATOM     22  C   UNL     1      35.760 -20.630 -20.315  0.00  0.00    +0.018 C 
ATOM     23  C   UNL     1      33.096 -21.268 -19.782  0.00  0.00    +0.040 C 
ATOM     24  C   UNL     1      35.451 -21.778 -19.587  0.00  0.00    +0.040 C 
BRANCH  19  25
ATOM     25  N   UNL     1      35.045 -18.662 -21.500  0.00  0.00    -0.246 N 
ATOM     26  N   UNL     1      35.243 -17.280 -23.238  0.00  0.00    -0.224 NA
ATOM     27  C   UNL     1      35.599 -17.506 -21.011  0.00  0.00    +0.092 C 
ATOM     28  C   UNL     1      34.851 -18.472 -22.846  0.00  0.00    +0.172 C 
ATOM     29  C   UNL     1      35.710 -16.674 -22.099  0.00  0.00    +0.117 C 
ENDBRANCH  19  25
ENDBRANCH  18  20
ENDBRANCH   6  18
TORSDOF 5
ENDMDL
MODEL 2
REMARK VINA RESULT:     -11.5      2.624      5.648
REMARK  Name = 10157080
REMARK  5 active torsions:
REMARK  status: ('A' for Active; 'I' for Inactive)
REMARK    1  A    between atoms: C_3  and  O_8
REMARK    2  A    between atoms: C_6  and  O_18
REMARK    3  A    between atoms: O_8  and  C_13
REMARK    4  A    between atoms: O_18  and  C_20
REMARK    5  A    between atoms: C_19  and  N_25
REMARK                            x       y       z     vdW  Elec       q    Type
REMARK                         _______ _______ _______ _____ _____    ______ ____
ROOT
ATOM      1  N   UNL     1      33.554 -23.108 -16.436  0.00  0.00    -0.277 NA
ATOM      2  N   UNL     1      35.887 -22.687 -16.872  0.00  0.00    -0.319 NA
ATOM      3  C   UNL     1      33.832 -23.009 -15.126  0.00  0.00    +0.278 C 
ATOM      4  C   UNL     1      35.078 -22.759 -14.606  0.00  0.00    +0.156 C 
ATOM      5  C   UNL     1      36.083 -22.604 -15.540  0.00  0.00    +0.113 C 
ATOM      6  C   UNL     1      34.617 -22.938 -17.245  0.00  0.00    +0.317 C 
ATOM      7  C   UNL     1      37.475 -22.328 -15.082  0.00  0.00    +0.063 C 
ENDROOT
BRANCH   3   8
ATOM      8  O   UNL     1      32.769 -23.174 -14.255  0.00  0.00    -0.429 OA
BRANCH   8  13
ATOM      9  O   UNL     1      28.844 -21.892 -16.745  0.00  0.00    -0.435 OA
ATOM     10  O   UNL     1      27.851 -24.071 -16.466  0.00  0.00    -0.435 OA
ATOM     11  C   UNL     1      29.638 -22.735 -16.030  0.00  0.00    +0.179 C 
ATOM     12  C   UNL     1      29.071 -23.978 -15.871  0.00  0.00    +0.177 C 
ATOM     13  C   UNL     1      31.544 -23.429 -14.793  0.00  0.00    +0.151 C 
ATOM     14  C   UNL     1      30.876 -22.428 -15.502  0.00  0.00    +0.078 C 
ATOM     15  C   UNL     1      29.710 -24.984 -15.175  0.00  0.00    +0.043 C 
ATOM     16  C   UNL     1      30.965 -24.700 -14.631  0.00  0.00    +0.041 C 
ATOM     17  C   UNL     1      27.714 -22.746 -17.019  0.00  0.00    +0.429 C 
ENDBRANCH   8  13
ENDBRANCH   3   8
BRANCH   6  18
ATOM     18  O   UNL     1      34.381 -23.034 -18.597  0.00  0.00    -0.375 OA
BRANCH  18  20
ATOM     19  C   UNL     1      34.950 -19.605 -20.865  0.00  0.00    +0.057 C 
ATOM     20  C   UNL     1      34.569 -21.896 -19.350  0.00  0.00    +0.161 C 
ATOM     21  C   UNL     1      36.049 -20.358 -20.451  0.00  0.00    +0.018 C 
ATOM     22  C   UNL     1      33.660 -20.005 -20.517  0.00  0.00    +0.018 C 
ATOM     23  C   UNL     1      35.858 -21.511 -19.689  0.00  0.00    +0.040 C 
ATOM     24  C   UNL     1      33.468 -21.157 -19.755  0.00  0.00    +0.040 C 
BRANCH  19  25
ATOM     25  N   UNL     1      35.140 -18.462 -21.620  0.00  0.00    -0.246 N 
ATOM     26  N   UNL     1      35.558 -16.329 -22.113  0.00  0.00    -0.224 NA
ATOM     27  C   UNL     1      35.071 -18.363 -22.987  0.00  0.00    +0.092 C 
ATOM     28  C   UNL     1      35.436 -17.209 -21.145  0.00  0.00    +0.172 C 
ATOM     29  C   UNL     1      35.331 -17.042 -23.263  0.00  0.00    +0.117 C 
ENDBRANCH  19  25
ENDBRANCH  18  20
ENDBRANCH   6  18
TORSDOF 5
ENDMDL
MODEL 3
REMARK VINA RESULT:     -11.3      2.731      8.084
REMARK  Name = 10157080
REMARK  5 active torsions:
REMARK  status: ('A' for Active; 'I' for Inactive)
REMARK    1  A    between atoms: C_3  and  O_8
REMARK    2  A    between atoms: C_6  and  O_18
REMARK    3  A    between atoms: O_8  and  C_13
REMARK    4  A    between atoms: O_18  and  C_20
REMARK    5  A    between atoms: C_19  and  N_25
REMARK                            x       y       z     vdW  Elec       q    Type
REMARK                         _______ _______ _______ _____ _____    ______ ____
ROOT
ATOM      1  N   UNL     1      34.475 -23.211 -16.322  0.00  0.00    -0.277 NA
ATOM      2  N   UNL     1      32.831 -22.955 -14.578  0.00  0.00    -0.319 NA
ATOM      3  C   UNL     1      33.470 -23.159 -17.210  0.00  0.00    +0.278 C 
ATOM      4  C   UNL     1      32.143 -23.011 -16.884  0.00  0.00    +0.156 C 
ATOM      5  C   UNL     1      31.879 -22.912 -15.533  0.00  0.00    +0.113 C 
ATOM      6  C   UNL     1      34.089 -23.104 -15.036  0.00  0.00    +0.317 C 
ATOM      7  C   UNL     1      30.471 -22.748 -15.070  0.00  0.00    +0.063 C 
ENDROOT
BRANCH   3   8
ATOM      8  O   UNL     1      33.818 -23.262 -18.545  0.00  0.00    -0.429 OA
BRANCH   8  13
ATOM      9  O   UNL     1      36.907 -19.980 -20.260  0.00  0.00    -0.435 OA
ATOM     10  O   UNL     1      35.120 -18.665 -21.202  0.00  0.00    -0.435 OA
ATOM     11  C   UNL     1      35.684 -20.531 -20.032  0.00  0.00    +0.179 C 
ATOM     12  C   UNL     1      34.664 -19.780 -20.570  0.00  0.00    +0.177 C 
ATOM     13  C   UNL     1      34.110 -22.110 -19.213  0.00  0.00    +0.151 C 
ATOM     14  C   UNL     1      35.439 -21.703 -19.347  0.00  0.00    +0.078 C 
ATOM     15  C   UNL     1      33.342 -20.160 -20.452  0.00  0.00    +0.043 C 
ATOM     16  C   UNL     1      33.067 -21.343 -19.763  0.00  0.00    +0.041 C 
ATOM     17  C   UNL     1      36.542 -18.798 -21.003  0.00  0.00    +0.429 C 
ENDBRANCH   8  13
ENDBRANCH   3   8
BRANCH   6  18
ATOM     18  O   UNL     1      35.086 -23.156 -14.089  0.00  0.00    -0.375 OA
BRANCH  18  20
ATOM     19  C   UNL     1      38.279 -25.699 -14.838  0.00  0.00    +0.057 C 
ATOM     20  C   UNL     1      36.146 -24.000 -14.338  0.00  0.00    +0.161 C 
ATOM     21  C   UNL     1      38.508 -24.344 -14.599  0.00  0.00    +0.018 C 
ATOM     22  C   UNL     1      36.977 -26.199 -14.824  0.00  0.00    +0.018 C 
ATOM     23  C   UNL     1      37.435 -23.489 -14.347  0.00  0.00    +0.040 C 
ATOM     24  C   UNL     1      35.904 -25.345 -14.572  0.00  0.00    +0.040 C 
BRANCH  19  25
ATOM     25  N   UNL     1      39.343 -26.546 -15.088  0.00  0.00    -0.246 N 
ATOM     26  N   UNL     1      41.366 -27.468 -14.916  0.00  0.00    -0.224 NA
ATOM     27  C   UNL     1      39.385 -27.558 -16.014  0.00  0.00    +0.092 C 
ATOM     28  C   UNL     1      40.562 -26.536 -14.455  0.00  0.00    +0.172 C 
ATOM     29  C   UNL     1      40.639 -28.107 -15.887  0.00  0.00    +0.117 C 
ENDBRANCH  19  25
ENDBRANCH  18  20
ENDBRANCH   6  18
TORSDOF 5
ENDMDL
MODEL 4
REMARK VINA RESULT:     -11.1      4.269      8.394
REMARK  Name = 10157080
REMARK  5 active torsions:
REMARK  status: ('A' for Active; 'I' for Inactive)
REMARK    1  A    between atoms: C_3  and  O_8
REMARK    2  A    between atoms: C_6  and  O_18
REMARK    3  A    between atoms: O_8  and  C_13
REMARK    4  A    between atoms: O_18  and  C_20
REMARK    5  A    between atoms: C_19  and  N_25
REMARK                            x       y       z     vdW  Elec       q    Type
REMARK                         _______ _______ _______ _____ _____    ______ ____
ROOT
ATOM      1  N   UNL     1      35.955 -17.376 -22.455  0.00  0.00    -0.277 NA
ATOM      2  N   UNL     1      34.509 -17.110 -24.365  0.00  0.00    -0.319 NA
ATOM      3  C   UNL     1      35.525 -18.644 -22.368  0.00  0.00    +0.278 C 
ATOM      4  C   UNL     1      34.608 -19.221 -23.212  0.00  0.00    +0.156 C 
ATOM      5  C   UNL     1      34.127 -18.395 -24.208  0.00  0.00    +0.113 C 
ATOM      6  C   UNL     1      35.412 -16.672 -23.467  0.00  0.00    +0.317 C 
ATOM      7  C   UNL     1      33.127 -18.922 -25.181  0.00  0.00    +0.063 C 
ENDROOT
BRANCH   3   8
ATOM      8  O   UNL     1      36.058 -19.408 -21.344  0.00  0.00    -0.429 OA
BRANCH   8  13
ATOM      9  O   UNL     1      35.050 -22.699 -17.966  0.00  0.00    -0.435 OA
ATOM     10  O   UNL     1      32.683 -22.280 -18.143  0.00  0.00    -0.435 OA
ATOM     11  C   UNL     1      34.762 -21.742 -18.890  0.00  0.00    +0.179 C 
ATOM     12  C   UNL     1      33.411 -21.502 -18.990  0.00  0.00    +0.177 C 
ATOM     13  C   UNL     1      35.191 -20.108 -20.560  0.00  0.00    +0.151 C 
ATOM     14  C   UNL     1      35.679 -21.060 -19.662  0.00  0.00    +0.078 C 
ATOM     15  C   UNL     1      32.902 -20.568 -19.869  0.00  0.00    +0.043 C 
ATOM     16  C   UNL     1      33.809 -19.863 -20.663  0.00  0.00    +0.041 C 
ATOM     17  C   UNL     1      33.728 -23.034 -17.496  0.00  0.00    +0.429 C 
ENDBRANCH   8  13
ENDBRANCH   3   8
BRANCH   6  18
ATOM     18  O   UNL     1      35.821 -15.365 -23.595  0.00  0.00    -0.375 OA
BRANCH  18  20
ATOM     19  C   UNL     1      33.256 -12.429 -22.172  0.00  0.00    +0.057 C 
ATOM     20  C   UNL     1      34.969 -14.390 -23.122  0.00  0.00    +0.161 C 
ATOM     21  C   UNL     1      33.665 -12.410 -23.505  0.00  0.00    +0.018 C 
ATOM     22  C   UNL     1      33.709 -13.433 -21.317  0.00  0.00    +0.018 C 
ATOM     23  C   UNL     1      34.527 -13.398 -23.984  0.00  0.00    +0.040 C 
ATOM     24  C   UNL     1      34.570 -14.421 -21.795  0.00  0.00    +0.040 C 
BRANCH  19  25
ATOM     25  N   UNL     1      32.402 -11.449 -21.698  0.00  0.00    -0.246 N 
ATOM     26  N   UNL     1      30.874 -10.449 -20.420  0.00  0.00    -0.224 NA
ATOM     27  C   UNL     1      32.237 -10.188 -22.212  0.00  0.00    +0.092 C 
ATOM     28  C   UNL     1      31.558 -11.554 -20.620  0.00  0.00    +0.172 C 
ATOM     29  C   UNL     1      31.292  -9.595 -21.409  0.00  0.00    +0.117 C 
ENDBRANCH  19  25
ENDBRANCH  18  20
ENDBRANCH   6  18
TORSDOF 5
ENDMDL
MODEL 5
REMARK VINA RESULT:     -10.9      0.898      1.775
REMARK  Name = 10157080
REMARK  5 active torsions:
REMARK  status: ('A' for Active; 'I' for Inactive)
REMARK    1  A    between atoms: C_3  and  O_8
REMARK    2  A    between atoms: C_6  and  O_18
REMARK    3  A    between atoms: O_8  and  C_13
REMARK    4  A    between atoms: O_18  and  C_20
REMARK    5  A    between atoms: C_19  and  N_25
REMARK                            x       y       z     vdW  Elec       q    Type
REMARK                         _______ _______ _______ _____ _____    ______ ____
ROOT
ATOM      1  N   UNL     1      34.100 -23.241 -16.271  0.00  0.00    -0.277 NA
ATOM      2  N   UNL     1      31.940 -22.823 -17.256  0.00  0.00    -0.319 NA
ATOM      3  C   UNL     1      33.532 -23.058 -15.068  0.00  0.00    +0.278 C 
ATOM      4  C   UNL     1      32.207 -22.759 -14.864  0.00  0.00    +0.156 C 
ATOM      5  C   UNL     1      31.447 -22.653 -16.011  0.00  0.00    +0.113 C 
ATOM      6  C   UNL     1      33.255 -23.111 -17.311  0.00  0.00    +0.317 C 
ATOM      7  C   UNL     1      29.994 -22.332 -15.904  0.00  0.00    +0.063 C 
ENDROOT
BRANCH   3   8
ATOM      8  O   UNL     1      34.361 -23.185 -13.967  0.00  0.00    -0.429 OA
BRANCH   8  13
ATOM      9  O   UNL     1      38.212 -26.046 -13.478  0.00  0.00    -0.435 OA
ATOM     10  O   UNL     1      39.583 -24.571 -14.803  0.00  0.00    -0.435 OA
ATOM     11  C   UNL     1      37.525 -24.955 -13.914  0.00  0.00    +0.179 C 
ATOM     12  C   UNL     1      38.308 -24.113 -14.671  0.00  0.00    +0.177 C 
ATOM     13  C   UNL     1      35.667 -23.502 -14.193  0.00  0.00    +0.151 C 
ATOM     14  C   UNL     1      36.199 -24.677 -13.657  0.00  0.00    +0.078 C 
ATOM     15  C   UNL     1      37.807 -22.946 -15.212  0.00  0.00    +0.043 C 
ATOM     16  C   UNL     1      36.467 -22.641 -14.967  0.00  0.00    +0.041 C 
ATOM     17  C   UNL     1      39.514 -25.796 -14.045  0.00  0.00    +0.429 C 
ENDBRANCH   8  13
ENDBRANCH   3   8
BRANCH   6  18
ATOM     18  O   UNL     1      33.793 -23.287 -18.565  0.00  0.00    -0.375 OA
BRANCH  18  20
ATOM     19  C   UNL     1      34.732 -19.868 -20.721  0.00  0.00    +0.057 C 
ATOM     20  C   UNL     1      34.105 -22.152 -19.281  0.00  0.00    +0.161 C 
ATOM     21  C   UNL     1      35.751 -20.667 -20.202  0.00  0.00    +0.018 C 
ATOM     22  C   UNL     1      33.398 -20.219 -20.517  0.00  0.00    +0.018 C 
ATOM     23  C   UNL     1      35.436 -21.817 -19.477  0.00  0.00    +0.040 C 
ATOM     24  C   UNL     1      33.082 -21.368 -19.793  0.00  0.00    +0.040 C 
BRANCH  19  25
ATOM     25  N   UNL     1      35.046 -18.728 -21.439  0.00  0.00    -0.246 N 
ATOM     26  N   UNL     1      35.828 -16.689 -21.887  0.00  0.00    -0.224 NA
ATOM     27  C   UNL     1      34.796 -18.504 -22.770  0.00  0.00    +0.092 C 
ATOM     28  C   UNL     1      35.668 -17.604 -20.956  0.00  0.00    +0.172 C 
ATOM     29  C   UNL     1      35.286 -17.244 -23.018  0.00  0.00    +0.117 C 
ENDBRANCH  19  25
ENDBRANCH  18  20
ENDBRANCH   6  18
TORSDOF 5
ENDMDL
MODEL 6
REMARK VINA RESULT:     -10.6      6.162     12.326
REMARK  Name = 10157080
REMARK  5 active torsions:
REMARK  status: ('A' for Active; 'I' for Inactive)
REMARK    1  A    between atoms: C_3  and  O_8
REMARK    2  A    between atoms: C_6  and  O_18
REMARK    3  A    between atoms: O_8  and  C_13
REMARK    4  A    between atoms: O_18  and  C_20
REMARK    5  A    between atoms: C_19  and  N_25
REMARK                            x       y       z     vdW  Elec       q    Type
REMARK                         _______ _______ _______ _____ _____    ______ ____
ROOT
ATOM      1  N   UNL     1      34.843 -15.229 -22.822  0.00  0.00    -0.277 NA
ATOM      2  N   UNL     1      34.511 -15.628 -25.176  0.00  0.00    -0.319 NA
ATOM      3  C   UNL     1      33.969 -14.215 -22.921  0.00  0.00    +0.278 C 
ATOM      4  C   UNL     1      33.332 -13.840 -24.079  0.00  0.00    +0.156 C 
ATOM      5  C   UNL     1      33.645 -14.594 -25.191  0.00  0.00    +0.113 C 
ATOM      6  C   UNL     1      35.066 -15.887 -23.976  0.00  0.00    +0.317 C 
ATOM      7  C   UNL     1      33.008 -14.272 -26.501  0.00  0.00    +0.063 C 
ENDROOT
BRANCH   3   8
ATOM      8  O   UNL     1      33.706 -13.510 -21.760  0.00  0.00    -0.429 OA
BRANCH   8  13
ATOM      9  O   UNL     1      33.202  -9.140 -23.736  0.00  0.00    -0.435 OA
ATOM     10  O   UNL     1      31.304  -8.634 -22.339  0.00  0.00    -0.435 OA
ATOM     11  C   UNL     1      32.891 -10.164 -22.894  0.00  0.00    +0.179 C 
ATOM     12  C   UNL     1      31.808  -9.875 -22.097  0.00  0.00    +0.177 C 
ATOM     13  C   UNL     1      33.086 -12.303 -21.880  0.00  0.00    +0.151 C 
ATOM     14  C   UNL     1      33.553 -11.371 -22.809  0.00  0.00    +0.078 C 
ATOM     15  C   UNL     1      31.326 -10.777 -21.170  0.00  0.00    +0.043 C 
ATOM     16  C   UNL     1      31.978 -12.008 -21.065  0.00  0.00    +0.041 C 
ATOM     17  C   UNL     1      32.191  -8.175 -23.379  0.00  0.00    +0.429 C 
ENDBRANCH   8  13
ENDBRANCH   3   8
BRANCH   6  18
ATOM     18  O   UNL     1      35.957 -16.934 -23.924  0.00  0.00    -0.375 OA
BRANCH  18  20
ATOM     19  C   UNL     1      35.410 -19.738 -20.914  0.00  0.00    +0.057 C 
ATOM     20  C   UNL     1      35.776 -17.865 -22.924  0.00  0.00    +0.161 C 
ATOM     21  C   UNL     1      34.402 -19.518 -21.853  0.00  0.00    +0.018 C 
ATOM     22  C   UNL     1      36.601 -19.017 -20.987  0.00  0.00    +0.018 C 
ATOM     23  C   UNL     1      34.586 -18.575 -22.865  0.00  0.00    +0.040 C 
ATOM     24  C   UNL     1      36.786 -18.075 -21.998  0.00  0.00    +0.040 C 
BRANCH  19  25
ATOM     25  N   UNL     1      35.227 -20.672 -19.910  0.00  0.00    -0.246 N 
ATOM     26  N   UNL     1      35.716 -22.098 -18.267  0.00  0.00    -0.224 NA
ATOM     27  C   UNL     1      34.032 -21.203 -19.494  0.00  0.00    +0.092 C 
ATOM     28  C   UNL     1      36.207 -21.246 -19.139  0.00  0.00    +0.172 C 
ATOM     29  C   UNL     1      34.361 -22.076 -18.484  0.00  0.00    +0.117 C 
ENDBRANCH  19  25
ENDBRANCH  18  20
ENDBRANCH   6  18
TORSDOF 5
ENDMDL
MODEL 7
REMARK VINA RESULT:     -10.5      4.334     10.684
REMARK  Name = 10157080
REMARK  5 active torsions:
REMARK  status: ('A' for Active; 'I' for Inactive)
REMARK    1  A    between atoms: C_3  and  O_8
REMARK    2  A    between atoms: C_6  and  O_18
REMARK    3  A    between atoms: O_8  and  C_13
REMARK    4  A    between atoms: O_18  and  C_20
REMARK    5  A    between atoms: C_19  and  N_25
REMARK                            x       y       z     vdW  Elec       q    Type
REMARK                         _______ _______ _______ _____ _____    ______ ____
ROOT
ATOM      1  N   UNL     1      36.131 -17.340 -22.443  0.00  0.00    -0.277 NA
ATOM      2  N   UNL     1      34.848 -19.213 -23.253  0.00  0.00    -0.319 NA
ATOM      3  C   UNL     1      35.484 -16.574 -23.336  0.00  0.00    +0.278 C 
ATOM      4  C   UNL     1      34.526 -17.027 -24.210  0.00  0.00    +0.156 C 
ATOM      5  C   UNL     1      34.244 -18.376 -24.122  0.00  0.00    +0.113 C 
ATOM      6  C   UNL     1      35.768 -18.637 -22.456  0.00  0.00    +0.317 C 
ATOM      7  C   UNL     1      33.218 -18.972 -25.026  0.00  0.00    +0.063 C 
ENDROOT
BRANCH   3   8
ATOM      8  O   UNL     1      35.822 -15.232 -23.359  0.00  0.00    -0.429 OA
BRANCH   8  13
ATOM      9  O   UNL     1      32.731 -13.349 -20.173  0.00  0.00    -0.435 OA
ATOM     10  O   UNL     1      31.989 -11.683 -21.749  0.00  0.00    -0.435 OA
ATOM     11  C   UNL     1      33.365 -13.453 -21.372  0.00  0.00    +0.179 C 
ATOM     12  C   UNL     1      32.942 -12.501 -22.272  0.00  0.00    +0.177 C 
ATOM     13  C   UNL     1      34.867 -14.334 -22.988  0.00  0.00    +0.151 C 
ATOM     14  C   UNL     1      34.328 -14.384 -21.701  0.00  0.00    +0.078 C 
ATOM     15  C   UNL     1      33.458 -12.430 -23.550  0.00  0.00    +0.043 C 
ATOM     16  C   UNL     1      34.435 -13.361 -23.908  0.00  0.00    +0.041 C 
ATOM     17  C   UNL     1      31.861 -12.225 -20.419  0.00  0.00    +0.429 C 
ENDBRANCH   8  13
ENDBRANCH   3   8
BRANCH   6  18
ATOM     18  O   UNL     1      36.406 -19.462 -21.559  0.00  0.00    -0.375 OA
BRANCH  18  20
ATOM     19  C   UNL     1      34.032 -21.490 -18.825  0.00  0.00    +0.057 C 
ATOM     20  C   UNL     1      35.618 -20.135 -20.651  0.00  0.00    +0.161 C 
ATOM     21  C   UNL     1      35.414 -21.679 -18.823  0.00  0.00    +0.018 C 
ATOM     22  C   UNL     1      33.448 -20.619 -19.745  0.00  0.00    +0.018 C 
ATOM     23  C   UNL     1      36.212 -20.997 -19.742  0.00  0.00    +0.040 C 
ATOM     24  C   UNL     1      34.245 -19.937 -20.664  0.00  0.00    +0.040 C 
BRANCH  19  25
ATOM     25  N   UNL     1      33.240 -22.166 -17.915  0.00  0.00    -0.246 N 
ATOM     26  N   UNL     1      31.432 -22.765 -16.757  0.00  0.00    -0.224 NA
ATOM     27  C   UNL     1      33.641 -23.169 -17.068  0.00  0.00    +0.092 C 
ATOM     28  C   UNL     1      31.902 -21.963 -17.685  0.00  0.00    +0.172 C 
ATOM     29  C   UNL     1      32.511 -23.519 -16.368  0.00  0.00    +0.117 C 
ENDBRANCH  19  25
ENDBRANCH  18  20
ENDBRANCH   6  18
TORSDOF 5
ENDMDL
MODEL 8
REMARK VINA RESULT:     -10.4      3.457      7.280
REMARK  Name = 10157080
REMARK  5 active torsions:
REMARK  status: ('A' for Active; 'I' for Inactive)
REMARK    1  A    between atoms: C_3  and  O_8
REMARK    2  A    between atoms: C_6  and  O_18
REMARK    3  A    between atoms: O_8  and  C_13
REMARK    4  A    between atoms: O_18  and  C_20
REMARK    5  A    between atoms: C_19  and  N_25
REMARK                            x       y       z     vdW  Elec       q    Type
REMARK                         _______ _______ _______ _____ _____    ______ ____
ROOT
ATOM      1  N   UNL     1      35.312 -23.318 -14.307  0.00  0.00    -0.277 NA
ATOM      2  N   UNL     1      35.903 -24.911 -12.597  0.00  0.00    -0.319 NA
ATOM      3  C   UNL     1      36.511 -23.548 -14.866  0.00  0.00    +0.278 C 
ATOM      4  C   UNL     1      37.451 -24.420 -14.375  0.00  0.00    +0.156 C 
ATOM      5  C   UNL     1      37.087 -25.084 -13.221  0.00  0.00    +0.113 C 
ATOM      6  C   UNL     1      35.076 -24.026 -13.186  0.00  0.00    +0.317 C 
ATOM      7  C   UNL     1      38.035 -26.056 -12.602  0.00  0.00    +0.063 C 
ENDROOT
BRANCH   3   8
ATOM      8  O   UNL     1      36.798 -22.845 -16.023  0.00  0.00    -0.429 OA
BRANCH   8  13
ATOM      9  O   UNL     1      34.882 -20.602 -19.838  0.00  0.00    -0.435 OA
ATOM     10  O   UNL     1      32.726 -21.611 -19.456  0.00  0.00    -0.435 OA
ATOM     11  C   UNL     1      34.880 -21.423 -18.753  0.00  0.00    +0.179 C 
ATOM     12  C   UNL     1      33.649 -21.999 -18.535  0.00  0.00    +0.177 C 
ATOM     13  C   UNL     1      35.762 -22.557 -16.861  0.00  0.00    +0.151 C 
ATOM     14  C   UNL     1      35.958 -21.683 -17.932  0.00  0.00    +0.078 C 
ATOM     15  C   UNL     1      33.429 -22.866 -17.484  0.00  0.00    +0.043 C 
ATOM     16  C   UNL     1      34.505 -23.146 -16.638  0.00  0.00    +0.041 C 
ATOM     17  C   UNL     1      33.514 -20.727 -20.279  0.00  0.00    +0.429 C 
ENDBRANCH   8  13
ENDBRANCH   3   8
BRANCH   6  18
ATOM     18  O   UNL     1      33.861 -23.821 -12.575  0.00  0.00    -0.375 OA
BRANCH  18  20
ATOM     19  C   UNL     1      30.531 -23.522 -15.035  0.00  0.00    +0.057 C 
ATOM     20  C   UNL     1      32.755 -23.721 -13.391  0.00  0.00    +0.161 C 
ATOM     21  C   UNL     1      31.001 -24.777 -14.647  0.00  0.00    +0.018 C 
ATOM     22  C   UNL     1      31.180 -22.368 -14.596  0.00  0.00    +0.018 C 
ATOM     23  C   UNL     1      32.120 -24.878 -13.819  0.00  0.00    +0.040 C 
ATOM     24  C   UNL     1      32.298 -22.468 -13.769  0.00  0.00    +0.040 C 
BRANCH  19  25
ATOM     25  N   UNL     1      29.422 -23.423 -15.855  0.00  0.00    -0.246 N 
ATOM     26  N   UNL     1      27.760 -24.041 -17.207  0.00  0.00    -0.224 NA
ATOM     27  C   UNL     1      28.744 -22.275 -16.180  0.00  0.00    +0.092 C 
ATOM     28  C   UNL     1      28.788 -24.456 -16.500  0.00  0.00    +0.172 C 
ATOM     29  C   UNL     1      27.728 -22.683 -17.012  0.00  0.00    +0.117 C 
ENDBRANCH  19  25
ENDBRANCH  18  20
ENDBRANCH   6  18
TORSDOF 5
ENDMDL
MODEL 9
REMARK VINA RESULT:     -10.3      7.195     13.352
REMARK  Name = 10157080
REMARK  5 active torsions:
REMARK  status: ('A' for Active; 'I' for Inactive)
REMARK    1  A    between atoms: C_3  and  O_8
REMARK    2  A    between atoms: C_6  and  O_18
REMARK    3  A    between atoms: O_8  and  C_13
REMARK    4  A    between atoms: O_18  and  C_20
REMARK    5  A    between atoms: C_19  and  N_25
REMARK                            x       y       z     vdW  Elec       q    Type
REMARK                         _______ _______ _______ _____ _____    ______ ____
ROOT
ATOM      1  N   UNL     1      34.613 -13.526 -24.425  0.00  0.00    -0.277 NA
ATOM      2  N   UNL     1      34.109 -14.552 -22.303  0.00  0.00    -0.319 NA
ATOM      3  C   UNL     1      33.940 -12.443 -24.005  0.00  0.00    +0.278 C 
ATOM      4  C   UNL     1      33.330 -12.324 -22.780  0.00  0.00    +0.156 C 
ATOM      5  C   UNL     1      33.450 -13.426 -21.957  0.00  0.00    +0.113 C 
ATOM      6  C   UNL     1      34.658 -14.534 -23.533  0.00  0.00    +0.317 C 
ATOM      7  C   UNL     1      32.825 -13.403 -20.603  0.00  0.00    +0.063 C 
ENDROOT
BRANCH   3   8
ATOM      8  O   UNL     1      33.868 -11.379 -24.888  0.00  0.00    -0.429 OA
BRANCH   8  13
ATOM      9  O   UNL     1      32.444  -7.353 -22.649  0.00  0.00    -0.435 OA
ATOM     10  O   UNL     1      34.632  -6.363 -22.854  0.00  0.00    -0.435 OA
ATOM     11  C   UNL     1      33.326  -8.174 -23.281  0.00  0.00    +0.179 C 
ATOM     12  C   UNL     1      34.575  -7.609 -23.398  0.00  0.00    +0.177 C 
ATOM     13  C   UNL     1      34.091 -10.130 -24.392  0.00  0.00    +0.151 C 
ATOM     14  C   UNL     1      33.052  -9.435 -23.769  0.00  0.00    +0.078 C 
ATOM     15  C   UNL     1      35.619  -8.274 -24.009  0.00  0.00    +0.043 C 
ATOM     16  C   UNL     1      35.368  -9.553 -24.511  0.00  0.00    +0.041 C 
ATOM     17  C   UNL     1      33.279  -6.208 -22.380  0.00  0.00    +0.429 C 
ENDBRANCH   8  13
ENDBRANCH   3   8
BRANCH   6  18
ATOM     18  O   UNL     1      35.335 -15.667 -23.920  0.00  0.00    -0.375 OA
BRANCH  18  20
ATOM     19  C   UNL     1      35.121 -18.956 -21.399  0.00  0.00    +0.057 C 
ATOM     20  C   UNL     1      35.263 -16.759 -23.083  0.00  0.00    +0.161 C 
ATOM     21  C   UNL     1      35.706 -17.772 -20.951  0.00  0.00    +0.018 C 
ATOM     22  C   UNL     1      34.607 -19.035 -22.693  0.00  0.00    +0.018 C 
ATOM     23  C   UNL     1      35.778 -16.666 -21.798  0.00  0.00    +0.040 C 
ATOM     24  C   UNL     1      34.678 -17.930 -23.540  0.00  0.00    +0.040 C 
BRANCH  19  25
ATOM     25  N   UNL     1      35.050 -20.053 -20.559  0.00  0.00    -0.246 N 
ATOM     26  N   UNL     1      35.718 -21.754 -19.282  0.00  0.00    -0.224 NA
ATOM     27  C   UNL     1      33.909 -20.638 -20.070  0.00  0.00    +0.092 C 
ATOM     28  C   UNL     1      36.110 -20.764 -20.053  0.00  0.00    +0.172 C 
ATOM     29  C   UNL     1      34.348 -21.680 -19.289  0.00  0.00    +0.117 C 
ENDBRANCH  19  25
ENDBRANCH  18  20
ENDBRANCH   6  18
TORSDOF 5
ENDMDL
