MODEL 1
REMARK VINA RESULT:     -11.7      0.000      0.000
REMARK  Name = 15602701
REMARK  5 active torsions:
REMARK  status: ('A' for Active; 'I' for Inactive)
REMARK    1  A    between atoms: N_5  and  C_12
REMARK    2  A    between atoms: C_6  and  C_22
REMARK    3  A    between atoms: C_13  and  C_21
REMARK    4  A    between atoms: C_22  and  C_23
REMARK    5  A    between atoms: C_23  and  N_24
REMARK                            x       y       z     vdW  Elec       q    Type
REMARK                         _______ _______ _______ _____ _____    ______ ____
ROOT
ATOM      1  S   UNL     1      34.197 -15.116 -24.857  0.00  0.00    -0.056 S 
ATOM      2  O   UNL     1      35.431 -16.691 -20.667  0.00  0.00    -0.252 OA
ATOM      3  N   UNL     1      34.788 -14.426 -22.437  0.00  0.00    -0.223 NA
ATOM      4  N   UNL     1      34.832 -16.783 -22.936  0.00  0.00    -0.248 N 
ATOM      5  N   UNL     1      35.286 -18.737 -21.785  0.00  0.00    -0.268 N 
ATOM      6  C   UNL     1      34.182 -13.469 -24.446  0.00  0.00    +0.031 C 
ATOM      7  C   UNL     1      34.514 -13.272 -23.145  0.00  0.00    +0.103 C 
ATOM      8  C   UNL     1      34.652 -15.458 -23.238  0.00  0.00    +0.166 C 
ATOM      9  C   UNL     1      35.208 -17.338 -21.684  0.00  0.00    +0.310 C 
ATOM     10  H   UNL     1      34.685 -17.422 -23.671  0.00  0.00    +0.158 HD
ATOM     11  H   UNL     1      35.080 -19.119 -22.669  0.00  0.00    +0.156 HD
ENDROOT
BRANCH   5  12
ATOM     12  C   UNL     1      35.626 -19.666 -20.773  0.00  0.00    +0.052 C 
ATOM     13  C   UNL     1      34.961 -21.337 -19.184  0.00  0.00    +0.073 C 
ATOM     14  C   UNL     1      34.626 -20.421 -20.181  0.00  0.00    +0.019 C 
ATOM     15  C   UNL     1      36.952 -19.803 -20.396  0.00  0.00    +0.015 C 
ATOM     16  C   UNL     1      36.292 -21.487 -18.793  0.00  0.00    +0.004 C 
ATOM     17  C   UNL     1      37.287 -20.719 -19.398  0.00  0.00    +0.001 C 
BRANCH  13  21
ATOM     18  F   UNL     1      34.192 -22.524 -17.254  0.00  0.00    -0.166 F 
ATOM     19  F   UNL     1      32.690 -21.525 -18.458  0.00  0.00    -0.166 F 
ATOM     20  F   UNL     1      33.656 -23.325 -19.203  0.00  0.00    -0.166 F 
ATOM     21  C   UNL     1      33.897 -22.158 -18.537  0.00  0.00    +0.419 C 
ENDBRANCH  13  21
ENDBRANCH   5  12
BRANCH   6  22
ATOM     22  C   UNL     1      33.827 -12.442 -25.495  0.00  0.00    +0.056 C 
BRANCH  22  23
ATOM     23  C   UNL     1      34.431 -11.069 -25.203  0.00  0.00    +0.093 C 
BRANCH  23  24
ATOM     24  N   UNL     1      33.716 -10.403 -24.155  0.00  0.00    -0.320 N 
ATOM     25  N   UNL     1      32.273  -8.858 -21.914  0.00  0.00    -0.220 N 
ATOM     26  N   UNL     1      31.917  -7.928 -21.008  0.00  0.00    -0.178 NA
ATOM     27  N   UNL     1      35.149  -8.490 -24.174  0.00  0.00    -0.232 NA
ATOM     28  N   UNL     1      34.820  -6.596 -22.674  0.00  0.00    -0.245 NA
ATOM     29  C   UNL     1      33.371  -8.519 -22.649  0.00  0.00    +0.185 C 
ATOM     30  C   UNL     1      34.079  -9.139 -23.662  0.00  0.00    +0.128 C 
ATOM     31  C   UNL     1      33.755  -7.272 -22.184  0.00  0.00    +0.103 C 
ATOM     32  C   UNL     1      32.826  -6.962 -21.176  0.00  0.00    +0.134 C 
ATOM     33  C   UNL     1      31.491 -10.069 -22.011  0.00  0.00    +0.135 C 
ATOM     34  C   UNL     1      35.450  -7.276 -23.656  0.00  0.00    +0.251 C 
ATOM     35  H   UNL     1      32.933 -10.853 -23.763  0.00  0.00    +0.148 HD
ENDBRANCH  23  24
ENDBRANCH  22  23
ENDBRANCH   6  22
TORSDOF 5
ENDMDL
MODEL 2
REMARK VINA RESULT:     -11.6      7.009     13.561
REMARK  Name = 15602701
REMARK  5 active torsions:
REMARK  status: ('A' for Active; 'I' for Inactive)
REMARK    1  A    between atoms: N_5  and  C_12
REMARK    2  A    between atoms: C_6  and  C_22
REMARK    3  A    between atoms: C_13  and  C_21
REMARK    4  A    between atoms: C_22  and  C_23
REMARK    5  A    between atoms: C_23  and  N_24
REMARK                            x       y       z     vdW  Elec       q    Type
REMARK                         _______ _______ _______ _____ _____    ______ ____
ROOT
ATOM      1  S   UNL     1      34.494 -22.788 -16.859  0.00  0.00    -0.056 S 
ATOM      2  O   UNL     1      32.750 -20.338 -20.397  0.00  0.00    -0.252 OA
ATOM      3  N   UNL     1      32.315 -22.008 -18.009  0.00  0.00    -0.223 NA
ATOM      4  N   UNL     1      34.387 -21.289 -19.006  0.00  0.00    -0.248 N 
ATOM      5  N   UNL     1      35.023 -20.012 -20.828  0.00  0.00    -0.268 N 
ATOM      6  C   UNL     1      33.003 -23.263 -16.201  0.00  0.00    +0.031 C 
ATOM      7  C   UNL     1      31.960 -22.775 -16.917  0.00  0.00    +0.103 C 
ATOM      8  C   UNL     1      33.625 -21.946 -18.077  0.00  0.00    +0.166 C 
ATOM      9  C   UNL     1      33.928 -20.524 -20.112  0.00  0.00    +0.310 C 
ATOM     10  H   UNL     1      35.364 -21.355 -18.897  0.00  0.00    +0.158 HD
ATOM     11  H   UNL     1      35.914 -20.245 -20.480  0.00  0.00    +0.156 HD
ENDROOT
BRANCH   5  12
ATOM     12  C   UNL     1      35.004 -19.202 -21.988  0.00  0.00    +0.052 C 
ATOM     13  C   UNL     1      34.999 -17.026 -22.998  0.00  0.00    +0.073 C 
ATOM     14  C   UNL     1      35.018 -17.823 -21.854  0.00  0.00    +0.019 C 
ATOM     15  C   UNL     1      34.973 -19.805 -23.235  0.00  0.00    +0.015 C 
ATOM     16  C   UNL     1      34.968 -17.618 -24.261  0.00  0.00    +0.004 C 
ATOM     17  C   UNL     1      34.955 -19.008 -24.379  0.00  0.00    +0.001 C 
BRANCH  13  21
ATOM     18  F   UNL     1      33.846 -14.945 -23.256  0.00  0.00    -0.166 F 
ATOM     19  F   UNL     1      35.234 -15.101 -21.598  0.00  0.00    -0.166 F 
ATOM     20  F   UNL     1      35.987 -14.958 -23.633  0.00  0.00    -0.166 F 
ATOM     21  C   UNL     1      35.014 -15.540 -22.872  0.00  0.00    +0.419 C 
ENDBRANCH  13  21
ENDBRANCH   5  12
BRANCH   6  22
ATOM     22  C   UNL     1      32.976 -24.129 -14.963  0.00  0.00    +0.056 C 
BRANCH  22  23
ATOM     23  C   UNL     1      34.013 -23.703 -13.924  0.00  0.00    +0.093 C 
BRANCH  23  24
ATOM     24  N   UNL     1      35.221 -24.461 -14.062  0.00  0.00    -0.320 N 
ATOM     25  N   UNL     1      37.880 -26.006 -14.248  0.00  0.00    -0.220 N 
ATOM     26  N   UNL     1      39.142 -26.434 -14.057  0.00  0.00    -0.178 NA
ATOM     27  N   UNL     1      36.376 -23.225 -12.373  0.00  0.00    -0.232 NA
ATOM     28  N   UNL     1      38.681 -23.710 -11.744  0.00  0.00    -0.245 NA
ATOM     29  C   UNL     1      37.525 -24.961 -13.446  0.00  0.00    +0.185 C 
ATOM     30  C   UNL     1      36.371 -24.215 -13.293  0.00  0.00    +0.128 C 
ATOM     31  C   UNL     1      38.643 -24.693 -12.673  0.00  0.00    +0.103 C 
ATOM     32  C   UNL     1      39.604 -25.629 -13.094  0.00  0.00    +0.134 C 
ATOM     33  C   UNL     1      37.065 -26.665 -15.242  0.00  0.00    +0.135 C 
ATOM     34  C   UNL     1      37.515 -23.036 -11.665  0.00  0.00    +0.251 C 
ATOM     35  H   UNL     1      35.246 -25.188 -14.725  0.00  0.00    +0.148 HD
ENDBRANCH  23  24
ENDBRANCH  22  23
ENDBRANCH   6  22
TORSDOF 5
ENDMDL
MODEL 3
REMARK VINA RESULT:     -11.6      8.108     13.727
REMARK  Name = 15602701
REMARK  5 active torsions:
REMARK  status: ('A' for Active; 'I' for Inactive)
REMARK    1  A    between atoms: N_5  and  C_12
REMARK    2  A    between atoms: C_6  and  C_22
REMARK    3  A    between atoms: C_13  and  C_21
REMARK    4  A    between atoms: C_22  and  C_23
REMARK    5  A    between atoms: C_23  and  N_24
REMARK                            x       y       z     vdW  Elec       q    Type
REMARK                         _______ _______ _______ _____ _____    ______ ____
ROOT
ATOM      1  S   UNL     1      34.058 -23.386 -16.058  0.00  0.00    -0.056 S 
ATOM      2  O   UNL     1      33.413 -20.613 -19.726  0.00  0.00    -0.252 OA
ATOM      3  N   UNL     1      32.282 -22.235 -17.543  0.00  0.00    -0.223 NA
ATOM      4  N   UNL     1      34.591 -21.847 -18.111  0.00  0.00    -0.248 N 
ATOM      5  N   UNL     1      35.749 -20.654 -19.721  0.00  0.00    -0.268 N 
ATOM      6  C   UNL     1      32.415 -23.622 -15.705  0.00  0.00    +0.031 C 
ATOM      7  C   UNL     1      31.613 -22.956 -16.573  0.00  0.00    +0.103 C 
ATOM      8  C   UNL     1      33.575 -22.388 -17.369  0.00  0.00    +0.166 C 
ATOM      9  C   UNL     1      34.473 -20.994 -19.242  0.00  0.00    +0.310 C 
ATOM     10  H   UNL     1      35.508 -22.074 -17.830  0.00  0.00    +0.158 HD
ATOM     11  H   UNL     1      36.512 -21.038 -19.229  0.00  0.00    +0.156 HD
ENDROOT
BRANCH   5  12
ATOM     12  C   UNL     1      36.074 -19.830 -20.824  0.00  0.00    +0.052 C 
ATOM     13  C   UNL     1      35.566 -19.011 -23.021  0.00  0.00    +0.073 C 
ATOM     14  C   UNL     1      35.245 -19.824 -21.934  0.00  0.00    +0.019 C 
ATOM     15  C   UNL     1      37.213 -19.044 -20.770  0.00  0.00    +0.015 C 
ATOM     16  C   UNL     1      36.709 -18.213 -22.983  0.00  0.00    +0.004 C 
ATOM     17  C   UNL     1      37.534 -18.231 -21.857  0.00  0.00    +0.001 C 
BRANCH  13  21
ATOM     18  F   UNL     1      34.932 -17.946 -25.068  0.00  0.00    -0.166 F 
ATOM     19  F   UNL     1      34.794 -20.110 -25.000  0.00  0.00    -0.166 F 
ATOM     20  F   UNL     1      33.361 -18.897 -23.904  0.00  0.00    -0.166 F 
ATOM     21  C   UNL     1      34.684 -18.991 -24.224  0.00  0.00    +0.419 C 
ENDBRANCH  13  21
ENDBRANCH   5  12
BRANCH   6  22
ATOM     22  C   UNL     1      32.021 -24.497 -14.538  0.00  0.00    +0.056 C 
BRANCH  22  23
ATOM     23  C   UNL     1      32.900 -24.269 -13.308  0.00  0.00    +0.093 C 
BRANCH  23  24
ATOM     24  N   UNL     1      34.226 -24.766 -13.525  0.00  0.00    -0.320 N 
ATOM     25  N   UNL     1      37.115 -25.784 -13.852  0.00  0.00    -0.220 N 
ATOM     26  N   UNL     1      38.413 -26.078 -13.648  0.00  0.00    -0.178 NA
ATOM     27  N   UNL     1      35.020 -24.029 -11.394  0.00  0.00    -0.232 NA
ATOM     28  N   UNL     1      37.319 -24.382 -10.662  0.00  0.00    -0.245 NA
ATOM     29  C   UNL     1      36.527 -25.129 -12.810  0.00  0.00    +0.185 C 
ATOM     30  C   UNL     1      35.255 -24.641 -12.576  0.00  0.00    +0.128 C 
ATOM     31  C   UNL     1      37.521 -24.990 -11.855  0.00  0.00    +0.103 C 
ATOM     32  C   UNL     1      38.656 -25.591 -12.426  0.00  0.00    +0.134 C 
ATOM     33  C   UNL     1      36.504 -26.173 -15.102  0.00  0.00    +0.135 C 
ATOM     34  C   UNL     1      36.053 -23.938 -10.522  0.00  0.00    +0.251 C 
ATOM     35  H   UNL     1      34.426 -25.216 -14.377  0.00  0.00    +0.148 HD
ENDBRANCH  23  24
ENDBRANCH  22  23
ENDBRANCH   6  22
TORSDOF 5
ENDMDL
MODEL 4
REMARK VINA RESULT:     -11.3      5.552     11.825
REMARK  Name = 15602701
REMARK  5 active torsions:
REMARK  status: ('A' for Active; 'I' for Inactive)
REMARK    1  A    between atoms: N_5  and  C_12
REMARK    2  A    between atoms: C_6  and  C_22
REMARK    3  A    between atoms: C_13  and  C_21
REMARK    4  A    between atoms: C_22  and  C_23
REMARK    5  A    between atoms: C_23  and  N_24
REMARK                            x       y       z     vdW  Elec       q    Type
REMARK                         _______ _______ _______ _____ _____    ______ ____
ROOT
ATOM      1  S   UNL     1      34.948 -14.698 -23.200  0.00  0.00    -0.056 S 
ATOM      2  O   UNL     1      33.569 -10.768 -25.253  0.00  0.00    -0.252 OA
ATOM      3  N   UNL     1      33.720 -13.710 -25.249  0.00  0.00    -0.223 NA
ATOM      4  N   UNL     1      34.569 -12.140 -23.630  0.00  0.00    -0.248 N 
ATOM      5  N   UNL     1      34.600  -9.841 -23.372  0.00  0.00    -0.268 N 
ATOM      6  C   UNL     1      34.328 -15.755 -24.374  0.00  0.00    +0.031 C 
ATOM      7  C   UNL     1      33.716 -15.085 -25.382  0.00  0.00    +0.103 C 
ATOM      8  C   UNL     1      34.343 -13.393 -24.136  0.00  0.00    +0.166 C 
ATOM      9  C   UNL     1      34.180 -10.897 -24.198  0.00  0.00    +0.310 C 
ATOM     10  H   UNL     1      35.058 -12.096 -22.775  0.00  0.00    +0.158 HD
ATOM     11  H   UNL     1      35.083 -10.098 -22.554  0.00  0.00    +0.156 HD
ENDROOT
BRANCH   5  12
ATOM     12  C   UNL     1      34.415  -8.452 -23.572  0.00  0.00    +0.052 C 
ATOM     13  C   UNL     1      33.033  -6.499 -23.395  0.00  0.00    +0.073 C 
ATOM     14  C   UNL     1      33.215  -7.868 -23.199  0.00  0.00    +0.019 C 
ATOM     15  C   UNL     1      35.437  -7.706 -24.135  0.00  0.00    +0.015 C 
ATOM     16  C   UNL     1      34.053  -5.733 -23.961  0.00  0.00    +0.004 C 
ATOM     17  C   UNL     1      35.254  -6.337 -24.332  0.00  0.00    +0.001 C 
BRANCH  13  21
ATOM     18  F   UNL     1      31.135  -5.181 -24.018  0.00  0.00    -0.166 F 
ATOM     19  F   UNL     1      30.812  -6.734 -22.540  0.00  0.00    -0.166 F 
ATOM     20  F   UNL     1      31.908  -4.935 -22.001  0.00  0.00    -0.166 F 
ATOM     21  C   UNL     1      31.749  -5.852 -22.999  0.00  0.00    +0.419 C 
ENDBRANCH  13  21
ENDBRANCH   5  12
BRANCH   6  22
ATOM     22  C   UNL     1      34.504 -17.246 -24.203  0.00  0.00    +0.056 C 
BRANCH  22  23
ATOM     23  C   UNL     1      35.379 -17.601 -23.001  0.00  0.00    +0.093 C 
BRANCH  23  24
ATOM     24  N   UNL     1      34.720 -18.541 -22.144  0.00  0.00    -0.320 N 
ATOM     25  N   UNL     1      33.436 -20.589 -20.234  0.00  0.00    -0.220 N 
ATOM     26  N   UNL     1      33.234 -21.512 -19.275  0.00  0.00    -0.178 NA
ATOM     27  N   UNL     1      36.723 -19.117 -20.972  0.00  0.00    -0.232 NA
ATOM     28  N   UNL     1      36.754 -20.753 -19.164  0.00  0.00    -0.245 NA
ATOM     29  C   UNL     1      34.733 -20.178 -20.339  0.00  0.00    +0.185 C 
ATOM     30  C   UNL     1      35.393 -19.276 -21.153  0.00  0.00    +0.128 C 
ATOM     31  C   UNL     1      35.424 -20.888 -19.371  0.00  0.00    +0.103 C 
ATOM     32  C   UNL     1      34.451 -21.691 -18.751  0.00  0.00    +0.134 C 
ATOM     33  C   UNL     1      32.309 -20.148 -21.022  0.00  0.00    +0.135 C 
ATOM     34  C   UNL     1      37.314 -19.854 -20.002  0.00  0.00    +0.251 C 
ATOM     35  H   UNL     1      33.752 -18.678 -22.254  0.00  0.00    +0.148 HD
ENDBRANCH  23  24
ENDBRANCH  22  23
ENDBRANCH   6  22
TORSDOF 5
ENDMDL
MODEL 5
REMARK VINA RESULT:     -11.2      4.959      7.943
REMARK  Name = 15602701
REMARK  5 active torsions:
REMARK  status: ('A' for Active; 'I' for Inactive)
REMARK    1  A    between atoms: N_5  and  C_12
REMARK    2  A    between atoms: C_6  and  C_22
REMARK    3  A    between atoms: C_13  and  C_21
REMARK    4  A    between atoms: C_22  and  C_23
REMARK    5  A    between atoms: C_23  and  N_24
REMARK                            x       y       z     vdW  Elec       q    Type
REMARK                         _______ _______ _______ _____ _____    ______ ____
ROOT
ATOM      1  S   UNL     1      36.895 -20.431 -19.493  0.00  0.00    -0.056 S 
ATOM      2  O   UNL     1      35.438 -23.280 -16.128  0.00  0.00    -0.252 OA
ATOM      3  N   UNL     1      34.854 -21.708 -18.550  0.00  0.00    -0.223 NA
ATOM      4  N   UNL     1      36.935 -21.956 -17.361  0.00  0.00    -0.248 N 
ATOM      5  N   UNL     1      37.676 -23.090 -15.485  0.00  0.00    -0.268 N 
ATOM      6  C   UNL     1      35.402 -20.295 -20.289  0.00  0.00    +0.031 C 
ATOM      7  C   UNL     1      34.435 -21.020 -19.673  0.00  0.00    +0.103 C 
ATOM      8  C   UNL     1      36.132 -21.471 -18.360  0.00  0.00    +0.166 C 
ATOM      9  C   UNL     1      36.563 -22.826 -16.302  0.00  0.00    +0.310 C 
ATOM     10  H   UNL     1      37.877 -21.668 -17.379  0.00  0.00    +0.158 HD
ATOM     11  H   UNL     1      38.518 -22.654 -15.749  0.00  0.00    +0.156 HD
ENDROOT
BRANCH   5  12
ATOM     12  C   UNL     1      37.735 -23.905 -14.330  0.00  0.00    +0.052 C 
ATOM     13  C   UNL     1      37.008 -24.388 -12.095  0.00  0.00    +0.073 C 
ATOM     14  C   UNL     1      36.950 -23.584 -13.234  0.00  0.00    +0.019 C 
ATOM     15  C   UNL     1      38.574 -25.006 -14.319  0.00  0.00    +0.015 C 
ATOM     16  C   UNL     1      37.848 -25.501 -12.068  0.00  0.00    +0.004 C 
ATOM     17  C   UNL     1      38.631 -25.810 -13.180  0.00  0.00    +0.001 C 
BRANCH  13  21
ATOM     18  F   UNL     1      34.996 -23.432 -11.219  0.00  0.00    -0.166 F 
ATOM     19  F   UNL     1      35.804 -25.152 -10.175  0.00  0.00    -0.166 F 
ATOM     20  F   UNL     1      36.805 -23.227 -10.029  0.00  0.00    -0.166 F 
ATOM     21  C   UNL     1      36.169 -24.058 -10.906  0.00  0.00    +0.419 C 
ENDBRANCH  13  21
ENDBRANCH   5  12
BRANCH   6  22
ATOM     22  C   UNL     1      35.291 -19.434 -21.526  0.00  0.00    +0.056 C 
BRANCH  22  23
ATOM     23  C   UNL     1      36.340 -18.322 -21.564  0.00  0.00    +0.093 C 
BRANCH  23  24
ATOM     24  N   UNL     1      35.721 -17.034 -21.673  0.00  0.00    -0.320 N 
ATOM     25  N   UNL     1      34.372 -14.291 -22.052  0.00  0.00    -0.220 N 
ATOM     26  N   UNL     1      33.768 -13.210 -22.580  0.00  0.00    -0.178 NA
ATOM     27  N   UNL     1      35.349 -17.235 -24.025  0.00  0.00    -0.232 NA
ATOM     28  N   UNL     1      34.277 -15.478 -25.333  0.00  0.00    -0.245 NA
ATOM     29  C   UNL     1      34.647 -15.269 -22.963  0.00  0.00    +0.185 C 
ATOM     30  C   UNL     1      35.239 -16.515 -22.886  0.00  0.00    +0.128 C 
ATOM     31  C   UNL     1      34.182 -14.784 -24.175  0.00  0.00    +0.103 C 
ATOM     32  C   UNL     1      33.654 -13.516 -23.877  0.00  0.00    +0.134 C 
ATOM     33  C   UNL     1      34.658 -14.305 -20.637  0.00  0.00    +0.135 C 
ATOM     34  C   UNL     1      34.868 -16.680 -25.163  0.00  0.00    +0.251 C 
ATOM     35  H   UNL     1      35.629 -16.488 -20.859  0.00  0.00    +0.148 HD
ENDBRANCH  23  24
ENDBRANCH  22  23
ENDBRANCH   6  22
TORSDOF 5
ENDMDL
MODEL 6
REMARK VINA RESULT:     -11.2      3.938      6.785
REMARK  Name = 15602701
REMARK  5 active torsions:
REMARK  status: ('A' for Active; 'I' for Inactive)
REMARK    1  A    between atoms: N_5  and  C_12
REMARK    2  A    between atoms: C_6  and  C_22
REMARK    3  A    between atoms: C_13  and  C_21
REMARK    4  A    between atoms: C_22  and  C_23
REMARK    5  A    between atoms: C_23  and  N_24
REMARK                            x       y       z     vdW  Elec       q    Type
REMARK                         _______ _______ _______ _____ _____    ______ ____
ROOT
ATOM      1  S   UNL     1      36.196 -20.431 -20.111  0.00  0.00    -0.056 S 
ATOM      2  O   UNL     1      32.275 -21.932 -18.128  0.00  0.00    -0.252 OA
ATOM      3  N   UNL     1      33.616 -20.418 -20.270  0.00  0.00    -0.223 NA
ATOM      4  N   UNL     1      34.586 -21.640 -18.434  0.00  0.00    -0.248 N 
ATOM      5  N   UNL     1      33.809 -22.890 -16.648  0.00  0.00    -0.268 N 
ATOM      6  C   UNL     1      35.456 -19.587 -21.385  0.00  0.00    +0.031 C 
ATOM      7  C   UNL     1      34.104 -19.675 -21.327  0.00  0.00    +0.103 C 
ATOM      8  C   UNL     1      34.629 -20.865 -19.563  0.00  0.00    +0.166 C 
ATOM      9  C   UNL     1      33.431 -22.135 -17.771  0.00  0.00    +0.310 C 
ATOM     10  H   UNL     1      35.454 -21.881 -18.035  0.00  0.00    +0.158 HD
ATOM     11  H   UNL     1      34.777 -22.966 -16.485  0.00  0.00    +0.156 HD
ENDROOT
BRANCH   5  12
ATOM     12  C   UNL     1      32.970 -23.554 -15.722  0.00  0.00    +0.052 C 
ATOM     13  C   UNL     1      30.773 -24.214 -15.018  0.00  0.00    +0.073 C 
ATOM     14  C   UNL     1      31.600 -23.559 -15.931  0.00  0.00    +0.019 C 
ATOM     15  C   UNL     1      33.535 -24.187 -14.628  0.00  0.00    +0.015 C 
ATOM     16  C   UNL     1      31.327 -24.856 -13.910  0.00  0.00    +0.004 C 
ATOM     17  C   UNL     1      32.709 -24.842 -13.715  0.00  0.00    +0.001 C 
BRANCH  13  21
ATOM     18  F   UNL     1      28.925 -24.632 -16.478  0.00  0.00    -0.166 F 
ATOM     19  F   UNL     1      28.633 -25.066 -14.374  0.00  0.00    -0.166 F 
ATOM     20  F   UNL     1      28.728 -23.002 -15.053  0.00  0.00    -0.166 F 
ATOM     21  C   UNL     1      29.296 -24.231 -15.227  0.00  0.00    +0.419 C 
ENDBRANCH  13  21
ENDBRANCH   5  12
BRANCH   6  22
ATOM     22  C   UNL     1      36.312 -18.861 -22.396  0.00  0.00    +0.056 C 
BRANCH  22  23
ATOM     23  C   UNL     1      35.485 -18.070 -23.408  0.00  0.00    +0.093 C 
BRANCH  23  24
ATOM     24  N   UNL     1      35.105 -16.794 -22.877  0.00  0.00    -0.320 N 
ATOM     25  N   UNL     1      34.242 -14.013 -21.873  0.00  0.00    -0.220 N 
ATOM     26  N   UNL     1      33.771 -12.753 -21.800  0.00  0.00    -0.178 NA
ATOM     27  N   UNL     1      34.331 -15.970 -24.983  0.00  0.00    -0.232 NA
ATOM     28  N   UNL     1      33.406 -13.730 -25.249  0.00  0.00    -0.245 NA
ATOM     29  C   UNL     1      34.182 -14.553 -23.124  0.00  0.00    +0.185 C 
ATOM     30  C   UNL     1      34.539 -15.775 -23.661  0.00  0.00    +0.128 C 
ATOM     31  C   UNL     1      33.627 -13.567 -23.924  0.00  0.00    +0.103 C 
ATOM     32  C   UNL     1      33.397 -12.486 -23.056  0.00  0.00    +0.134 C 
ATOM     33  C   UNL     1      34.743 -14.637 -20.670  0.00  0.00    +0.135 C 
ATOM     34  C   UNL     1      33.784 -14.949 -25.686  0.00  0.00    +0.251 C 
ATOM     35  H   UNL     1      35.246 -16.624 -21.918  0.00  0.00    +0.148 HD
ENDBRANCH  23  24
ENDBRANCH  22  23
ENDBRANCH   6  22
TORSDOF 5
ENDMDL
MODEL 7
REMARK VINA RESULT:     -10.9      6.998     13.595
REMARK  Name = 15602701
REMARK  5 active torsions:
REMARK  status: ('A' for Active; 'I' for Inactive)
REMARK    1  A    between atoms: N_5  and  C_12
REMARK    2  A    between atoms: C_6  and  C_22
REMARK    3  A    between atoms: C_13  and  C_21
REMARK    4  A    between atoms: C_22  and  C_23
REMARK    5  A    between atoms: C_23  and  N_24
REMARK                            x       y       z     vdW  Elec       q    Type
REMARK                         _______ _______ _______ _____ _____    ______ ____
ROOT
ATOM      1  S   UNL     1      34.466 -22.680 -16.858  0.00  0.00    -0.056 S 
ATOM      2  O   UNL     1      32.736 -20.286 -20.440  0.00  0.00    -0.252 OA
ATOM      3  N   UNL     1      32.291 -21.911 -18.023  0.00  0.00    -0.223 NA
ATOM      4  N   UNL     1      34.368 -21.219 -19.031  0.00  0.00    -0.248 N 
ATOM      5  N   UNL     1      35.011 -19.977 -20.875  0.00  0.00    -0.268 N 
ATOM      6  C   UNL     1      32.972 -23.136 -16.193  0.00  0.00    +0.031 C 
ATOM      7  C   UNL     1      31.931 -22.657 -16.918  0.00  0.00    +0.103 C 
ATOM      8  C   UNL     1      33.602 -21.856 -18.091  0.00  0.00    +0.166 C 
ATOM      9  C   UNL     1      33.913 -20.472 -20.151  0.00  0.00    +0.310 C 
ATOM     10  H   UNL     1      35.344 -21.288 -18.920  0.00  0.00    +0.158 HD
ATOM     11  H   UNL     1      35.901 -20.208 -20.521  0.00  0.00    +0.156 HD
ENDROOT
BRANCH   5  12
ATOM     12  C   UNL     1      34.996 -19.189 -22.049  0.00  0.00    +0.052 C 
ATOM     13  C   UNL     1      34.989 -17.030 -23.098  0.00  0.00    +0.073 C 
ATOM     14  C   UNL     1      35.003 -17.807 -21.939  0.00  0.00    +0.019 C 
ATOM     15  C   UNL     1      34.977 -19.814 -23.285  0.00  0.00    +0.015 C 
ATOM     16  C   UNL     1      34.970 -17.644 -24.350  0.00  0.00    +0.004 C 
ATOM     17  C   UNL     1      34.963 -19.037 -24.444  0.00  0.00    +0.001 C 
BRANCH  13  21
ATOM     18  F   UNL     1      33.823 -14.961 -23.384  0.00  0.00    -0.166 F 
ATOM     19  F   UNL     1      35.224 -15.080 -21.733  0.00  0.00    -0.166 F 
ATOM     20  F   UNL     1      35.962 -14.969 -23.775  0.00  0.00    -0.166 F 
ATOM     21  C   UNL     1      34.997 -15.542 -22.998  0.00  0.00    +0.419 C 
ENDBRANCH  13  21
ENDBRANCH   5  12
BRANCH   6  22
ATOM     22  C   UNL     1      32.940 -23.980 -14.940  0.00  0.00    +0.056 C 
BRANCH  22  23
ATOM     23  C   UNL     1      33.957 -25.120 -14.972  0.00  0.00    +0.093 C 
BRANCH  23  24
ATOM     24  N   UNL     1      35.150 -24.767 -14.259  0.00  0.00    -0.320 N 
ATOM     25  N   UNL     1      37.785 -24.112 -12.806  0.00  0.00    -0.220 N 
ATOM     26  N   UNL     1      39.066 -24.109 -12.390  0.00  0.00    -0.178 NA
ATOM     27  N   UNL     1      36.488 -26.411 -15.364  0.00  0.00    -0.232 NA
ATOM     28  N   UNL     1      38.858 -26.708 -14.878  0.00  0.00    -0.245 NA
ATOM     29  C   UNL     1      37.518 -25.048 -13.762  0.00  0.00    +0.185 C 
ATOM     30  C   UNL     1      36.383 -25.408 -14.463  0.00  0.00    +0.128 C 
ATOM     31  C   UNL     1      38.720 -25.700 -13.985  0.00  0.00    +0.103 C 
ATOM     32  C   UNL     1      39.633 -25.081 -13.114  0.00  0.00    +0.134 C 
ATOM     33  C   UNL     1      36.863 -23.167 -12.221  0.00  0.00    +0.135 C 
ATOM     34  C   UNL     1      37.702 -26.991 -15.514  0.00  0.00    +0.251 C 
ATOM     35  H   UNL     1      35.102 -24.040 -13.597  0.00  0.00    +0.148 HD
ENDBRANCH  23  24
ENDBRANCH  22  23
ENDBRANCH   6  22
TORSDOF 5
ENDMDL
MODEL 8
REMARK VINA RESULT:     -10.8      5.367     12.274
REMARK  Name = 15602701
REMARK  5 active torsions:
REMARK  status: ('A' for Active; 'I' for Inactive)
REMARK    1  A    between atoms: N_5  and  C_12
REMARK    2  A    between atoms: C_6  and  C_22
REMARK    3  A    between atoms: C_13  and  C_21
REMARK    4  A    between atoms: C_22  and  C_23
REMARK    5  A    between atoms: C_23  and  N_24
REMARK                            x       y       z     vdW  Elec       q    Type
REMARK                         _______ _______ _______ _____ _____    ______ ____
ROOT
ATOM      1  S   UNL     1      34.796 -19.360 -21.425  0.00  0.00    -0.056 S 
ATOM      2  O   UNL     1      36.081 -15.409 -23.498  0.00  0.00    -0.252 OA
ATOM      3  N   UNL     1      36.769 -17.741 -21.834  0.00  0.00    -0.223 NA
ATOM      4  N   UNL     1      34.659 -17.160 -22.842  0.00  0.00    -0.248 N 
ATOM      5  N   UNL     1      33.842 -15.444 -24.162  0.00  0.00    -0.268 N 
ATOM      6  C   UNL     1      36.308 -19.718 -20.740  0.00  0.00    +0.031 C 
ATOM      7  C   UNL     1      37.234 -18.775 -21.045  0.00  0.00    +0.103 C 
ATOM      8  C   UNL     1      35.498 -17.945 -22.096  0.00  0.00    +0.166 C 
ATOM      9  C   UNL     1      34.978 -15.943 -23.503  0.00  0.00    +0.310 C 
ATOM     10  H   UNL     1      33.729 -17.474 -22.930  0.00  0.00    +0.158 HD
ATOM     11  H   UNL     1      33.022 -15.982 -24.077  0.00  0.00    +0.156 HD
ENDROOT
BRANCH   5  12
ATOM     12  C   UNL     1      33.731 -14.262 -24.933  0.00  0.00    +0.052 C 
ATOM     13  C   UNL     1      33.953 -11.880 -25.120  0.00  0.00    +0.073 C 
ATOM     14  C   UNL     1      34.062 -13.045 -24.359  0.00  0.00    +0.019 C 
ATOM     15  C   UNL     1      33.295 -14.347 -26.244  0.00  0.00    +0.015 C 
ATOM     16  C   UNL     1      33.516 -11.949 -26.442  0.00  0.00    +0.004 C 
ATOM     17  C   UNL     1      33.186 -13.182 -27.004  0.00  0.00    +0.001 C 
BRANCH  13  21
ATOM     18  F   UNL     1      34.775 -10.650 -23.239  0.00  0.00    -0.166 F 
ATOM     19  F   UNL     1      35.276  -9.890 -25.207  0.00  0.00    -0.166 F 
ATOM     20  F   UNL     1      33.242  -9.709 -24.461  0.00  0.00    -0.166 F 
ATOM     21  C   UNL     1      34.306 -10.561 -24.519  0.00  0.00    +0.419 C 
ENDBRANCH  13  21
ENDBRANCH   5  12
BRANCH   6  22
ATOM     22  C   UNL     1      36.472 -20.968 -19.908  0.00  0.00    +0.056 C 
BRANCH  22  23
ATOM     23  C   UNL     1      35.155 -21.447 -19.299  0.00  0.00    +0.093 C 
BRANCH  23  24
ATOM     24  N   UNL     1      35.367 -22.036 -18.010  0.00  0.00    -0.320 N 
ATOM     25  N   UNL     1      35.675 -23.321 -15.227  0.00  0.00    -0.220 N 
ATOM     26  N   UNL     1      35.430 -23.900 -14.037  0.00  0.00    -0.178 NA
ATOM     27  N   UNL     1      33.039 -22.414 -17.623  0.00  0.00    -0.232 NA
ATOM     28  N   UNL     1      32.205 -23.446 -15.577  0.00  0.00    -0.245 NA
ATOM     29  C   UNL     1      34.552 -23.070 -15.960  0.00  0.00    +0.185 C 
ATOM     30  C   UNL     1      34.320 -22.506 -17.200  0.00  0.00    +0.128 C 
ATOM     31  C   UNL     1      33.498 -23.523 -15.184  0.00  0.00    +0.103 C 
ATOM     32  C   UNL     1      34.099 -24.022 -14.015  0.00  0.00    +0.134 C 
ATOM     33  C   UNL     1      37.043 -23.035 -15.592  0.00  0.00    +0.135 C 
ATOM     34  C   UNL     1      32.074 -22.883 -16.797  0.00  0.00    +0.251 C 
ATOM     35  H   UNL     1      36.290 -22.115 -17.676  0.00  0.00    +0.148 HD
ENDBRANCH  23  24
ENDBRANCH  22  23
ENDBRANCH   6  22
TORSDOF 5
ENDMDL
MODEL 9
REMARK VINA RESULT:     -10.7      5.553     11.983
REMARK  Name = 15602701
REMARK  5 active torsions:
REMARK  status: ('A' for Active; 'I' for Inactive)
REMARK    1  A    between atoms: N_5  and  C_12
REMARK    2  A    between atoms: C_6  and  C_22
REMARK    3  A    between atoms: C_13  and  C_21
REMARK    4  A    between atoms: C_22  and  C_23
REMARK    5  A    between atoms: C_23  and  N_24
REMARK                            x       y       z     vdW  Elec       q    Type
REMARK                         _______ _______ _______ _____ _____    ______ ____
ROOT
ATOM      1  S   UNL     1      35.495 -16.117 -23.844  0.00  0.00    -0.056 S 
ATOM      2  O   UNL     1      33.980 -12.355 -21.585  0.00  0.00    -0.252 OA
ATOM      3  N   UNL     1      34.849 -15.169 -21.528  0.00  0.00    -0.223 NA
ATOM      4  N   UNL     1      34.668 -13.670 -23.405  0.00  0.00    -0.248 N 
ATOM      5  N   UNL     1      34.034 -11.470 -23.746  0.00  0.00    -0.268 N 
ATOM      6  C   UNL     1      35.604 -17.127 -22.484  0.00  0.00    +0.031 C 
ATOM      7  C   UNL     1      35.230 -16.485 -21.349  0.00  0.00    +0.103 C 
ATOM      8  C   UNL     1      34.949 -14.867 -22.803  0.00  0.00    +0.166 C 
ATOM      9  C   UNL     1      34.202 -12.480 -22.784  0.00  0.00    +0.310 C 
ATOM     10  H   UNL     1      34.803 -13.628 -24.381  0.00  0.00    +0.158 HD
ATOM     11  H   UNL     1      34.252 -11.718 -24.674  0.00  0.00    +0.156 HD
ENDROOT
BRANCH   5  12
ATOM     12  C   UNL     1      33.589 -10.142 -23.547  0.00  0.00    +0.052 C 
ATOM     13  C   UNL     1      34.019  -7.782 -23.602  0.00  0.00    +0.073 C 
ATOM     14  C   UNL     1      34.458  -9.091 -23.798  0.00  0.00    +0.019 C 
ATOM     15  C   UNL     1      32.295  -9.919 -23.107  0.00  0.00    +0.015 C 
ATOM     16  C   UNL     1      32.718  -7.540 -23.159  0.00  0.00    +0.004 C 
ATOM     17  C   UNL     1      31.857  -8.609 -22.911  0.00  0.00    +0.001 C 
BRANCH  13  21
ATOM     18  F   UNL     1      35.368  -6.570 -25.164  0.00  0.00    -0.166 F 
ATOM     19  F   UNL     1      34.383  -5.418 -23.612  0.00  0.00    -0.166 F 
ATOM     20  F   UNL     1      36.074  -6.690 -23.111  0.00  0.00    -0.166 F 
ATOM     21  C   UNL     1      34.940  -6.639 -23.868  0.00  0.00    +0.419 C 
ENDBRANCH  13  21
ENDBRANCH   5  12
BRANCH   6  22
ATOM     22  C   UNL     1      36.071 -18.554 -22.650  0.00  0.00    +0.056 C 
BRANCH  22  23
ATOM     23  C   UNL     1      36.529 -19.180 -21.333  0.00  0.00    +0.093 C 
BRANCH  23  24
ATOM     24  N   UNL     1      35.456 -19.887 -20.698  0.00  0.00    -0.320 N 
ATOM     25  N   UNL     1      33.248 -21.457 -19.233  0.00  0.00    -0.220 N 
ATOM     26  N   UNL     1      32.576 -22.246 -18.372  0.00  0.00    -0.178 NA
ATOM     27  N   UNL     1      36.864 -20.836 -19.016  0.00  0.00    -0.232 NA
ATOM     28  N   UNL     1      36.009 -22.318 -17.279  0.00  0.00    -0.245 NA
ATOM     29  C   UNL     1      34.583 -21.365 -18.969  0.00  0.00    +0.185 C 
ATOM     30  C   UNL     1      35.636 -20.693 -19.562  0.00  0.00    +0.128 C 
ATOM     31  C   UNL     1      34.793 -22.154 -17.850  0.00  0.00    +0.103 C 
ATOM     32  C   UNL     1      33.525 -22.669 -17.530  0.00  0.00    +0.134 C 
ATOM     33  C   UNL     1      32.518 -20.817 -20.303  0.00  0.00    +0.135 C 
ATOM     34  C   UNL     1      36.974 -21.628 -17.923  0.00  0.00    +0.251 C 
ATOM     35  H   UNL     1      34.551 -19.802 -21.075  0.00  0.00    +0.148 HD
ENDBRANCH  23  24
ENDBRANCH  22  23
ENDBRANCH   6  22
TORSDOF 5
ENDMDL
