MODEL 1
REMARK VINA RESULT:     -12.3      0.000      0.000
REMARK  Name = 448384
REMARK  11 active torsions:
REMARK  status: ('A' for Active; 'I' for Inactive)
REMARK    1  A    between atoms: C_1  and  C_3
REMARK    2  A    between atoms: C_1  and  C_6
REMARK    3  A    between atoms: C_1  and  C_19
REMARK    4  A    between atoms: C_3  and  O_4
REMARK    5  A    between atoms: C_6  and  C_7
REMARK    6  A    between atoms: C_7  and  N_10
REMARK    7  A    between atoms: C_19  and  C_21
REMARK    8  A    between atoms: C_21  and  C_22
REMARK    9  A    between atoms: C_25  and  C_28
REMARK   10  A    between atoms: C_33  and  O_34
REMARK   11  A    between atoms: O_34  and  C_35
REMARK                            x       y       z     vdW  Elec       q    Type
REMARK                         _______ _______ _______ _____ _____    ______ ____
ROOT
ATOM      1  C   UNL     1      32.389 -22.623 -16.120  0.00  0.00    +0.108 C 
ENDROOT
BRANCH   1   3
ATOM      2  O   UNL     1      30.509 -24.140 -15.828  0.00  0.00    -0.250 OA
ATOM      3  C   UNL     1      30.948 -23.088 -16.275  0.00  0.00    +0.314 C 
BRANCH   3   4
ATOM      4  O   UNL     1      30.181 -22.206 -16.963  0.00  0.00    -0.480 OA
ATOM      5  H   UNL     1      30.581 -21.483 -17.406  0.00  0.00    +0.295 HD
ENDBRANCH   3   4
ENDBRANCH   1   3
BRANCH   1   6
ATOM      6  C   UNL     1      32.907 -22.960 -14.706  0.00  0.00    +0.034 C 
BRANCH   6   7
ATOM      7  C   UNL     1      33.287 -24.429 -14.521  0.00  0.00    +0.102 C 
BRANCH   7  10
ATOM      8  O   UNL     1      35.610 -25.828 -15.757  0.00  0.00    -0.269 OA
ATOM      9  O   UNL     1      34.431 -23.512 -11.922  0.00  0.00    -0.269 OA
ATOM     10  N   UNL     1      34.612 -24.610 -14.002  0.00  0.00    -0.223 N 
ATOM     11  C   UNL     1      35.625 -25.282 -14.670  0.00  0.00    +0.255 C 
ATOM     12  C   UNL     1      35.040 -24.134 -12.771  0.00  0.00    +0.255 C 
ATOM     13  C   UNL     1      36.798 -25.222 -13.797  0.00  0.00    +0.058 C 
ATOM     14  C   UNL     1      36.444 -24.528 -12.649  0.00  0.00    +0.058 C 
ATOM     15  C   UNL     1      38.068 -25.728 -13.981  0.00  0.00    +0.005 C 
ATOM     16  C   UNL     1      37.341 -24.304 -11.626  0.00  0.00    +0.005 C 
ATOM     17  C   UNL     1      38.994 -25.513 -12.958  0.00  0.00    +0.000 C 
ATOM     18  C   UNL     1      38.634 -24.808 -11.790  0.00  0.00    +0.000 C 
ENDBRANCH   7  10
ENDBRANCH   6   7
ENDBRANCH   1   6
BRANCH   1  19
ATOM     19  C   UNL     1      33.248 -23.328 -17.188  0.00  0.00    +0.080 C 
BRANCH  19  21
ATOM     20  O   UNL     1      35.566 -22.783 -16.777  0.00  0.00    -0.291 OA
ATOM     21  C   UNL     1      34.564 -22.609 -17.466  0.00  0.00    +0.174 C 
BRANCH  21  22
ATOM     22  C   UNL     1      34.627 -21.653 -18.610  0.00  0.00    +0.035 C 
ATOM     23  C   UNL     1      33.450 -21.191 -19.200  0.00  0.00    +0.003 C 
ATOM     24  C   UNL     1      35.864 -21.221 -19.089  0.00  0.00    +0.003 C 
ATOM     25  C   UNL     1      34.747 -19.866 -20.748  0.00  0.00    +0.000 C 
ATOM     26  C   UNL     1      33.510 -20.298 -20.269  0.00  0.00    +0.000 C 
ATOM     27  C   UNL     1      35.924 -20.328 -20.159  0.00  0.00    +0.000 C 
BRANCH  25  28
ATOM     28  C   UNL     1      34.810 -18.940 -21.858  0.00  0.00    +0.000 C 
ATOM     29  C   UNL     1      34.257 -19.291 -23.091  0.00  0.00    +0.003 C 
ATOM     30  C   UNL     1      35.426 -17.698 -21.698  0.00  0.00    +0.003 C 
ATOM     31  C   UNL     1      34.319 -18.399 -24.162  0.00  0.00    +0.037 C 
ATOM     32  C   UNL     1      35.487 -16.808 -22.769  0.00  0.00    +0.037 C 
ATOM     33  C   UNL     1      34.935 -17.158 -24.001  0.00  0.00    +0.139 C 
BRANCH  33  34
ATOM     34  O   UNL     1      34.992 -16.288 -25.046  0.00  0.00    -0.475 OA
BRANCH  34  35
ATOM     35  C   UNL     1      33.866 -15.433 -25.243  0.00  0.00    +0.206 C 
ATOM     36  C   UNL     1      34.057 -14.172 -24.428  0.00  0.00    +0.051 C 
ENDBRANCH  34  35
ENDBRANCH  33  34
ENDBRANCH  25  28
ENDBRANCH  21  22
ENDBRANCH  19  21
ENDBRANCH   1  19
TORSDOF 11
ENDMDL
MODEL 2
REMARK VINA RESULT:     -12.0      4.751     13.269
REMARK  Name = 448384
REMARK  11 active torsions:
REMARK  status: ('A' for Active; 'I' for Inactive)
REMARK    1  A    between atoms: C_1  and  C_3
REMARK    2  A    between atoms: C_1  and  C_6
REMARK    3  A    between atoms: C_1  and  C_19
REMARK    4  A    between atoms: C_3  and  O_4
REMARK    5  A    between atoms: C_6  and  C_7
REMARK    6  A    between atoms: C_7  and  N_10
REMARK    7  A    between atoms: C_19  and  C_21
REMARK    8  A    between atoms: C_21  and  C_22
REMARK    9  A    between atoms: C_25  and  C_28
REMARK   10  A    between atoms: C_33  and  O_34
REMARK   11  A    between atoms: O_34  and  C_35
REMARK                            x       y       z     vdW  Elec       q    Type
REMARK                         _______ _______ _______ _____ _____    ______ ____
ROOT
ATOM      1  C   UNL     1      33.764 -14.123 -23.304  0.00  0.00    +0.108 C 
ENDROOT
BRANCH   1   3
ATOM      2  O   UNL     1      34.791 -13.828 -21.118  0.00  0.00    -0.250 OA
ATOM      3  C   UNL     1      33.796 -13.754 -21.827  0.00  0.00    +0.314 C 
BRANCH   3   4
ATOM      4  O   UNL     1      32.595 -13.321 -21.367  0.00  0.00    -0.480 OA
ATOM      5  H   UNL     1      32.214 -13.717 -20.608  0.00  0.00    +0.295 HD
ENDBRANCH   3   4
ENDBRANCH   1   3
BRANCH   1   6
ATOM      6  C   UNL     1      33.344 -12.901 -24.148  0.00  0.00    +0.034 C 
BRANCH   6   7
ATOM      7  C   UNL     1      34.517 -12.039 -24.615  0.00  0.00    +0.102 C 
BRANCH   7  10
ATOM      8  O   UNL     1      36.169  -9.702 -25.445  0.00  0.00    -0.269 OA
ATOM      9  O   UNL     1      32.592 -10.788 -22.708  0.00  0.00    -0.269 OA
ATOM     10  N   UNL     1      34.411 -10.668 -24.206  0.00  0.00    -0.223 N 
ATOM     11  C   UNL     1      35.238  -9.653 -24.662  0.00  0.00    +0.255 C 
ATOM     12  C   UNL     1      33.467 -10.192 -23.308  0.00  0.00    +0.255 C 
ATOM     13  C   UNL     1      34.779  -8.428 -24.008  0.00  0.00    +0.058 C 
ATOM     14  C   UNL     1      33.707  -8.754 -23.189  0.00  0.00    +0.058 C 
ATOM     15  C   UNL     1      35.251  -7.136 -24.112  0.00  0.00    +0.005 C 
ATOM     16  C   UNL     1      33.053  -7.806 -22.431  0.00  0.00    +0.005 C 
ATOM     17  C   UNL     1      34.602  -6.158 -23.353  0.00  0.00    +0.000 C 
ATOM     18  C   UNL     1      33.514  -6.490 -22.520  0.00  0.00    +0.000 C 
ENDBRANCH   7  10
ENDBRANCH   6   7
ENDBRANCH   1   6
BRANCH   1  19
ATOM     19  C   UNL     1      35.169 -14.603 -23.718  0.00  0.00    +0.080 C 
BRANCH  19  21
ATOM     20  O   UNL     1      35.272 -16.359 -25.376  0.00  0.00    -0.291 OA
ATOM     21  C   UNL     1      35.189 -16.054 -24.188  0.00  0.00    +0.174 C 
BRANCH  21  22
ATOM     22  C   UNL     1      35.093 -17.137 -23.167  0.00  0.00    +0.035 C 
ATOM     23  C   UNL     1      35.657 -16.957 -21.904  0.00  0.00    +0.003 C 
ATOM     24  C   UNL     1      34.437 -18.329 -23.475  0.00  0.00    +0.003 C 
ATOM     25  C   UNL     1      34.911 -19.162 -21.258  0.00  0.00    +0.000 C 
ATOM     26  C   UNL     1      35.567 -17.970 -20.950  0.00  0.00    +0.000 C 
ATOM     27  C   UNL     1      34.347 -19.342 -22.520  0.00  0.00    +0.000 C 
BRANCH  25  28
ATOM     28  C   UNL     1      34.818 -20.214 -20.268  0.00  0.00    +0.000 C 
ATOM     29  C   UNL     1      33.566 -20.679 -19.862  0.00  0.00    +0.003 C 
ATOM     30  C   UNL     1      35.977 -20.761 -19.718  0.00  0.00    +0.003 C 
ATOM     31  C   UNL     1      33.475 -21.691 -18.907  0.00  0.00    +0.037 C 
ATOM     32  C   UNL     1      35.885 -21.774 -18.764  0.00  0.00    +0.037 C 
ATOM     33  C   UNL     1      34.634 -22.238 -18.357  0.00  0.00    +0.139 C 
BRANCH  33  34
ATOM     34  O   UNL     1      34.544 -23.228 -17.427  0.00  0.00    -0.475 OA
BRANCH  34  35
ATOM     35  C   UNL     1      33.259 -23.466 -16.854  0.00  0.00    +0.206 C 
ATOM     36  C   UNL     1      33.299 -23.101 -15.385  0.00  0.00    +0.051 C 
ENDBRANCH  34  35
ENDBRANCH  33  34
ENDBRANCH  25  28
ENDBRANCH  21  22
ENDBRANCH  19  21
ENDBRANCH   1  19
TORSDOF 11
ENDMDL
MODEL 3
REMARK VINA RESULT:     -11.9      4.725     13.332
REMARK  Name = 448384
REMARK  11 active torsions:
REMARK  status: ('A' for Active; 'I' for Inactive)
REMARK    1  A    between atoms: C_1  and  C_3
REMARK    2  A    between atoms: C_1  and  C_6
REMARK    3  A    between atoms: C_1  and  C_19
REMARK    4  A    between atoms: C_3  and  O_4
REMARK    5  A    between atoms: C_6  and  C_7
REMARK    6  A    between atoms: C_7  and  N_10
REMARK    7  A    between atoms: C_19  and  C_21
REMARK    8  A    between atoms: C_21  and  C_22
REMARK    9  A    between atoms: C_25  and  C_28
REMARK   10  A    between atoms: C_33  and  O_34
REMARK   11  A    between atoms: O_34  and  C_35
REMARK                            x       y       z     vdW  Elec       q    Type
REMARK                         _______ _______ _______ _____ _____    ______ ____
ROOT
ATOM      1  C   UNL     1      33.830 -14.158 -23.412  0.00  0.00    +0.108 C 
ENDROOT
BRANCH   1   3
ATOM      2  O   UNL     1      34.944 -13.817 -21.276  0.00  0.00    -0.250 OA
ATOM      3  C   UNL     1      33.914 -13.784 -21.939  0.00  0.00    +0.314 C 
BRANCH   3   4
ATOM      4  O   UNL     1      32.720 -13.398 -21.424  0.00  0.00    -0.480 OA
ATOM      5  H   UNL     1      32.456 -12.501 -21.476  0.00  0.00    +0.295 HD
ENDBRANCH   3   4
ENDBRANCH   1   3
BRANCH   1   6
ATOM      6  C   UNL     1      33.410 -12.932 -24.248  0.00  0.00    +0.034 C 
BRANCH   6   7
ATOM      7  C   UNL     1      34.583 -12.062 -24.702  0.00  0.00    +0.102 C 
BRANCH   7  10
ATOM      8  O   UNL     1      32.636 -10.839 -22.804  0.00  0.00    -0.269 OA
ATOM      9  O   UNL     1      36.234  -9.706 -25.494  0.00  0.00    -0.269 OA
ATOM     10  N   UNL     1      34.472 -10.695 -24.277  0.00  0.00    -0.223 N 
ATOM     11  C   UNL     1      33.521 -10.233 -23.380  0.00  0.00    +0.255 C 
ATOM     12  C   UNL     1      35.303  -9.673 -24.712  0.00  0.00    +0.255 C 
ATOM     13  C   UNL     1      33.772  -8.800 -23.223  0.00  0.00    +0.058 C 
ATOM     14  C   UNL     1      34.850  -8.462 -24.028  0.00  0.00    +0.058 C 
ATOM     15  C   UNL     1      33.120  -7.865 -22.446  0.00  0.00    +0.005 C 
ATOM     16  C   UNL     1      35.331  -7.172 -24.100  0.00  0.00    +0.005 C 
ATOM     17  C   UNL     1      33.590  -6.551 -22.502  0.00  0.00    +0.000 C 
ATOM     18  C   UNL     1      34.685  -6.207 -23.321  0.00  0.00    +0.000 C 
ENDBRANCH   7  10
ENDBRANCH   6   7
ENDBRANCH   1   6
BRANCH   1  19
ATOM     19  C   UNL     1      35.211 -14.670 -23.866  0.00  0.00    +0.080 C 
BRANCH  19  21
ATOM     20  O   UNL     1      35.245 -16.460 -25.490  0.00  0.00    -0.291 OA
ATOM     21  C   UNL     1      35.190 -16.130 -24.308  0.00  0.00    +0.174 C 
BRANCH  21  22
ATOM     22  C   UNL     1      35.089 -17.190 -23.263  0.00  0.00    +0.035 C 
ATOM     23  C   UNL     1      35.678 -16.998 -22.013  0.00  0.00    +0.003 C 
ATOM     24  C   UNL     1      34.405 -18.375 -23.537  0.00  0.00    +0.003 C 
ATOM     25  C   UNL     1      34.898 -19.174 -21.311  0.00  0.00    +0.000 C 
ATOM     26  C   UNL     1      35.583 -17.989 -21.038  0.00  0.00    +0.000 C 
ATOM     27  C   UNL     1      34.310 -19.367 -22.560  0.00  0.00    +0.000 C 
BRANCH  25  28
ATOM     28  C   UNL     1      34.800 -20.204 -20.299  0.00  0.00    +0.000 C 
ATOM     29  C   UNL     1      35.959 -20.733 -19.729  0.00  0.00    +0.003 C 
ATOM     30  C   UNL     1      33.548 -20.669 -19.895  0.00  0.00    +0.003 C 
ATOM     31  C   UNL     1      35.865 -21.727 -18.755  0.00  0.00    +0.037 C 
ATOM     32  C   UNL     1      33.456 -21.663 -18.921  0.00  0.00    +0.037 C 
ATOM     33  C   UNL     1      34.613 -22.192 -18.352  0.00  0.00    +0.139 C 
BRANCH  33  34
ATOM     34  O   UNL     1      34.523 -23.160 -17.399  0.00  0.00    -0.475 OA
BRANCH  34  35
ATOM     35  C   UNL     1      33.272 -23.293 -16.725  0.00  0.00    +0.206 C 
ATOM     36  C   UNL     1      33.508 -23.224 -15.231  0.00  0.00    +0.051 C 
ENDBRANCH  34  35
ENDBRANCH  33  34
ENDBRANCH  25  28
ENDBRANCH  21  22
ENDBRANCH  19  21
ENDBRANCH   1  19
TORSDOF 11
ENDMDL
MODEL 4
REMARK VINA RESULT:     -11.6      4.735     12.889
REMARK  Name = 448384
REMARK  11 active torsions:
REMARK  status: ('A' for Active; 'I' for Inactive)
REMARK    1  A    between atoms: C_1  and  C_3
REMARK    2  A    between atoms: C_1  and  C_6
REMARK    3  A    between atoms: C_1  and  C_19
REMARK    4  A    between atoms: C_3  and  O_4
REMARK    5  A    between atoms: C_6  and  C_7
REMARK    6  A    between atoms: C_7  and  N_10
REMARK    7  A    between atoms: C_19  and  C_21
REMARK    8  A    between atoms: C_21  and  C_22
REMARK    9  A    between atoms: C_25  and  C_28
REMARK   10  A    between atoms: C_33  and  O_34
REMARK   11  A    between atoms: O_34  and  C_35
REMARK                            x       y       z     vdW  Elec       q    Type
REMARK                         _______ _______ _______ _____ _____    ______ ____
ROOT
ATOM      1  C   UNL     1      34.469 -13.548 -24.549  0.00  0.00    +0.108 C 
ENDROOT
BRANCH   1   3
ATOM      2  O   UNL     1      32.951 -13.299 -26.435  0.00  0.00    -0.250 OA
ATOM      3  C   UNL     1      33.786 -12.804 -25.688  0.00  0.00    +0.314 C 
BRANCH   3   4
ATOM      4  O   UNL     1      34.193 -11.514 -25.794  0.00  0.00    -0.480 OA
ATOM      5  H   UNL     1      33.603 -10.818 -25.583  0.00  0.00    +0.295 HD
ENDBRANCH   3   4
ENDBRANCH   1   3
BRANCH   1   6
ATOM      6  C   UNL     1      34.266 -12.790 -23.222  0.00  0.00    +0.034 C 
BRANCH   6   7
ATOM      7  C   UNL     1      32.805 -12.466 -22.911  0.00  0.00    +0.102 C 
BRANCH   7  10
ATOM      8  O   UNL     1      33.108  -9.718 -24.023  0.00  0.00    -0.269 OA
ATOM      9  O   UNL     1      32.055 -11.906 -20.077  0.00  0.00    -0.269 OA
ATOM     10  N   UNL     1      32.631 -11.202 -22.254  0.00  0.00    -0.223 N 
ATOM     11  C   UNL     1      32.797  -9.973 -22.875  0.00  0.00    +0.255 C 
ATOM     12  C   UNL     1      32.275 -11.058 -20.921  0.00  0.00    +0.255 C 
ATOM     13  C   UNL     1      32.515  -8.962 -21.856  0.00  0.00    +0.058 C 
ATOM     14  C   UNL     1      32.199  -9.618 -20.675  0.00  0.00    +0.058 C 
ATOM     15  C   UNL     1      32.531  -7.585 -21.944  0.00  0.00    +0.005 C 
ATOM     16  C   UNL     1      31.884  -8.932 -19.521  0.00  0.00    +0.005 C 
ATOM     17  C   UNL     1      32.215  -6.869 -20.787  0.00  0.00    +0.000 C 
ATOM     18  C   UNL     1      31.895  -7.536 -19.586  0.00  0.00    +0.000 C 
ENDBRANCH   7  10
ENDBRANCH   6   7
ENDBRANCH   1   6
BRANCH   1  19
ATOM     19  C   UNL     1      33.863 -14.963 -24.458  0.00  0.00    +0.080 C 
BRANCH  19  21
ATOM     20  O   UNL     1      35.763 -16.123 -25.398  0.00  0.00    -0.291 OA
ATOM     21  C   UNL     1      34.914 -16.067 -24.512  0.00  0.00    +0.174 C 
BRANCH  21  22
ATOM     22  C   UNL     1      34.899 -17.119 -23.455  0.00  0.00    +0.035 C 
ATOM     23  C   UNL     1      34.338 -18.369 -23.722  0.00  0.00    +0.003 C 
ATOM     24  C   UNL     1      35.446 -16.854 -22.200  0.00  0.00    +0.003 C 
ATOM     25  C   UNL     1      34.871 -19.087 -21.478  0.00  0.00    +0.000 C 
ATOM     26  C   UNL     1      34.324 -19.352 -22.733  0.00  0.00    +0.000 C 
ATOM     27  C   UNL     1      35.432 -17.838 -21.210  0.00  0.00    +0.000 C 
BRANCH  25  28
ATOM     28  C   UNL     1      34.857 -20.106 -20.451  0.00  0.00    +0.000 C 
ATOM     29  C   UNL     1      33.640 -20.590 -19.967  0.00  0.00    +0.003 C 
ATOM     30  C   UNL     1      36.057 -20.604 -19.943  0.00  0.00    +0.003 C 
ATOM     31  C   UNL     1      33.625 -21.571 -18.976  0.00  0.00    +0.037 C 
ATOM     32  C   UNL     1      36.041 -21.585 -18.952  0.00  0.00    +0.037 C 
ATOM     33  C   UNL     1      34.825 -22.068 -18.468  0.00  0.00    +0.139 C 
BRANCH  33  34
ATOM     34  O   UNL     1      34.809 -23.028 -17.503  0.00  0.00    -0.475 OA
BRANCH  34  35
ATOM     35  C   UNL     1      33.533 -23.428 -17.006  0.00  0.00    +0.206 C 
ATOM     36  C   UNL     1      33.522 -23.278 -15.499  0.00  0.00    +0.051 C 
ENDBRANCH  34  35
ENDBRANCH  33  34
ENDBRANCH  25  28
ENDBRANCH  21  22
ENDBRANCH  19  21
ENDBRANCH   1  19
TORSDOF 11
ENDMDL
MODEL 5
REMARK VINA RESULT:     -11.5      3.251      7.035
REMARK  Name = 448384
REMARK  11 active torsions:
REMARK  status: ('A' for Active; 'I' for Inactive)
REMARK    1  A    between atoms: C_1  and  C_3
REMARK    2  A    between atoms: C_1  and  C_6
REMARK    3  A    between atoms: C_1  and  C_19
REMARK    4  A    between atoms: C_3  and  O_4
REMARK    5  A    between atoms: C_6  and  C_7
REMARK    6  A    between atoms: C_7  and  N_10
REMARK    7  A    between atoms: C_19  and  C_21
REMARK    8  A    between atoms: C_21  and  C_22
REMARK    9  A    between atoms: C_25  and  C_28
REMARK   10  A    between atoms: C_33  and  O_34
REMARK   11  A    between atoms: O_34  and  C_35
REMARK                            x       y       z     vdW  Elec       q    Type
REMARK                         _______ _______ _______ _____ _____    ______ ____
ROOT
ATOM      1  C   UNL     1      36.507 -19.616 -21.023  0.00  0.00    +0.108 C 
ENDROOT
BRANCH   1   3
ATOM      2  O   UNL     1      38.346 -18.329 -21.963  0.00  0.00    -0.250 OA
ATOM      3  C   UNL     1      37.697 -18.667 -20.981  0.00  0.00    +0.314 C 
BRANCH   3   4
ATOM      4  O   UNL     1      37.970 -18.220 -19.730  0.00  0.00    -0.480 OA
ATOM      5  H   UNL     1      38.834 -18.310 -19.379  0.00  0.00    +0.295 HD
ENDBRANCH   3   4
ENDBRANCH   1   3
BRANCH   1   6
ATOM      6  C   UNL     1      36.323 -20.298 -19.652  0.00  0.00    +0.034 C 
BRANCH   6   7
ATOM      7  C   UNL     1      35.743 -21.710 -19.737  0.00  0.00    +0.102 C 
BRANCH   7  10
ATOM      8  O   UNL     1      32.770 -21.842 -19.580  0.00  0.00    -0.269 OA
ATOM      9  O   UNL     1      36.541 -22.459 -16.960  0.00  0.00    -0.269 OA
ATOM     10  N   UNL     1      34.912 -22.050 -18.617  0.00  0.00    -0.223 N 
ATOM     11  C   UNL     1      33.526 -22.082 -18.657  0.00  0.00    +0.255 C 
ATOM     12  C   UNL     1      35.395 -22.388 -17.362  0.00  0.00    +0.255 C 
ATOM     13  C   UNL     1      33.090 -22.482 -17.320  0.00  0.00    +0.058 C 
ATOM     14  C   UNL     1      34.220 -22.668 -16.536  0.00  0.00    +0.058 C 
ATOM     15  C   UNL     1      31.817 -22.670 -16.821  0.00  0.00    +0.005 C 
ATOM     16  C   UNL     1      34.136 -23.049 -15.214  0.00  0.00    +0.005 C 
ATOM     17  C   UNL     1      31.708 -23.058 -15.483  0.00  0.00    +0.000 C 
ATOM     18  C   UNL     1      32.856 -23.245 -14.687  0.00  0.00    +0.000 C 
ENDBRANCH   7  10
ENDBRANCH   6   7
ENDBRANCH   1   6
BRANCH   1  19
ATOM     19  C   UNL     1      35.249 -18.805 -21.392  0.00  0.00    +0.080 C 
BRANCH  19  21
ATOM     20  O   UNL     1      35.690 -18.798 -23.769  0.00  0.00    -0.291 OA
ATOM     21  C   UNL     1      35.334 -18.168 -22.776  0.00  0.00    +0.174 C 
BRANCH  21  22
ATOM     22  C   UNL     1      34.982 -16.725 -22.919  0.00  0.00    +0.035 C 
ATOM     23  C   UNL     1      34.572 -16.226 -24.156  0.00  0.00    +0.003 C 
ATOM     24  C   UNL     1      35.063 -15.875 -21.816  0.00  0.00    +0.003 C 
ATOM     25  C   UNL     1      34.324 -14.028 -23.186  0.00  0.00    +0.000 C 
ATOM     26  C   UNL     1      34.243 -14.878 -24.289  0.00  0.00    +0.000 C 
ATOM     27  C   UNL     1      34.734 -14.526 -21.950  0.00  0.00    +0.000 C 
BRANCH  25  28
ATOM     28  C   UNL     1      33.984 -12.628 -23.324  0.00  0.00    +0.000 C 
ATOM     29  C   UNL     1      33.117 -12.029 -22.409  0.00  0.00    +0.003 C 
ATOM     30  C   UNL     1      34.518 -11.879 -24.372  0.00  0.00    +0.003 C 
ATOM     31  C   UNL     1      32.787 -10.680 -22.542  0.00  0.00    +0.037 C 
ATOM     32  C   UNL     1      34.188 -10.531 -24.505  0.00  0.00    +0.037 C 
ATOM     33  C   UNL     1      33.322  -9.931 -23.590  0.00  0.00    +0.139 C 
BRANCH  33  34
ATOM     34  O   UNL     1      33.001  -8.614 -23.718  0.00  0.00    -0.475 OA
BRANCH  34  35
ATOM     35  C   UNL     1      33.590  -7.709 -22.785  0.00  0.00    +0.206 C 
ATOM     36  C   UNL     1      34.904  -7.209 -23.346  0.00  0.00    +0.051 C 
ENDBRANCH  34  35
ENDBRANCH  33  34
ENDBRANCH  25  28
ENDBRANCH  21  22
ENDBRANCH  19  21
ENDBRANCH   1  19
TORSDOF 11
ENDMDL
MODEL 6
REMARK VINA RESULT:     -11.5      1.694      2.388
REMARK  Name = 448384
REMARK  11 active torsions:
REMARK  status: ('A' for Active; 'I' for Inactive)
REMARK    1  A    between atoms: C_1  and  C_3
REMARK    2  A    between atoms: C_1  and  C_6
REMARK    3  A    between atoms: C_1  and  C_19
REMARK    4  A    between atoms: C_3  and  O_4
REMARK    5  A    between atoms: C_6  and  C_7
REMARK    6  A    between atoms: C_7  and  N_10
REMARK    7  A    between atoms: C_19  and  C_21
REMARK    8  A    between atoms: C_21  and  C_22
REMARK    9  A    between atoms: C_25  and  C_28
REMARK   10  A    between atoms: C_33  and  O_34
REMARK   11  A    between atoms: O_34  and  C_35
REMARK                            x       y       z     vdW  Elec       q    Type
REMARK                         _______ _______ _______ _____ _____    ______ ____
ROOT
ATOM      1  C   UNL     1      34.361 -22.774 -15.008  0.00  0.00    +0.108 C 
ENDROOT
BRANCH   1   3
ATOM      2  O   UNL     1      33.124 -24.783 -14.411  0.00  0.00    -0.250 OA
ATOM      3  C   UNL     1      33.347 -23.594 -14.222  0.00  0.00    +0.314 C 
BRANCH   3   4
ATOM      4  O   UNL     1      32.707 -22.869 -13.270  0.00  0.00    -0.480 OA
ATOM      5  H   UNL     1      33.202 -22.386 -12.638  0.00  0.00    +0.295 HD
ENDBRANCH   3   4
ENDBRANCH   1   3
BRANCH   1   6
ATOM      6  C   UNL     1      35.722 -22.774 -14.282  0.00  0.00    +0.034 C 
BRANCH   6   7
ATOM      7  C   UNL     1      35.960 -24.010 -13.414  0.00  0.00    +0.102 C 
BRANCH   7  10
ATOM      8  O   UNL     1      36.071 -26.209 -15.422  0.00  0.00    -0.269 OA
ATOM      9  O   UNL     1      38.799 -23.859 -12.506  0.00  0.00    -0.269 OA
ATOM     10  N   UNL     1      37.087 -24.790 -13.837  0.00  0.00    -0.223 N 
ATOM     11  C   UNL     1      37.025 -25.797 -14.789  0.00  0.00    +0.255 C 
ATOM     12  C   UNL     1      38.375 -24.631 -13.345  0.00  0.00    +0.255 C 
ATOM     13  C   UNL     1      38.386 -26.316 -14.922  0.00  0.00    +0.058 C 
ATOM     14  C   UNL     1      39.203 -25.611 -14.049  0.00  0.00    +0.058 C 
ATOM     15  C   UNL     1      38.879 -27.318 -15.733  0.00  0.00    +0.005 C 
ATOM     16  C   UNL     1      40.552 -25.871 -13.941  0.00  0.00    +0.005 C 
ATOM     17  C   UNL     1      40.244 -27.599 -15.641  0.00  0.00    +0.000 C 
ATOM     18  C   UNL     1      41.073 -26.883 -14.752  0.00  0.00    +0.000 C 
ENDBRANCH   7  10
ENDBRANCH   6   7
ENDBRANCH   1   6
BRANCH   1  19
ATOM     19  C   UNL     1      34.503 -23.391 -16.414  0.00  0.00    +0.080 C 
BRANCH  19  21
ATOM     20  O   UNL     1      32.252 -23.380 -17.294  0.00  0.00    -0.291 OA
ATOM     21  C   UNL     1      33.400 -22.951 -17.372  0.00  0.00    +0.174 C 
BRANCH  21  22
ATOM     22  C   UNL     1      33.738 -21.974 -18.447  0.00  0.00    +0.035 C 
ATOM     23  C   UNL     1      32.725 -21.247 -19.074  0.00  0.00    +0.003 C 
ATOM     24  C   UNL     1      35.068 -21.786 -18.826  0.00  0.00    +0.003 C 
ATOM     25  C   UNL     1      34.372 -20.146 -20.457  0.00  0.00    +0.000 C 
ATOM     26  C   UNL     1      33.042 -20.334 -20.079  0.00  0.00    +0.000 C 
ATOM     27  C   UNL     1      35.385 -20.872 -19.831  0.00  0.00    +0.000 C 
BRANCH  25  28
ATOM     28  C   UNL     1      34.701 -19.198 -21.500  0.00  0.00    +0.000 C 
ATOM     29  C   UNL     1      34.181 -19.368 -22.784  0.00  0.00    +0.003 C 
ATOM     30  C   UNL     1      35.540 -18.119 -21.224  0.00  0.00    +0.003 C 
ATOM     31  C   UNL     1      34.499 -18.456 -23.791  0.00  0.00    +0.037 C 
ATOM     32  C   UNL     1      35.858 -17.208 -22.231  0.00  0.00    +0.037 C 
ATOM     33  C   UNL     1      35.338 -17.377 -23.514  0.00  0.00    +0.139 C 
BRANCH  33  34
ATOM     34  O   UNL     1      35.646 -16.486 -24.497  0.00  0.00    -0.475 OA
BRANCH  34  35
ATOM     35  C   UNL     1      35.165 -15.152 -24.339  0.00  0.00    +0.206 C 
ATOM     36  C   UNL     1      33.775 -15.055 -24.932  0.00  0.00    +0.051 C 
ENDBRANCH  34  35
ENDBRANCH  33  34
ENDBRANCH  25  28
ENDBRANCH  21  22
ENDBRANCH  19  21
ENDBRANCH   1  19
TORSDOF 11
ENDMDL
MODEL 7
REMARK VINA RESULT:     -11.4      4.643     12.848
REMARK  Name = 448384
REMARK  11 active torsions:
REMARK  status: ('A' for Active; 'I' for Inactive)
REMARK    1  A    between atoms: C_1  and  C_3
REMARK    2  A    between atoms: C_1  and  C_6
REMARK    3  A    between atoms: C_1  and  C_19
REMARK    4  A    between atoms: C_3  and  O_4
REMARK    5  A    between atoms: C_6  and  C_7
REMARK    6  A    between atoms: C_7  and  N_10
REMARK    7  A    between atoms: C_19  and  C_21
REMARK    8  A    between atoms: C_21  and  C_22
REMARK    9  A    between atoms: C_25  and  C_28
REMARK   10  A    between atoms: C_33  and  O_34
REMARK   11  A    between atoms: O_34  and  C_35
REMARK                            x       y       z     vdW  Elec       q    Type
REMARK                         _______ _______ _______ _____ _____    ______ ____
ROOT
ATOM      1  C   UNL     1      34.418 -13.760 -24.623  0.00  0.00    +0.108 C 
ENDROOT
BRANCH   1   3
ATOM      2  O   UNL     1      34.012 -11.921 -26.164  0.00  0.00    -0.250 OA
ATOM      3  C   UNL     1      33.720 -13.044 -25.771  0.00  0.00    +0.314 C 
BRANCH   3   4
ATOM      4  O   UNL     1      32.731 -13.784 -26.330  0.00  0.00    -0.480 OA
ATOM      5  H   UNL     1      32.739 -13.956 -27.251  0.00  0.00    +0.295 HD
ENDBRANCH   3   4
ENDBRANCH   1   3
BRANCH   1   6
ATOM      6  C   UNL     1      34.225 -12.973 -23.310  0.00  0.00    +0.034 C 
BRANCH   6   7
ATOM      7  C   UNL     1      32.765 -12.653 -22.990  0.00  0.00    +0.102 C 
BRANCH   7  10
ATOM      8  O   UNL     1      31.936 -12.168 -20.168  0.00  0.00    -0.269 OA
ATOM      9  O   UNL     1      33.145  -9.873 -24.007  0.00  0.00    -0.269 OA
ATOM     10  N   UNL     1      32.597 -11.406 -22.300  0.00  0.00    -0.223 N 
ATOM     11  C   UNL     1      32.206 -11.296 -20.973  0.00  0.00    +0.255 C 
ATOM     12  C   UNL     1      32.806 -10.161 -22.875  0.00  0.00    +0.255 C 
ATOM     13  C   UNL     1      32.172  -9.864 -20.677  0.00  0.00    +0.058 C 
ATOM     14  C   UNL     1      32.535  -9.178 -21.827  0.00  0.00    +0.058 C 
ATOM     15  C   UNL     1      31.852  -9.208 -19.506  0.00  0.00    +0.005 C 
ATOM     16  C   UNL     1      32.596  -7.801 -21.866  0.00  0.00    +0.005 C 
ATOM     17  C   UNL     1      31.907  -7.812 -19.522  0.00  0.00    +0.000 C 
ATOM     18  C   UNL     1      32.275  -7.115 -20.691  0.00  0.00    +0.000 C 
ENDBRANCH   7  10
ENDBRANCH   6   7
ENDBRANCH   1   6
BRANCH   1  19
ATOM     19  C   UNL     1      33.820 -15.175 -24.494  0.00  0.00    +0.080 C 
BRANCH  19  21
ATOM     20  O   UNL     1      35.703 -16.354 -25.443  0.00  0.00    -0.291 OA
ATOM     21  C   UNL     1      34.875 -16.275 -24.540  0.00  0.00    +0.174 C 
BRANCH  21  22
ATOM     22  C   UNL     1      34.888 -17.296 -23.452  0.00  0.00    +0.035 C 
ATOM     23  C   UNL     1      35.550 -17.030 -22.252  0.00  0.00    +0.003 C 
ATOM     24  C   UNL     1      34.238 -18.517 -23.633  0.00  0.00    +0.003 C 
ATOM     25  C   UNL     1      34.912 -19.205 -21.418  0.00  0.00    +0.000 C 
ATOM     26  C   UNL     1      35.562 -17.984 -21.236  0.00  0.00    +0.000 C 
ATOM     27  C   UNL     1      34.251 -19.472 -22.616  0.00  0.00    +0.000 C 
BRANCH  25  28
ATOM     28  C   UNL     1      34.925 -20.196 -20.364  0.00  0.00    +0.000 C 
ATOM     29  C   UNL     1      36.134 -20.572 -19.776  0.00  0.00    +0.003 C 
ATOM     30  C   UNL     1      33.731 -20.778 -19.937  0.00  0.00    +0.003 C 
ATOM     31  C   UNL     1      36.147 -21.529 -18.761  0.00  0.00    +0.037 C 
ATOM     32  C   UNL     1      33.746 -21.735 -18.923  0.00  0.00    +0.037 C 
ATOM     33  C   UNL     1      34.954 -22.111 -18.335  0.00  0.00    +0.139 C 
BRANCH  33  34
ATOM     34  O   UNL     1      34.968 -23.043 -17.342  0.00  0.00    -0.475 OA
BRANCH  34  35
ATOM     35  C   UNL     1      35.469 -22.630 -16.071  0.00  0.00    +0.206 C 
ATOM     36  C   UNL     1      34.362 -22.747 -15.044  0.00  0.00    +0.051 C 
ENDBRANCH  34  35
ENDBRANCH  33  34
ENDBRANCH  25  28
ENDBRANCH  21  22
ENDBRANCH  19  21
ENDBRANCH   1  19
TORSDOF 11
ENDMDL
MODEL 8
REMARK VINA RESULT:     -11.4      4.098      7.980
REMARK  Name = 448384
REMARK  11 active torsions:
REMARK  status: ('A' for Active; 'I' for Inactive)
REMARK    1  A    between atoms: C_1  and  C_3
REMARK    2  A    between atoms: C_1  and  C_6
REMARK    3  A    between atoms: C_1  and  C_19
REMARK    4  A    between atoms: C_3  and  O_4
REMARK    5  A    between atoms: C_6  and  C_7
REMARK    6  A    between atoms: C_7  and  N_10
REMARK    7  A    between atoms: C_19  and  C_21
REMARK    8  A    between atoms: C_21  and  C_22
REMARK    9  A    between atoms: C_25  and  C_28
REMARK   10  A    between atoms: C_33  and  O_34
REMARK   11  A    between atoms: O_34  and  C_35
REMARK                            x       y       z     vdW  Elec       q    Type
REMARK                         _______ _______ _______ _____ _____    ______ ____
ROOT
ATOM      1  C   UNL     1      35.918 -18.446 -21.559  0.00  0.00    +0.108 C 
ENDROOT
BRANCH   1   3
ATOM      2  O   UNL     1      37.629 -18.643 -19.839  0.00  0.00    -0.250 OA
ATOM      3  C   UNL     1      37.340 -18.563 -21.027  0.00  0.00    +0.314 C 
BRANCH   3   4
ATOM      4  O   UNL     1      38.271 -18.576 -22.013  0.00  0.00    -0.480 OA
ATOM      5  H   UNL     1      38.194 -17.988 -22.738  0.00  0.00    +0.295 HD
ENDBRANCH   3   4
ENDBRANCH   1   3
BRANCH   1   6
ATOM      6  C   UNL     1      34.982 -19.399 -20.787  0.00  0.00    +0.034 C 
BRANCH   6   7
ATOM      7  C   UNL     1      35.575 -20.787 -20.546  0.00  0.00    +0.102 C 
BRANCH   7  10
ATOM      8  O   UNL     1      37.088 -21.540 -18.091  0.00  0.00    -0.269 OA
ATOM      9  O   UNL     1      32.807 -21.666 -19.858  0.00  0.00    -0.269 OA
ATOM     10  N   UNL     1      35.095 -21.408 -19.344  0.00  0.00    -0.223 N 
ATOM     11  C   UNL     1      35.894 -21.713 -18.252  0.00  0.00    +0.255 C 
ATOM     12  C   UNL     1      33.775 -21.774 -19.129  0.00  0.00    +0.255 C 
ATOM     13  C   UNL     1      35.009 -22.317 -17.256  0.00  0.00    +0.058 C 
ATOM     14  C   UNL     1      33.727 -22.353 -17.786  0.00  0.00    +0.058 C 
ATOM     15  C   UNL     1      35.291 -22.796 -15.994  0.00  0.00    +0.005 C 
ATOM     16  C   UNL     1      32.661 -22.871 -17.082  0.00  0.00    +0.005 C 
ATOM     17  C   UNL     1      34.225 -23.325 -15.261  0.00  0.00    +0.000 C 
ATOM     18  C   UNL     1      32.923 -23.364 -15.800  0.00  0.00    +0.000 C 
ENDBRANCH   7  10
ENDBRANCH   6   7
ENDBRANCH   1   6
BRANCH   1  19
ATOM     19  C   UNL     1      35.453 -16.986 -21.393  0.00  0.00    +0.080 C 
BRANCH  19  21
ATOM     20  O   UNL     1      35.631 -16.755 -23.792  0.00  0.00    -0.291 OA
ATOM     21  C   UNL     1      35.283 -16.259 -22.723  0.00  0.00    +0.174 C 
BRANCH  21  22
ATOM     22  C   UNL     1      34.683 -14.893 -22.719  0.00  0.00    +0.035 C 
ATOM     23  C   UNL     1      34.524 -14.196 -23.917  0.00  0.00    +0.003 C 
ATOM     24  C   UNL     1      34.280 -14.314 -21.516  0.00  0.00    +0.003 C 
ATOM     25  C   UNL     1      33.560 -12.340 -22.708  0.00  0.00    +0.000 C 
ATOM     26  C   UNL     1      33.963 -12.919 -23.911  0.00  0.00    +0.000 C 
ATOM     27  C   UNL     1      33.718 -13.036 -21.510  0.00  0.00    +0.000 C 
BRANCH  25  28
ATOM     28  C   UNL     1      32.978 -11.015 -22.702  0.00  0.00    +0.000 C 
ATOM     29  C   UNL     1      31.973 -10.700 -21.786  0.00  0.00    +0.003 C 
ATOM     30  C   UNL     1      33.418 -10.054 -23.612  0.00  0.00    +0.003 C 
ATOM     31  C   UNL     1      31.410  -9.424 -21.780  0.00  0.00    +0.037 C 
ATOM     32  C   UNL     1      32.855  -8.778 -23.605  0.00  0.00    +0.037 C 
ATOM     33  C   UNL     1      31.851  -8.463 -22.690  0.00  0.00    +0.139 C 
BRANCH  33  34
ATOM     34  O   UNL     1      31.303  -7.217 -22.682  0.00  0.00    -0.475 OA
BRANCH  34  35
ATOM     35  C   UNL     1      32.160  -6.132 -22.329  0.00  0.00    +0.206 C 
ATOM     36  C   UNL     1      32.151  -5.967 -20.824  0.00  0.00    +0.051 C 
ENDBRANCH  34  35
ENDBRANCH  33  34
ENDBRANCH  25  28
ENDBRANCH  21  22
ENDBRANCH  19  21
ENDBRANCH   1  19
TORSDOF 11
ENDMDL
MODEL 9
REMARK VINA RESULT:     -11.1      3.195     11.961
REMARK  Name = 448384
REMARK  11 active torsions:
REMARK  status: ('A' for Active; 'I' for Inactive)
REMARK    1  A    between atoms: C_1  and  C_3
REMARK    2  A    between atoms: C_1  and  C_6
REMARK    3  A    between atoms: C_1  and  C_19
REMARK    4  A    between atoms: C_3  and  O_4
REMARK    5  A    between atoms: C_6  and  C_7
REMARK    6  A    between atoms: C_7  and  N_10
REMARK    7  A    between atoms: C_19  and  C_21
REMARK    8  A    between atoms: C_21  and  C_22
REMARK    9  A    between atoms: C_25  and  C_28
REMARK   10  A    between atoms: C_33  and  O_34
REMARK   11  A    between atoms: O_34  and  C_35
REMARK                            x       y       z     vdW  Elec       q    Type
REMARK                         _______ _______ _______ _____ _____    ______ ____
ROOT
ATOM      1  C   UNL     1      36.056 -18.390 -21.627  0.00  0.00    +0.108 C 
ENDROOT
BRANCH   1   3
ATOM      2  O   UNL     1      37.848 -18.422 -19.982  0.00  0.00    -0.250 OA
ATOM      3  C   UNL     1      37.503 -18.381 -21.156  0.00  0.00    +0.314 C 
BRANCH   3   4
ATOM      4  O   UNL     1      38.390 -18.329 -22.181  0.00  0.00    -0.480 OA
ATOM      5  H   UNL     1      38.992 -17.614 -22.243  0.00  0.00    +0.295 HD
ENDBRANCH   3   4
ENDBRANCH   1   3
BRANCH   1   6
ATOM      6  C   UNL     1      35.937 -17.685 -22.994  0.00  0.00    +0.034 C 
BRANCH   6   7
ATOM      7  C   UNL     1      34.505 -17.305 -23.372  0.00  0.00    +0.102 C 
BRANCH   7  10
ATOM      8  O   UNL     1      35.086 -14.888 -21.728  0.00  0.00    -0.269 OA
ATOM      9  O   UNL     1      33.533 -16.097 -25.922  0.00  0.00    -0.269 OA
ATOM     10  N   UNL     1      34.359 -15.920 -23.719  0.00  0.00    -0.223 N 
ATOM     11  C   UNL     1      34.664 -14.867 -22.870  0.00  0.00    +0.255 C 
ATOM     12  C   UNL     1      33.896 -15.468 -24.946  0.00  0.00    +0.255 C 
ATOM     13  C   UNL     1      34.382 -13.644 -23.620  0.00  0.00    +0.058 C 
ATOM     14  C   UNL     1      33.917 -14.007 -24.876  0.00  0.00    +0.058 C 
ATOM     15  C   UNL     1      34.515 -12.323 -23.245  0.00  0.00    +0.005 C 
ATOM     16  C   UNL     1      33.561 -13.069 -25.821  0.00  0.00    +0.005 C 
ATOM     17  C   UNL     1      34.160 -11.355 -24.187  0.00  0.00    +0.000 C 
ATOM     18  C   UNL     1      33.687 -11.724 -25.464  0.00  0.00    +0.000 C 
ENDBRANCH   7  10
ENDBRANCH   6   7
ENDBRANCH   1   6
BRANCH   1  19
ATOM     19  C   UNL     1      35.586 -19.854 -21.736  0.00  0.00    +0.080 C 
BRANCH  19  21
ATOM     20  O   UNL     1      33.291 -19.846 -20.978  0.00  0.00    -0.291 OA
ATOM     21  C   UNL     1      34.453 -20.191 -20.773  0.00  0.00    +0.174 C 
BRANCH  21  22
ATOM     22  C   UNL     1      34.773 -20.956 -19.533  0.00  0.00    +0.035 C 
ATOM     23  C   UNL     1      33.767 -21.652 -18.862  0.00  0.00    +0.003 C 
ATOM     24  C   UNL     1      36.080 -20.977 -19.045  0.00  0.00    +0.003 C 
ATOM     25  C   UNL     1      35.375 -22.388 -17.216  0.00  0.00    +0.000 C 
ATOM     26  C   UNL     1      34.068 -22.368 -17.704  0.00  0.00    +0.000 C 
ATOM     27  C   UNL     1      36.381 -21.693 -17.886  0.00  0.00    +0.000 C 
BRANCH  25  28
ATOM     28  C   UNL     1      35.688 -23.130 -16.013  0.00  0.00    +0.000 C 
ATOM     29  C   UNL     1      34.679 -23.816 -15.336  0.00  0.00    +0.003 C 
ATOM     30  C   UNL     1      36.996 -23.157 -15.530  0.00  0.00    +0.003 C 
ATOM     31  C   UNL     1      34.979 -24.530 -14.176  0.00  0.00    +0.037 C 
ATOM     32  C   UNL     1      37.295 -23.871 -14.370  0.00  0.00    +0.037 C 
ATOM     33  C   UNL     1      36.287 -24.557 -13.692  0.00  0.00    +0.139 C 
BRANCH  33  34
ATOM     34  O   UNL     1      36.579 -25.256 -12.561  0.00  0.00    -0.475 OA
BRANCH  34  35
ATOM     35  C   UNL     1      37.173 -24.531 -11.485  0.00  0.00    +0.206 C 
ATOM     36  C   UNL     1      36.092 -24.131 -10.504  0.00  0.00    +0.051 C 
ENDBRANCH  34  35
ENDBRANCH  33  34
ENDBRANCH  25  28
ENDBRANCH  21  22
ENDBRANCH  19  21
ENDBRANCH   1  19
TORSDOF 11
ENDMDL
