MODEL 1
REMARK VINA RESULT:     -11.3      0.000      0.000
REMARK  Name = 71360
REMARK  8 active torsions:
REMARK  status: ('A' for Active; 'I' for Inactive)
REMARK    1  A    between atoms: N_1  and  C_18
REMARK    2  A    between atoms: C_2  and  C_11
REMARK    3  A    between atoms: C_18  and  C_19
REMARK    4  A    between atoms: C_19  and  C_20
REMARK    5  A    between atoms: C_20  and  O_21
REMARK    6  A    between atoms: O_21  and  C_22
REMARK    7  A    between atoms: C_23  and  O_31
REMARK    8  A    between atoms: C_27  and  C_29
REMARK                            x       y       z     vdW  Elec       q    Type
REMARK                         _______ _______ _______ _____ _____    ______ ____
ROOT
ATOM      1  N   UNL     1      35.657 -16.763 -23.791  0.00  0.00    +0.387 N 
ATOM      2  C   UNL     1      35.062 -18.678 -21.649  0.00  0.00    +0.039 C 
ATOM      3  C   UNL     1      35.728 -17.319 -21.380  0.00  0.00    -0.017 C 
ATOM      4  C   UNL     1      35.340 -19.118 -23.095  0.00  0.00    -0.017 C 
ATOM      5  C   UNL     1      35.333 -16.287 -22.439  0.00  0.00    -0.077 C 
ATOM      6  C   UNL     1      34.958 -18.021 -24.093  0.00  0.00    -0.077 C 
ATOM      7  H   UNL     1      36.661 -16.944 -23.828  0.00  0.00    -0.080 HD
ENDROOT
BRANCH   2  11
ATOM      8  F   UNL     1      33.246 -23.353 -17.168  0.00  0.00    -0.204 F 
ATOM      9  O   UNL     1      36.752 -20.966 -19.438  0.00  0.00    -0.354 OA
ATOM     10  N   UNL     1      36.739 -19.965 -20.400  0.00  0.00    -0.081 NA
ATOM     11  C   UNL     1      35.450 -19.730 -20.634  0.00  0.00    +0.100 A 
ATOM     12  C   UNL     1      34.597 -20.535 -19.866  0.00  0.00    +0.054 A 
ATOM     13  C   UNL     1      35.472 -21.305 -19.120  0.00  0.00    +0.179 A 
ATOM     14  C   UNL     1      33.216 -20.718 -19.698  0.00  0.00    +0.007 C 
ATOM     15  C   UNL     1      35.078 -22.269 -18.198  0.00  0.00    +0.070 C 
ATOM     16  C   UNL     1      32.783 -21.681 -18.776  0.00  0.00    +0.030 C 
ATOM     17  C   UNL     1      33.698 -22.441 -18.040  0.00  0.00    +0.143 C 
ENDBRANCH   2  11
BRANCH   1  18
ATOM     18  C   UNL     1      35.326 -15.743 -24.786  0.00  0.00    -0.074 C 
BRANCH  18  19
ATOM     19  C   UNL     1      33.836 -15.426 -24.742  0.00  0.00    +0.025 C 
BRANCH  19  20
ATOM     20  C   UNL     1      33.575 -13.938 -24.935  0.00  0.00    +0.203 C 
BRANCH  20  21
ATOM     21  O   UNL     1      34.310 -13.212 -23.960  0.00  0.00    -0.472 OA
BRANCH  21  22
ATOM     22  C   UNL     1      33.775 -12.022 -23.541  0.00  0.00    +0.172 C 
ATOM     23  C   UNL     1      32.885 -11.994 -22.472  0.00  0.00    +0.172 C 
ATOM     24  C   UNL     1      34.131 -10.849 -24.197  0.00  0.00    +0.040 C 
ATOM     25  C   UNL     1      32.345 -10.777 -22.054  0.00  0.00    +0.043 C 
ATOM     26  C   UNL     1      33.591  -9.632 -23.779  0.00  0.00    +0.006 C 
ATOM     27  C   UNL     1      32.698  -9.596 -22.708  0.00  0.00    +0.038 C 
BRANCH  27  29
ATOM     28  O   UNL     1      32.390  -7.857 -21.145  0.00  0.00    -0.291 OA
ATOM     29  C   UNL     1      32.137  -8.327 -22.272  0.00  0.00    +0.174 C 
ATOM     30  C   UNL     1      31.216  -7.537 -23.195  0.00  0.00    +0.077 C 
ENDBRANCH  27  29
BRANCH  23  31
ATOM     31  O   UNL     1      32.532 -13.140 -21.825  0.00  0.00    -0.468 OA
ATOM     32  C   UNL     1      32.309 -13.048 -20.420  0.00  0.00    +0.253 C 
ENDBRANCH  23  31
ENDBRANCH  21  22
ENDBRANCH  20  21
ENDBRANCH  19  20
ENDBRANCH  18  19
ENDBRANCH   1  18
TORSDOF 8
ENDMDL
MODEL 2
REMARK VINA RESULT:     -11.3      3.876     11.143
REMARK  Name = 71360
REMARK  8 active torsions:
REMARK  status: ('A' for Active; 'I' for Inactive)
REMARK    1  A    between atoms: N_1  and  C_18
REMARK    2  A    between atoms: C_2  and  C_11
REMARK    3  A    between atoms: C_18  and  C_19
REMARK    4  A    between atoms: C_19  and  C_20
REMARK    5  A    between atoms: C_20  and  O_21
REMARK    6  A    between atoms: O_21  and  C_22
REMARK    7  A    between atoms: C_23  and  O_31
REMARK    8  A    between atoms: C_27  and  C_29
REMARK                            x       y       z     vdW  Elec       q    Type
REMARK                         _______ _______ _______ _____ _____    ______ ____
ROOT
ATOM      1  N   UNL     1      36.091 -19.422 -20.520  0.00  0.00    +0.387 N 
ATOM      2  C   UNL     1      35.552 -17.998 -23.027  0.00  0.00    +0.039 C 
ATOM      3  C   UNL     1      36.651 -17.557 -22.048  0.00  0.00    -0.017 C 
ATOM      4  C   UNL     1      34.466 -18.783 -22.273  0.00  0.00    -0.017 C 
ATOM      5  C   UNL     1      37.180 -18.742 -21.235  0.00  0.00    -0.077 C 
ATOM      6  C   UNL     1      35.073 -19.924 -21.454  0.00  0.00    -0.077 C 
ATOM      7  H   UNL     1      35.645 -18.741 -19.905  0.00  0.00    -0.080 HD
ENDROOT
BRANCH   2  11
ATOM      8  F   UNL     1      33.579 -11.577 -23.344  0.00  0.00    -0.204 F 
ATOM      9  O   UNL     1      34.206 -15.805 -25.550  0.00  0.00    -0.354 OA
ATOM     10  N   UNL     1      34.688 -17.033 -25.113  0.00  0.00    -0.081 NA
ATOM     11  C   UNL     1      34.989 -16.847 -23.830  0.00  0.00    +0.100 A 
ATOM     12  C   UNL     1      34.730 -15.541 -23.388  0.00  0.00    +0.054 A 
ATOM     13  C   UNL     1      34.231 -14.917 -24.518  0.00  0.00    +0.179 A 
ATOM     14  C   UNL     1      34.844 -14.807 -22.199  0.00  0.00    +0.007 C 
ATOM     15  C   UNL     1      33.829 -13.586 -24.566  0.00  0.00    +0.070 C 
ATOM     16  C   UNL     1      34.447 -13.461 -22.210  0.00  0.00    +0.030 C 
ATOM     17  C   UNL     1      33.949 -12.864 -23.373  0.00  0.00    +0.143 C 
ENDBRANCH   2  11
BRANCH   1  18
ATOM     18  C   UNL     1      36.620 -20.515 -19.704  0.00  0.00    -0.074 C 
BRANCH  18  19
ATOM     19  C   UNL     1      35.686 -21.719 -19.763  0.00  0.00    +0.025 C 
BRANCH  19  20
ATOM     20  C   UNL     1      34.699 -21.718 -18.604  0.00  0.00    +0.203 C 
BRANCH  20  21
ATOM     21  O   UNL     1      34.992 -22.815 -17.750  0.00  0.00    -0.472 OA
BRANCH  21  22
ATOM     22  C   UNL     1      34.068 -23.109 -16.782  0.00  0.00    +0.172 C 
ATOM     23  C   UNL     1      34.460 -23.749 -15.611  0.00  0.00    +0.172 C 
ATOM     24  C   UNL     1      32.737 -22.763 -16.987  0.00  0.00    +0.040 C 
ATOM     25  C   UNL     1      33.510 -24.044 -14.633  0.00  0.00    +0.043 C 
ATOM     26  C   UNL     1      31.787 -23.058 -16.009  0.00  0.00    +0.006 C 
ATOM     27  C   UNL     1      32.173 -23.699 -14.832  0.00  0.00    +0.038 C 
BRANCH  27  29
ATOM     28  O   UNL     1      31.317 -23.613 -12.636  0.00  0.00    -0.291 OA
ATOM     29  C   UNL     1      31.183 -24.006 -13.812  0.00  0.00    +0.174 C 
ATOM     30  C   UNL     1      29.945 -24.823 -14.165  0.00  0.00    +0.077 C 
ENDBRANCH  27  29
BRANCH  23  31
ATOM     31  O   UNL     1      35.763 -24.091 -15.404  0.00  0.00    -0.468 OA
ATOM     32  C   UNL     1      36.013 -25.206 -14.552  0.00  0.00    +0.253 C 
ENDBRANCH  23  31
ENDBRANCH  21  22
ENDBRANCH  20  21
ENDBRANCH  19  20
ENDBRANCH  18  19
ENDBRANCH   1  18
TORSDOF 8
ENDMDL
MODEL 3
REMARK VINA RESULT:     -11.2      1.646      2.231
REMARK  Name = 71360
REMARK  8 active torsions:
REMARK  status: ('A' for Active; 'I' for Inactive)
REMARK    1  A    between atoms: N_1  and  C_18
REMARK    2  A    between atoms: C_2  and  C_11
REMARK    3  A    between atoms: C_18  and  C_19
REMARK    4  A    between atoms: C_19  and  C_20
REMARK    5  A    between atoms: C_20  and  O_21
REMARK    6  A    between atoms: O_21  and  C_22
REMARK    7  A    between atoms: C_23  and  O_31
REMARK    8  A    between atoms: C_27  and  C_29
REMARK                            x       y       z     vdW  Elec       q    Type
REMARK                         _______ _______ _______ _____ _____    ______ ____
ROOT
ATOM      1  N   UNL     1      34.528 -16.006 -23.807  0.00  0.00    +0.387 N 
ATOM      2  C   UNL     1      36.089 -17.856 -22.150  0.00  0.00    +0.039 C 
ATOM      3  C   UNL     1      35.409 -18.293 -23.457  0.00  0.00    -0.017 C 
ATOM      4  C   UNL     1      35.358 -16.638 -21.563  0.00  0.00    -0.017 C 
ATOM      5  C   UNL     1      35.263 -17.117 -24.427  0.00  0.00    -0.077 C 
ATOM      6  C   UNL     1      35.215 -15.523 -22.600  0.00  0.00    -0.077 C 
ATOM      7  H   UNL     1      33.610 -16.352 -23.529  0.00  0.00    -0.080 HD
ENDROOT
BRANCH   2  11
ATOM      8  F   UNL     1      33.231 -22.656 -18.406  0.00  0.00    -0.204 F 
ATOM      9  O   UNL     1      37.218 -20.377 -19.836  0.00  0.00    -0.354 OA
ATOM     10  N   UNL     1      37.436 -19.322 -20.713  0.00  0.00    -0.081 NA
ATOM     11  C   UNL     1      36.227 -18.989 -21.157  0.00  0.00    +0.100 A 
ATOM     12  C   UNL     1      35.205 -19.780 -20.614  0.00  0.00    +0.054 A 
ATOM     13  C   UNL     1      35.885 -20.648 -19.778  0.00  0.00    +0.179 A 
ATOM     14  C   UNL     1      33.809 -19.881 -20.711  0.00  0.00    +0.007 C 
ATOM     15  C   UNL     1      35.277 -21.637 -19.011  0.00  0.00    +0.070 C 
ATOM     16  C   UNL     1      33.162 -20.867 -19.950  0.00  0.00    +0.030 C 
ATOM     17  C   UNL     1      33.884 -21.727 -19.117  0.00  0.00    +0.143 C 
ENDBRANCH   2  11
BRANCH   1  18
ATOM     18  C   UNL     1      34.349 -14.914 -24.764  0.00  0.00    -0.074 C 
BRANCH  18  19
ATOM     19  C   UNL     1      33.423 -13.850 -24.185  0.00  0.00    +0.025 C 
BRANCH  19  20
ATOM     20  C   UNL     1      34.057 -12.467 -24.239  0.00  0.00    +0.203 C 
BRANCH  20  21
ATOM     21  O   UNL     1      33.452 -11.645 -23.250  0.00  0.00    -0.472 OA
BRANCH  21  22
ATOM     22  C   UNL     1      33.635 -10.293 -23.374  0.00  0.00    +0.172 C 
ATOM     23  C   UNL     1      32.701  -9.409 -22.844  0.00  0.00    +0.172 C 
ATOM     24  C   UNL     1      34.763  -9.818 -24.034  0.00  0.00    +0.040 C 
ATOM     25  C   UNL     1      32.898  -8.034 -22.976  0.00  0.00    +0.043 C 
ATOM     26  C   UNL     1      34.960  -8.443 -24.166  0.00  0.00    +0.006 C 
ATOM     27  C   UNL     1      34.027  -7.552 -23.638  0.00  0.00    +0.038 C 
BRANCH  27  29
ATOM     28  O   UNL     1      33.683  -5.305 -23.005  0.00  0.00    -0.291 OA
ATOM     29  C   UNL     1      34.233  -6.118 -23.775  0.00  0.00    +0.174 C 
ATOM     30  C   UNL     1      35.137  -5.574 -24.876  0.00  0.00    +0.077 C 
ENDBRANCH  27  29
BRANCH  23  31
ATOM     31  O   UNL     1      31.594  -9.868 -22.196  0.00  0.00    -0.468 OA
ATOM     32  C   UNL     1      31.661  -9.943 -20.773  0.00  0.00    +0.253 C 
ENDBRANCH  23  31
ENDBRANCH  21  22
ENDBRANCH  20  21
ENDBRANCH  19  20
ENDBRANCH  18  19
ENDBRANCH   1  18
TORSDOF 8
ENDMDL
MODEL 4
REMARK VINA RESULT:     -10.9      4.262     11.600
REMARK  Name = 71360
REMARK  8 active torsions:
REMARK  status: ('A' for Active; 'I' for Inactive)
REMARK    1  A    between atoms: N_1  and  C_18
REMARK    2  A    between atoms: C_2  and  C_11
REMARK    3  A    between atoms: C_18  and  C_19
REMARK    4  A    between atoms: C_19  and  C_20
REMARK    5  A    between atoms: C_20  and  O_21
REMARK    6  A    between atoms: O_21  and  C_22
REMARK    7  A    between atoms: C_23  and  O_31
REMARK    8  A    between atoms: C_27  and  C_29
REMARK                            x       y       z     vdW  Elec       q    Type
REMARK                         _______ _______ _______ _____ _____    ______ ____
ROOT
ATOM      1  N   UNL     1      36.322 -19.460 -20.503  0.00  0.00    +0.387 N 
ATOM      2  C   UNL     1      35.590 -18.126 -23.011  0.00  0.00    +0.039 C 
ATOM      3  C   UNL     1      36.810 -17.704 -22.177  0.00  0.00    -0.017 C 
ATOM      4  C   UNL     1      34.552 -18.811 -22.106  0.00  0.00    -0.017 C 
ATOM      5  C   UNL     1      37.360 -18.878 -21.364  0.00  0.00    -0.077 C 
ATOM      6  C   UNL     1      35.184 -19.946 -21.297  0.00  0.00    -0.077 C 
ATOM      7  H   UNL     1      35.981 -18.727 -19.881  0.00  0.00    -0.080 HD
ENDROOT
BRANCH   2  11
ATOM      8  F   UNL     1      33.572 -11.718 -23.326  0.00  0.00    -0.204 F 
ATOM      9  O   UNL     1      34.181 -15.956 -25.519  0.00  0.00    -0.354 OA
ATOM     10  N   UNL     1      34.679 -17.178 -25.084  0.00  0.00    -0.081 NA
ATOM     11  C   UNL     1      35.004 -16.982 -23.809  0.00  0.00    +0.100 A 
ATOM     12  C   UNL     1      34.745 -15.676 -23.370  0.00  0.00    +0.054 A 
ATOM     13  C   UNL     1      34.221 -15.061 -24.493  0.00  0.00    +0.179 A 
ATOM     14  C   UNL     1      34.879 -14.934 -22.186  0.00  0.00    +0.007 C 
ATOM     15  C   UNL     1      33.809 -13.733 -24.540  0.00  0.00    +0.070 C 
ATOM     16  C   UNL     1      34.473 -13.591 -22.198  0.00  0.00    +0.030 C 
ATOM     17  C   UNL     1      33.949 -13.004 -23.354  0.00  0.00    +0.143 C 
ENDBRANCH   2  11
BRANCH   1  18
ATOM     18  C   UNL     1      36.877 -20.543 -19.691  0.00  0.00    -0.074 C 
BRANCH  18  19
ATOM     19  C   UNL     1      35.760 -21.299 -18.981  0.00  0.00    +0.025 C 
BRANCH  19  20
ATOM     20  C   UNL     1      36.203 -21.796 -17.612  0.00  0.00    +0.203 C 
BRANCH  20  21
ATOM     21  O   UNL     1      35.150 -22.556 -17.036  0.00  0.00    -0.472 OA
BRANCH  21  22
ATOM     22  C   UNL     1      35.353 -23.032 -15.767  0.00  0.00    +0.172 C 
ATOM     23  C   UNL     1      34.293 -23.567 -15.042  0.00  0.00    +0.172 C 
ATOM     24  C   UNL     1      36.628 -22.970 -15.215  0.00  0.00    +0.040 C 
ATOM     25  C   UNL     1      34.512 -24.047 -13.751  0.00  0.00    +0.043 C 
ATOM     26  C   UNL     1      36.847 -23.451 -13.923  0.00  0.00    +0.006 C 
ATOM     27  C   UNL     1      35.789 -23.989 -13.191  0.00  0.00    +0.038 C 
BRANCH  27  29
ATOM     28  O   UNL     1      35.068 -24.744 -11.076  0.00  0.00    -0.291 OA
ATOM     29  C   UNL     1      36.017 -24.490 -11.845  0.00  0.00    +0.174 C 
ATOM     30  C   UNL     1      37.437 -24.719 -11.341  0.00  0.00    +0.077 C 
ENDBRANCH  27  29
BRANCH  23  31
ATOM     31  O   UNL     1      33.042 -23.630 -15.577  0.00  0.00    -0.468 OA
ATOM     32  C   UNL     1      32.087 -22.682 -15.106  0.00  0.00    +0.253 C 
ENDBRANCH  23  31
ENDBRANCH  21  22
ENDBRANCH  20  21
ENDBRANCH  19  20
ENDBRANCH  18  19
ENDBRANCH   1  18
TORSDOF 8
ENDMDL
MODEL 5
REMARK VINA RESULT:     -10.9      3.608     10.261
REMARK  Name = 71360
REMARK  8 active torsions:
REMARK  status: ('A' for Active; 'I' for Inactive)
REMARK    1  A    between atoms: N_1  and  C_18
REMARK    2  A    between atoms: C_2  and  C_11
REMARK    3  A    between atoms: C_18  and  C_19
REMARK    4  A    between atoms: C_19  and  C_20
REMARK    5  A    between atoms: C_20  and  O_21
REMARK    6  A    between atoms: O_21  and  C_22
REMARK    7  A    between atoms: C_23  and  O_31
REMARK    8  A    between atoms: C_27  and  C_29
REMARK                            x       y       z     vdW  Elec       q    Type
REMARK                         _______ _______ _______ _____ _____    ______ ____
ROOT
ATOM      1  N   UNL     1      34.569 -16.073 -23.701  0.00  0.00    +0.387 N 
ATOM      2  C   UNL     1      33.943 -13.315 -22.920  0.00  0.00    +0.039 C 
ATOM      3  C   UNL     1      34.362 -14.386 -21.901  0.00  0.00    -0.017 C 
ATOM      4  C   UNL     1      33.318 -13.986 -24.154  0.00  0.00    -0.017 C 
ATOM      5  C   UNL     1      35.244 -15.457 -22.551  0.00  0.00    -0.077 C 
ATOM      6  C   UNL     1      34.237 -15.069 -24.723  0.00  0.00    -0.077 C 
ATOM      7  H   UNL     1      33.696 -16.485 -23.370  0.00  0.00    -0.080 HD
ENDROOT
BRANCH   2  11
ATOM      8  F   UNL     1      31.794  -6.944 -22.787  0.00  0.00    -0.204 F 
ATOM      9  O   UNL     1      31.563 -11.405 -21.003  0.00  0.00    -0.354 OA
ATOM     10  N   UNL     1      32.230 -12.581 -21.320  0.00  0.00    -0.081 NA
ATOM     11  C   UNL     1      33.049 -12.254 -22.317  0.00  0.00    +0.100 A 
ATOM     12  C   UNL     1      32.957 -10.903 -22.683  0.00  0.00    +0.054 A 
ATOM     13  C   UNL     1      31.999 -10.404 -21.817  0.00  0.00    +0.179 A 
ATOM     14  C   UNL     1      33.548 -10.039 -23.617  0.00  0.00    +0.007 C 
ATOM     15  C   UNL     1      31.566  -9.083 -21.805  0.00  0.00    +0.070 C 
ATOM     16  C   UNL     1      33.135  -8.699 -23.632  0.00  0.00    +0.030 C 
ATOM     17  C   UNL     1      32.162  -8.231 -22.742  0.00  0.00    +0.143 C 
ENDBRANCH   2  11
BRANCH   1  18
ATOM     18  C   UNL     1      35.400 -17.131 -24.275  0.00  0.00    -0.074 C 
BRANCH  18  19
ATOM     19  C   UNL     1      34.598 -18.420 -24.409  0.00  0.00    +0.025 C 
BRANCH  19  20
ATOM     20  C   UNL     1      34.996 -19.439 -23.349  0.00  0.00    +0.203 C 
BRANCH  20  21
ATOM     21  O   UNL     1      34.800 -18.865 -22.064  0.00  0.00    -0.472 OA
BRANCH  21  22
ATOM     22  C   UNL     1      34.643 -19.735 -21.016  0.00  0.00    +0.172 C 
ATOM     23  C   UNL     1      35.756 -20.254 -20.364  0.00  0.00    +0.172 C 
ATOM     24  C   UNL     1      33.359 -20.090 -20.617  0.00  0.00    +0.040 C 
ATOM     25  C   UNL     1      35.583 -21.138 -19.299  0.00  0.00    +0.043 C 
ATOM     26  C   UNL     1      33.186 -20.975 -19.552  0.00  0.00    +0.006 C 
ATOM     27  C   UNL     1      34.298 -21.499 -18.893  0.00  0.00    +0.038 C 
BRANCH  27  29
ATOM     28  O   UNL     1      35.092 -22.954 -17.215  0.00  0.00    -0.291 OA
ATOM     29  C   UNL     1      34.117 -22.420 -17.782  0.00  0.00    +0.174 C 
ATOM     30  C   UNL     1      32.717 -22.756 -17.283  0.00  0.00    +0.077 C 
ENDBRANCH  27  29
BRANCH  23  31
ATOM     31  O   UNL     1      37.016 -19.909 -20.750  0.00  0.00    -0.468 OA
ATOM     32  C   UNL     1      37.397 -18.546 -20.575  0.00  0.00    +0.253 C 
ENDBRANCH  23  31
ENDBRANCH  21  22
ENDBRANCH  20  21
ENDBRANCH  19  20
ENDBRANCH  18  19
ENDBRANCH   1  18
TORSDOF 8
ENDMDL
MODEL 6
REMARK VINA RESULT:     -10.8      2.336      4.194
REMARK  Name = 71360
REMARK  8 active torsions:
REMARK  status: ('A' for Active; 'I' for Inactive)
REMARK    1  A    between atoms: N_1  and  C_18
REMARK    2  A    between atoms: C_2  and  C_11
REMARK    3  A    between atoms: C_18  and  C_19
REMARK    4  A    between atoms: C_19  and  C_20
REMARK    5  A    between atoms: C_20  and  O_21
REMARK    6  A    between atoms: O_21  and  C_22
REMARK    7  A    between atoms: C_23  and  O_31
REMARK    8  A    between atoms: C_27  and  C_29
REMARK                            x       y       z     vdW  Elec       q    Type
REMARK                         _______ _______ _______ _____ _____    ______ ____
ROOT
ATOM      1  N   UNL     1      35.744 -19.094 -20.852  0.00  0.00    +0.387 N 
ATOM      2  C   UNL     1      34.724 -21.452 -19.435  0.00  0.00    +0.039 C 
ATOM      3  C   UNL     1      33.795 -20.388 -20.041  0.00  0.00    -0.017 C 
ATOM      4  C   UNL     1      36.095 -20.831 -19.124  0.00  0.00    -0.017 C 
ATOM      5  C   UNL     1      34.455 -19.688 -21.233  0.00  0.00    -0.077 C 
ATOM      6  C   UNL     1      36.672 -20.117 -20.349  0.00  0.00    -0.077 C 
ATOM      7  H   UNL     1      35.573 -18.427 -20.099  0.00  0.00    -0.080 HD
ENDROOT
BRANCH   2  11
ATOM      8  F   UNL     1      35.405 -24.021 -13.258  0.00  0.00    -0.204 F 
ATOM      9  O   UNL     1      32.584 -23.083 -17.038  0.00  0.00    -0.354 OA
ATOM     10  N   UNL     1      32.823 -22.474 -18.264  0.00  0.00    -0.081 NA
ATOM     11  C   UNL     1      34.113 -22.147 -18.239  0.00  0.00    +0.100 A 
ATOM     12  C   UNL     1      34.749 -22.511 -17.043  0.00  0.00    +0.054 A 
ATOM     13  C   UNL     1      33.735 -23.104 -16.312  0.00  0.00    +0.179 A 
ATOM     14  C   UNL     1      36.032 -22.423 -16.482  0.00  0.00    +0.007 C 
ATOM     15  C   UNL     1      33.894 -23.630 -15.033  0.00  0.00    +0.070 C 
ATOM     16  C   UNL     1      36.229 -22.944 -15.195  0.00  0.00    +0.030 C 
ATOM     17  C   UNL     1      35.178 -23.535 -14.485  0.00  0.00    +0.143 C 
ENDBRANCH   2  11
BRANCH   1  18
ATOM     18  C   UNL     1      36.334 -18.382 -21.986  0.00  0.00    -0.074 C 
BRANCH  18  19
ATOM     19  C   UNL     1      35.601 -18.739 -23.274  0.00  0.00    +0.025 C 
BRANCH  19  20
ATOM     20  C   UNL     1      34.845 -17.544 -23.837  0.00  0.00    +0.203 C 
BRANCH  20  21
ATOM     21  O   UNL     1      35.583 -16.361 -23.562  0.00  0.00    -0.472 OA
BRANCH  21  22
ATOM     22  C   UNL     1      34.871 -15.276 -23.123  0.00  0.00    +0.172 C 
ATOM     23  C   UNL     1      34.212 -14.457 -24.034  0.00  0.00    +0.172 C 
ATOM     24  C   UNL     1      34.817 -15.005 -21.760  0.00  0.00    +0.040 C 
ATOM     25  C   UNL     1      33.490 -13.354 -23.575  0.00  0.00    +0.043 C 
ATOM     26  C   UNL     1      34.096 -13.903 -21.301  0.00  0.00    +0.006 C 
ATOM     27  C   UNL     1      33.433 -13.077 -22.209  0.00  0.00    +0.038 C 
BRANCH  27  29
ATOM     28  O   UNL     1      32.650 -10.858 -22.371  0.00  0.00    -0.291 OA
ATOM     29  C   UNL     1      32.679 -11.928 -21.731  0.00  0.00    +0.174 C 
ATOM     30  C   UNL     1      31.901 -12.010 -20.422  0.00  0.00    +0.077 C 
ENDBRANCH  27  29
BRANCH  23  31
ATOM     31  O   UNL     1      34.260 -14.717 -25.370  0.00  0.00    -0.468 OA
ATOM     32  C   UNL     1      33.216 -14.172 -26.174  0.00  0.00    +0.253 C 
ENDBRANCH  23  31
ENDBRANCH  21  22
ENDBRANCH  20  21
ENDBRANCH  19  20
ENDBRANCH  18  19
ENDBRANCH   1  18
TORSDOF 8
ENDMDL
MODEL 7
REMARK VINA RESULT:     -10.7      3.181      9.903
REMARK  Name = 71360
REMARK  8 active torsions:
REMARK  status: ('A' for Active; 'I' for Inactive)
REMARK    1  A    between atoms: N_1  and  C_18
REMARK    2  A    between atoms: C_2  and  C_11
REMARK    3  A    between atoms: C_18  and  C_19
REMARK    4  A    between atoms: C_19  and  C_20
REMARK    5  A    between atoms: C_20  and  O_21
REMARK    6  A    between atoms: O_21  and  C_22
REMARK    7  A    between atoms: C_23  and  O_31
REMARK    8  A    between atoms: C_27  and  C_29
REMARK                            x       y       z     vdW  Elec       q    Type
REMARK                         _______ _______ _______ _____ _____    ______ ____
ROOT
ATOM      1  N   UNL     1      34.314 -16.069 -24.238  0.00  0.00    +0.387 N 
ATOM      2  C   UNL     1      34.220 -13.146 -24.012  0.00  0.00    +0.039 C 
ATOM      3  C   UNL     1      34.823 -14.039 -22.916  0.00  0.00    -0.017 C 
ATOM      4  C   UNL     1      33.190 -13.944 -24.828  0.00  0.00    -0.017 C 
ATOM      5  C   UNL     1      35.361 -15.349 -23.500  0.00  0.00    -0.077 C 
ATOM      6  C   UNL     1      33.787 -15.256 -25.343  0.00  0.00    -0.077 C 
ATOM      7  H   UNL     1      33.546 -16.257 -23.592  0.00  0.00    -0.080 HD
ENDROOT
BRANCH   2  11
ATOM      8  F   UNL     1      30.709  -9.897 -19.285  0.00  0.00    -0.204 F 
ATOM      9  O   UNL     1      33.239  -9.738 -23.373  0.00  0.00    -0.354 OA
ATOM     10  N   UNL     1      33.876 -10.717 -24.124  0.00  0.00    -0.081 NA
ATOM     11  C   UNL     1      33.657 -11.853 -23.466  0.00  0.00    +0.100 A 
ATOM     12  C   UNL     1      32.898 -11.674 -22.300  0.00  0.00    +0.054 A 
ATOM     13  C   UNL     1      32.655 -10.312 -22.285  0.00  0.00    +0.179 A 
ATOM     14  C   UNL     1      32.385 -12.470 -21.264  0.00  0.00    +0.007 C 
ATOM     15  C   UNL     1      31.927  -9.656 -21.297  0.00  0.00    +0.070 C 
ATOM     16  C   UNL     1      31.645 -11.842 -20.252  0.00  0.00    +0.030 C 
ATOM     17  C   UNL     1      31.421 -10.461 -20.270  0.00  0.00    +0.143 C 
ENDBRANCH   2  11
BRANCH   1  18
ATOM     18  C   UNL     1      34.827 -17.344 -24.741  0.00  0.00    -0.074 C 
BRANCH  18  19
ATOM     19  C   UNL     1      34.118 -18.507 -24.057  0.00  0.00    +0.025 C 
BRANCH  19  20
ATOM     20  C   UNL     1      35.067 -19.296 -23.167  0.00  0.00    +0.203 C 
BRANCH  20  21
ATOM     21  O   UNL     1      34.944 -18.825 -21.832  0.00  0.00    -0.472 OA
BRANCH  21  22
ATOM     22  C   UNL     1      34.779 -19.772 -20.855  0.00  0.00    +0.172 C 
ATOM     23  C   UNL     1      35.886 -20.315 -20.212  0.00  0.00    +0.172 C 
ATOM     24  C   UNL     1      33.493 -20.182 -20.518  0.00  0.00    +0.040 C 
ATOM     25  C   UNL     1      35.705 -21.278 -19.219  0.00  0.00    +0.043 C 
ATOM     26  C   UNL     1      33.312 -21.145 -19.525  0.00  0.00    +0.006 C 
ATOM     27  C   UNL     1      34.418 -21.693 -18.876  0.00  0.00    +0.038 C 
BRANCH  27  29
ATOM     28  O   UNL     1      33.450 -23.658 -18.000  0.00  0.00    -0.291 OA
ATOM     29  C   UNL     1      34.229 -22.697 -17.840  0.00  0.00    +0.174 C 
ATOM     30  C   UNL     1      34.990 -22.594 -16.523  0.00  0.00    +0.077 C 
ENDBRANCH  27  29
BRANCH  23  31
ATOM     31  O   UNL     1      37.148 -19.917 -20.537  0.00  0.00    -0.468 OA
ATOM     32  C   UNL     1      37.483 -18.554 -20.284  0.00  0.00    +0.253 C 
ENDBRANCH  23  31
ENDBRANCH  21  22
ENDBRANCH  20  21
ENDBRANCH  19  20
ENDBRANCH  18  19
ENDBRANCH   1  18
TORSDOF 8
ENDMDL
MODEL 8
REMARK VINA RESULT:     -10.7      4.513     11.946
REMARK  Name = 71360
REMARK  8 active torsions:
REMARK  status: ('A' for Active; 'I' for Inactive)
REMARK    1  A    between atoms: N_1  and  C_18
REMARK    2  A    between atoms: C_2  and  C_11
REMARK    3  A    between atoms: C_18  and  C_19
REMARK    4  A    between atoms: C_19  and  C_20
REMARK    5  A    between atoms: C_20  and  O_21
REMARK    6  A    between atoms: O_21  and  C_22
REMARK    7  A    between atoms: C_23  and  O_31
REMARK    8  A    between atoms: C_27  and  C_29
REMARK                            x       y       z     vdW  Elec       q    Type
REMARK                         _______ _______ _______ _____ _____    ______ ____
ROOT
ATOM      1  N   UNL     1      36.233 -19.885 -19.842  0.00  0.00    +0.387 N 
ATOM      2  C   UNL     1      35.634 -18.836 -22.516  0.00  0.00    +0.039 C 
ATOM      3  C   UNL     1      36.897 -18.436 -21.736  0.00  0.00    -0.017 C 
ATOM      4  C   UNL     1      34.534 -19.277 -21.536  0.00  0.00    -0.017 C 
ATOM      5  C   UNL     1      37.324 -19.540 -20.765  0.00  0.00    -0.077 C 
ATOM      6  C   UNL     1      35.046 -20.351 -20.573  0.00  0.00    -0.077 C 
ATOM      7  H   UNL     1      35.976 -19.041 -19.330  0.00  0.00    -0.080 HD
ENDROOT
BRANCH   2  11
ATOM      8  F   UNL     1      34.022 -12.405 -23.639  0.00  0.00    -0.204 F 
ATOM      9  O   UNL     1      34.519 -16.880 -25.329  0.00  0.00    -0.354 OA
ATOM     10  N   UNL     1      34.916 -18.072 -24.736  0.00  0.00    -0.081 NA
ATOM     11  C   UNL     1      35.170 -17.757 -23.468  0.00  0.00    +0.100 A 
ATOM     12  C   UNL     1      34.961 -16.399 -23.187  0.00  0.00    +0.054 A 
ATOM     13  C   UNL     1      34.546 -15.883 -24.402  0.00  0.00    +0.179 A 
ATOM     14  C   UNL     1      35.062 -15.541 -22.081  0.00  0.00    +0.007 C 
ATOM     15  C   UNL     1      34.218 -14.548 -24.617  0.00  0.00    +0.070 C 
ATOM     16  C   UNL     1      34.737 -14.189 -22.261  0.00  0.00    +0.030 C 
ATOM     17  C   UNL     1      34.323 -13.703 -23.506  0.00  0.00    +0.143 C 
ENDBRANCH   2  11
BRANCH   1  18
ATOM     18  C   UNL     1      36.675 -20.900 -18.885  0.00  0.00    -0.074 C 
BRANCH  18  19
ATOM     19  C   UNL     1      35.558 -21.904 -18.626  0.00  0.00    +0.025 C 
BRANCH  19  20
ATOM     20  C   UNL     1      35.424 -22.221 -17.143  0.00  0.00    +0.203 C 
BRANCH  20  21
ATOM     21  O   UNL     1      36.700 -22.587 -16.634  0.00  0.00    -0.472 OA
BRANCH  21  22
ATOM     22  C   UNL     1      36.743 -23.046 -15.343  0.00  0.00    +0.172 C 
ATOM     23  C   UNL     1      37.930 -23.545 -14.817  0.00  0.00    +0.172 C 
ATOM     24  C   UNL     1      35.588 -23.006 -14.571  0.00  0.00    +0.040 C 
ATOM     25  C   UNL     1      37.961 -24.009 -13.502  0.00  0.00    +0.043 C 
ATOM     26  C   UNL     1      35.619 -23.470 -13.255  0.00  0.00    +0.006 C 
ATOM     27  C   UNL     1      36.806 -23.972 -12.721  0.00  0.00    +0.038 C 
BRANCH  27  29
ATOM     28  O   UNL     1      37.892 -24.883 -10.836  0.00  0.00    -0.291 OA
ATOM     29  C   UNL     1      36.839 -24.455 -11.349  0.00  0.00    +0.174 C 
ATOM     30  C   UNL     1      35.572 -24.447 -10.502  0.00  0.00    +0.077 C 
ENDBRANCH  27  29
BRANCH  23  31
ATOM     31  O   UNL     1      39.065 -23.586 -15.569  0.00  0.00    -0.468 OA
ATOM     32  C   UNL     1      39.980 -24.647 -15.305  0.00  0.00    +0.253 C 
ENDBRANCH  23  31
ENDBRANCH  21  22
ENDBRANCH  20  21
ENDBRANCH  19  20
ENDBRANCH  18  19
ENDBRANCH   1  18
TORSDOF 8
ENDMDL
MODEL 9
REMARK VINA RESULT:     -10.6      2.883      5.043
REMARK  Name = 71360
REMARK  8 active torsions:
REMARK  status: ('A' for Active; 'I' for Inactive)
REMARK    1  A    between atoms: N_1  and  C_18
REMARK    2  A    between atoms: C_2  and  C_11
REMARK    3  A    between atoms: C_18  and  C_19
REMARK    4  A    between atoms: C_19  and  C_20
REMARK    5  A    between atoms: C_20  and  O_21
REMARK    6  A    between atoms: O_21  and  C_22
REMARK    7  A    between atoms: C_23  and  O_31
REMARK    8  A    between atoms: C_27  and  C_29
REMARK                            x       y       z     vdW  Elec       q    Type
REMARK                         _______ _______ _______ _____ _____    ______ ____
ROOT
ATOM      1  N   UNL     1      34.732 -20.024 -20.217  0.00  0.00    +0.387 N 
ATOM      2  C   UNL     1      34.234 -22.286 -18.417  0.00  0.00    +0.039 C 
ATOM      3  C   UNL     1      33.147 -21.260 -18.771  0.00  0.00    -0.017 C 
ATOM      4  C   UNL     1      35.625 -21.651 -18.580  0.00  0.00    -0.017 C 
ATOM      5  C   UNL     1      33.398 -20.638 -20.148  0.00  0.00    -0.077 C 
ATOM      6  C   UNL     1      35.787 -21.016 -19.963  0.00  0.00    -0.077 C 
ATOM      7  H   UNL     1      34.789 -19.311 -19.490  0.00  0.00    -0.080 HD
ENDROOT
BRANCH   2  11
ATOM      8  F   UNL     1      30.108 -23.992 -13.388  0.00  0.00    -0.204 F 
ATOM      9  O   UNL     1      34.562 -23.878 -15.201  0.00  0.00    -0.354 OA
ATOM     10  N   UNL     1      35.080 -23.395 -16.396  0.00  0.00    -0.081 NA
ATOM     11  C   UNL     1      34.031 -22.904 -17.051  0.00  0.00    +0.100 A 
ATOM     12  C   UNL     1      32.828 -23.039 -16.343  0.00  0.00    +0.054 A 
ATOM     13  C   UNL     1      33.218 -23.664 -15.171  0.00  0.00    +0.179 A 
ATOM     14  C   UNL     1      31.474 -22.721 -16.528  0.00  0.00    +0.007 C 
ATOM     15  C   UNL     1      32.349 -24.011 -14.142  0.00  0.00    +0.070 C 
ATOM     16  C   UNL     1      30.570 -23.055 -15.509  0.00  0.00    +0.030 C 
ATOM     17  C   UNL     1      31.002 -23.688 -14.339  0.00  0.00    +0.143 C 
ENDBRANCH   2  11
BRANCH   1  18
ATOM     18  C   UNL     1      34.934 -19.386 -21.518  0.00  0.00    -0.074 C 
BRANCH  18  19
ATOM     19  C   UNL     1      36.410 -19.069 -21.728  0.00  0.00    +0.025 C 
BRANCH  19  20
ATOM     20  C   UNL     1      36.623 -17.604 -22.082  0.00  0.00    +0.203 C 
BRANCH  20  21
ATOM     21  O   UNL     1      35.431 -16.884 -21.797  0.00  0.00    -0.472 OA
BRANCH  21  22
ATOM     22  C   UNL     1      35.001 -15.998 -22.750  0.00  0.00    +0.172 C 
ATOM     23  C   UNL     1      34.619 -14.711 -22.388  0.00  0.00    +0.172 C 
ATOM     24  C   UNL     1      34.950 -16.404 -24.079  0.00  0.00    +0.040 C 
ATOM     25  C   UNL     1      34.182 -13.818 -23.367  0.00  0.00    +0.043 C 
ATOM     26  C   UNL     1      34.514 -15.511 -25.059  0.00  0.00    +0.006 C 
ATOM     27  C   UNL     1      34.129 -14.219 -24.702  0.00  0.00    +0.038 C 
BRANCH  27  29
ATOM     28  O   UNL     1      33.096 -13.685 -26.755  0.00  0.00    -0.291 OA
ATOM     29  C   UNL     1      33.674 -13.288 -25.724  0.00  0.00    +0.174 C 
ATOM     30  C   UNL     1      33.896 -11.790 -25.551  0.00  0.00    +0.077 C 
ENDBRANCH  27  29
BRANCH  23  31
ATOM     31  O   UNL     1      34.667 -14.308 -21.087  0.00  0.00    -0.468 OA
ATOM     32  C   UNL     1      33.581 -13.514 -20.615  0.00  0.00    +0.253 C 
ENDBRANCH  23  31
ENDBRANCH  21  22
ENDBRANCH  20  21
ENDBRANCH  19  20
ENDBRANCH  18  19
ENDBRANCH   1  18
TORSDOF 8
ENDMDL
