MODEL 1
REMARK VINA RESULT:     -12.8      0.000      0.000
REMARK  Name = 6105620
REMARK  4 active torsions:
REMARK  status: ('A' for Active; 'I' for Inactive)
REMARK    1  A    between atoms: N_2  and  C_7
REMARK    2  A    between atoms: N_3  and  C_21
REMARK    3  A    between atoms: C_9  and  C_29
REMARK    4  A    between atoms: C_30  and  C_31
REMARK                            x       y       z     vdW  Elec       q    Type
REMARK                         _______ _______ _______ _____ _____    ______ ____
ROOT
ATOM      1  N   UNL     1      35.800 -22.422 -17.019  0.00  0.00    -0.086 NA
ATOM      2  N   UNL     1      34.396 -22.437 -17.418  0.00  0.00    -0.132 N 
ATOM      3  N   UNL     1      36.467 -21.616 -17.986  0.00  0.00    -0.240 N 
ATOM      4  N   UNL     1      34.270 -21.751 -18.619  0.00  0.00    -0.146 NA
ATOM      5  C   UNL     1      35.484 -21.304 -18.900  0.00  0.00    +0.162 C 
ATOM      6  H   UNL     1      37.413 -21.345 -17.999  0.00  0.00    +0.170 HD
ENDROOT
BRANCH   2  11
ATOM      7  O   UNL     1      33.352 -24.594 -12.911  0.00  0.00    -0.220 OA
ATOM      8  O   UNL     1      28.650 -23.690 -14.937  0.00  0.00    -0.220 OA
ATOM      9  N   UNL     1      31.079 -24.705 -12.755  0.00  0.00    -0.062 NA
ATOM     10  N   UNL     1      29.950 -24.488 -13.241  0.00  0.00    -0.062 NA
ATOM     11  C   UNL     1      33.239 -22.796 -16.697  0.00  0.00    +0.089 C 
ATOM     12  C   UNL     1      33.338 -23.398 -15.429  0.00  0.00    +0.030 C 
ATOM     13  C   UNL     1      31.958 -22.559 -17.229  0.00  0.00    +0.019 C 
ATOM     14  C   UNL     1      32.185 -23.749 -14.722  0.00  0.00    +0.097 C 
ATOM     15  C   UNL     1      30.935 -23.510 -15.261  0.00  0.00    +0.096 C 
ATOM     16  C   UNL     1      30.810 -22.912 -16.519  0.00  0.00    +0.014 C 
ATOM     17  C   UNL     1      32.246 -24.378 -13.399  0.00  0.00    +0.174 C 
ATOM     18  C   UNL     1      29.765 -23.902 -14.468  0.00  0.00    +0.174 C 
ENDBRANCH   2  11
BRANCH   1  21
ATOM     19  S   UNL     1      37.613 -22.339 -15.052  0.00  0.00    -0.074 S 
ATOM     20  N   UNL     1      36.187 -24.402 -15.814  0.00  0.00    -0.310 N 
ATOM     21  C   UNL     1      36.408 -23.110 -16.079  0.00  0.00    +0.222 C 
ATOM     22  C   UNL     1      36.951 -24.861 -14.789  0.00  0.00    +0.052 C 
ATOM     23  C   UNL     1      37.802 -23.902 -14.228  0.00  0.00    +0.041 C 
ATOM     24  C   UNL     1      36.932 -26.159 -14.300  0.00  0.00    +0.015 C 
ATOM     25  C   UNL     1      38.644 -24.215 -13.174  0.00  0.00    +0.007 C 
ATOM     26  C   UNL     1      37.777 -26.486 -13.238  0.00  0.00    +0.001 C 
ATOM     27  C   UNL     1      38.628 -25.521 -12.679  0.00  0.00    +0.001 C 
ATOM     28  H   UNL     1      35.541 -24.960 -16.306  0.00  0.00    +0.149 HD
ENDBRANCH   1  21
BRANCH   5  29
ATOM     29  C   UNL     1      35.736 -20.529 -20.123  0.00  0.00    +0.037 C 
ATOM     30  C   UNL     1      34.846 -19.676 -20.603  0.00  0.00    +0.003 C 
BRANCH  30  31
ATOM     31  C   UNL     1      35.049 -18.885 -21.830  0.00  0.00    +0.000 C 
ATOM     32  C   UNL     1      34.701 -19.432 -23.055  0.00  0.00    +0.000 C 
ATOM     33  C   UNL     1      35.583 -17.610 -21.735  0.00  0.00    +0.000 C 
ATOM     34  C   UNL     1      34.892 -18.683 -24.217  0.00  0.00    +0.000 C 
ATOM     35  C   UNL     1      35.774 -16.861 -22.897  0.00  0.00    +0.000 C 
ATOM     36  C   UNL     1      35.429 -17.398 -24.137  0.00  0.00    +0.000 C 
ENDBRANCH  30  31
ENDBRANCH   5  29
TORSDOF 4
ENDMDL
MODEL 2
REMARK VINA RESULT:     -12.6      2.341      5.521
REMARK  Name = 6105620
REMARK  4 active torsions:
REMARK  status: ('A' for Active; 'I' for Inactive)
REMARK    1  A    between atoms: N_2  and  C_7
REMARK    2  A    between atoms: N_3  and  C_21
REMARK    3  A    between atoms: C_9  and  C_29
REMARK    4  A    between atoms: C_30  and  C_31
REMARK                            x       y       z     vdW  Elec       q    Type
REMARK                         _______ _______ _______ _____ _____    ______ ____
ROOT
ATOM      1  N   UNL     1      33.941 -22.446 -17.417  0.00  0.00    -0.086 NA
ATOM      2  N   UNL     1      35.321 -22.226 -16.996  0.00  0.00    -0.132 N 
ATOM      3  N   UNL     1      33.843 -21.893 -18.725  0.00  0.00    -0.240 N 
ATOM      4  N   UNL     1      35.970 -21.489 -17.978  0.00  0.00    -0.146 NA
ATOM      5  C   UNL     1      35.079 -21.325 -18.943  0.00  0.00    +0.162 C 
ATOM      6  H   UNL     1      33.070 -21.912 -19.335  0.00  0.00    +0.170 HD
ENDROOT
BRANCH   2  11
ATOM      7  O   UNL     1      36.678 -26.949 -15.616  0.00  0.00    -0.220 OA
ATOM      8  O   UNL     1      38.855 -23.951 -11.969  0.00  0.00    -0.220 OA
ATOM      9  N   UNL     1      37.926 -26.738 -13.718  0.00  0.00    -0.062 NA
ATOM     10  N   UNL     1      38.448 -26.019 -12.843  0.00  0.00    -0.062 NA
ATOM     11  C   UNL     1      36.071 -22.814 -15.957  0.00  0.00    +0.089 C 
ATOM     12  C   UNL     1      36.241 -24.209 -15.893  0.00  0.00    +0.030 C 
ATOM     13  C   UNL     1      36.667 -22.019 -14.962  0.00  0.00    +0.019 C 
ATOM     14  C   UNL     1      36.987 -24.783 -14.860  0.00  0.00    +0.097 C 
ATOM     15  C   UNL     1      37.565 -23.987 -13.890  0.00  0.00    +0.096 C 
ATOM     16  C   UNL     1      37.411 -22.598 -13.932  0.00  0.00    +0.014 C 
ATOM     17  C   UNL     1      37.186 -26.232 -14.758  0.00  0.00    +0.174 C 
ATOM     18  C   UNL     1      38.335 -24.651 -12.834  0.00  0.00    +0.174 C 
ENDBRANCH   2  11
BRANCH   1  21
ATOM     19  S   UNL     1      33.190 -23.912 -15.307  0.00  0.00    -0.074 S 
ATOM     20  N   UNL     1      31.636 -22.664 -17.009  0.00  0.00    -0.310 N 
ATOM     21  C   UNL     1      32.921 -22.903 -16.725  0.00  0.00    +0.222 C 
ATOM     22  C   UNL     1      30.789 -23.259 -16.130  0.00  0.00    +0.052 C 
ATOM     23  C   UNL     1      31.424 -23.990 -15.120  0.00  0.00    +0.041 C 
ATOM     24  C   UNL     1      29.405 -23.181 -16.180  0.00  0.00    +0.015 C 
ATOM     25  C   UNL     1      30.698 -24.654 -14.146  0.00  0.00    +0.007 C 
ATOM     26  C   UNL     1      28.662 -23.847 -15.203  0.00  0.00    +0.001 C 
ATOM     27  C   UNL     1      29.304 -24.579 -14.193  0.00  0.00    +0.001 C 
ATOM     28  H   UNL     1      31.337 -22.117 -17.772  0.00  0.00    +0.149 HD
ENDBRANCH   1  21
BRANCH   5  29
ATOM     29  C   UNL     1      35.419 -20.571 -20.159  0.00  0.00    +0.037 C 
ATOM     30  C   UNL     1      34.603 -19.663 -20.668  0.00  0.00    +0.003 C 
BRANCH  30  31
ATOM     31  C   UNL     1      34.895 -18.891 -21.888  0.00  0.00    +0.000 C 
ATOM     32  C   UNL     1      35.600 -17.701 -21.786  0.00  0.00    +0.000 C 
ATOM     33  C   UNL     1      34.459 -19.367 -23.113  0.00  0.00    +0.000 C 
ATOM     34  C   UNL     1      35.876 -16.970 -22.942  0.00  0.00    +0.000 C 
ATOM     35  C   UNL     1      34.736 -18.636 -24.269  0.00  0.00    +0.000 C 
ATOM     36  C   UNL     1      35.444 -17.437 -24.183  0.00  0.00    +0.000 C 
ENDBRANCH  30  31
ENDBRANCH   5  29
TORSDOF 4
ENDMDL
MODEL 3
REMARK VINA RESULT:     -12.5      2.076      5.337
REMARK  Name = 6105620
REMARK  4 active torsions:
REMARK  status: ('A' for Active; 'I' for Inactive)
REMARK    1  A    between atoms: N_2  and  C_7
REMARK    2  A    between atoms: N_3  and  C_21
REMARK    3  A    between atoms: C_9  and  C_29
REMARK    4  A    between atoms: C_30  and  C_31
REMARK                            x       y       z     vdW  Elec       q    Type
REMARK                         _______ _______ _______ _____ _____    ______ ____
ROOT
ATOM      1  N   UNL     1      33.846 -22.433 -17.536  0.00  0.00    -0.086 NA
ATOM      2  N   UNL     1      35.194 -22.142 -17.060  0.00  0.00    -0.132 N 
ATOM      3  N   UNL     1      33.783 -21.909 -18.859  0.00  0.00    -0.240 N 
ATOM      4  N   UNL     1      35.854 -21.395 -18.027  0.00  0.00    -0.146 NA
ATOM      5  C   UNL     1      35.001 -21.289 -19.034  0.00  0.00    +0.162 C 
ATOM      6  H   UNL     1      33.040 -21.974 -19.502  0.00  0.00    +0.170 HD
ENDROOT
BRANCH   2  11
ATOM      7  O   UNL     1      34.141 -23.893 -12.382  0.00  0.00    -0.220 OA
ATOM      8  O   UNL     1      39.299 -24.438 -12.744  0.00  0.00    -0.220 OA
ATOM      9  N   UNL     1      36.130 -24.525 -11.461  0.00  0.00    -0.062 NA
ATOM     10  N   UNL     1      37.368 -24.655 -11.548  0.00  0.00    -0.062 NA
ATOM     11  C   UNL     1      35.923 -22.677 -15.977  0.00  0.00    +0.089 C 
ATOM     12  C   UNL     1      35.271 -23.068 -14.794  0.00  0.00    +0.030 C 
ATOM     13  C   UNL     1      37.319 -22.831 -16.057  0.00  0.00    +0.019 C 
ATOM     14  C   UNL     1      36.002 -23.597 -13.726  0.00  0.00    +0.097 C 
ATOM     15  C   UNL     1      37.372 -23.741 -13.822  0.00  0.00    +0.096 C 
ATOM     16  C   UNL     1      38.043 -23.360 -14.988  0.00  0.00    +0.014 C 
ATOM     17  C   UNL     1      35.359 -24.016 -12.477  0.00  0.00    +0.174 C 
ATOM     18  C   UNL     1      38.081 -24.303 -12.667  0.00  0.00    +0.174 C 
ENDBRANCH   2  11
BRANCH   1  21
ATOM     19  S   UNL     1      32.999 -24.375 -15.902  0.00  0.00    -0.074 S 
ATOM     20  N   UNL     1      31.587 -22.400 -16.888  0.00  0.00    -0.310 N 
ATOM     21  C   UNL     1      32.817 -22.924 -16.882  0.00  0.00    +0.222 C 
ATOM     22  C   UNL     1      30.716 -23.109 -16.125  0.00  0.00    +0.052 C 
ATOM     23  C   UNL     1      31.276 -24.226 -15.495  0.00  0.00    +0.041 C 
ATOM     24  C   UNL     1      29.376 -22.798 -15.948  0.00  0.00    +0.015 C 
ATOM     25  C   UNL     1      30.516 -25.051 -14.681  0.00  0.00    +0.007 C 
ATOM     26  C   UNL     1      28.600 -23.622 -15.129  0.00  0.00    +0.001 C 
ATOM     27  C   UNL     1      29.167 -24.741 -14.501  0.00  0.00    +0.001 C 
ATOM     28  H   UNL     1      31.339 -21.590 -17.392  0.00  0.00    +0.149 HD
ENDBRANCH   1  21
BRANCH   5  29
ATOM     29  C   UNL     1      35.361 -20.543 -20.249  0.00  0.00    +0.037 C 
ATOM     30  C   UNL     1      34.589 -19.585 -20.734  0.00  0.00    +0.003 C 
BRANCH  30  31
ATOM     31  C   UNL     1      34.902 -18.818 -21.952  0.00  0.00    +0.000 C 
ATOM     32  C   UNL     1      35.521 -17.583 -21.835  0.00  0.00    +0.000 C 
ATOM     33  C   UNL     1      34.572 -19.344 -23.189  0.00  0.00    +0.000 C 
ATOM     34  C   UNL     1      35.818 -16.857 -22.989  0.00  0.00    +0.000 C 
ATOM     35  C   UNL     1      34.868 -18.618 -24.343  0.00  0.00    +0.000 C 
ATOM     36  C   UNL     1      35.492 -17.374 -24.243  0.00  0.00    +0.000 C 
ENDBRANCH  30  31
ENDBRANCH   5  29
TORSDOF 4
ENDMDL
MODEL 4
REMARK VINA RESULT:     -12.4      1.375      2.139
REMARK  Name = 6105620
REMARK  4 active torsions:
REMARK  status: ('A' for Active; 'I' for Inactive)
REMARK    1  A    between atoms: N_2  and  C_7
REMARK    2  A    between atoms: N_3  and  C_21
REMARK    3  A    between atoms: C_9  and  C_29
REMARK    4  A    between atoms: C_30  and  C_31
REMARK                            x       y       z     vdW  Elec       q    Type
REMARK                         _______ _______ _______ _____ _____    ______ ____
ROOT
ATOM      1  N   UNL     1      36.027 -22.649 -16.442  0.00  0.00    -0.086 NA
ATOM      2  N   UNL     1      34.651 -22.835 -16.891  0.00  0.00    -0.132 N 
ATOM      3  N   UNL     1      36.647 -21.829 -17.428  0.00  0.00    -0.240 N 
ATOM      4  N   UNL     1      34.506 -22.232 -18.134  0.00  0.00    -0.146 NA
ATOM      5  C   UNL     1      35.678 -21.673 -18.394  0.00  0.00    +0.162 C 
ATOM      6  H   UNL     1      37.559 -21.459 -17.421  0.00  0.00    +0.170 HD
ENDROOT
BRANCH   2  11
ATOM      7  O   UNL     1      29.610 -22.086 -17.181  0.00  0.00    -0.220 OA
ATOM      8  O   UNL     1      30.118 -25.358 -13.173  0.00  0.00    -0.220 OA
ATOM      9  N   UNL     1      28.672 -23.323 -15.510  0.00  0.00    -0.062 NA
ATOM     10  N   UNL     1      28.794 -24.108 -14.548  0.00  0.00    -0.062 NA
ATOM     11  C   UNL     1      33.507 -23.277 -16.194  0.00  0.00    +0.089 C 
ATOM     12  C   UNL     1      32.223 -22.843 -16.570  0.00  0.00    +0.030 C 
ATOM     13  C   UNL     1      33.625 -24.161 -15.107  0.00  0.00    +0.019 C 
ATOM     14  C   UNL     1      31.096 -23.286 -15.873  0.00  0.00    +0.097 C 
ATOM     15  C   UNL     1      31.231 -24.155 -14.808  0.00  0.00    +0.096 C 
ATOM     16  C   UNL     1      32.496 -24.601 -14.415  0.00  0.00    +0.014 C 
ATOM     17  C   UNL     1      29.741 -22.857 -16.234  0.00  0.00    +0.174 C 
ATOM     18  C   UNL     1      30.008 -24.583 -14.119  0.00  0.00    +0.174 C 
ENDBRANCH   2  11
BRANCH   1  21
ATOM     19  S   UNL     1      36.268 -22.786 -13.780  0.00  0.00    -0.074 S 
ATOM     20  N   UNL     1      37.625 -24.136 -15.570  0.00  0.00    -0.310 N 
ATOM     21  C   UNL     1      36.662 -23.217 -15.441  0.00  0.00    +0.222 C 
ATOM     22  C   UNL     1      38.109 -24.554 -14.372  0.00  0.00    +0.052 C 
ATOM     23  C   UNL     1      37.509 -23.948 -13.263  0.00  0.00    +0.041 C 
ATOM     24  C   UNL     1      39.110 -25.500 -14.204  0.00  0.00    +0.015 C 
ATOM     25  C   UNL     1      37.892 -24.269 -11.971  0.00  0.00    +0.007 C 
ATOM     26  C   UNL     1      39.505 -25.831 -12.906  0.00  0.00    +0.001 C 
ATOM     27  C   UNL     1      38.901 -25.220 -11.798  0.00  0.00    +0.001 C 
ATOM     28  H   UNL     1      37.948 -24.472 -16.438  0.00  0.00    +0.149 HD
ENDBRANCH   1  21
BRANCH   5  29
ATOM     29  C   UNL     1      35.899 -20.942 -19.650  0.00  0.00    +0.037 C 
ATOM     30  C   UNL     1      34.973 -20.155 -20.172  0.00  0.00    +0.003 C 
BRANCH  30  31
ATOM     31  C   UNL     1      35.144 -19.411 -21.432  0.00  0.00    +0.000 C 
ATOM     32  C   UNL     1      36.326 -18.721 -21.657  0.00  0.00    +0.000 C 
ATOM     33  C   UNL     1      34.122 -19.413 -22.366  0.00  0.00    +0.000 C 
ATOM     34  C   UNL     1      36.489 -18.017 -22.850  0.00  0.00    +0.000 C 
ATOM     35  C   UNL     1      34.285 -18.709 -23.559  0.00  0.00    +0.000 C 
ATOM     36  C   UNL     1      35.468 -18.010 -23.801  0.00  0.00    +0.000 C 
ENDBRANCH  30  31
ENDBRANCH   5  29
TORSDOF 4
ENDMDL
