MODEL 1
REMARK VINA RESULT:     -12.0      0.000      0.000
REMARK  Name = 3478
REMARK  7 active torsions:
REMARK  status: ('A' for Active; 'I' for Inactive)
REMARK    1  A    between atoms: C_1  and  S_7
REMARK    2  A    between atoms: C_2  and  C_22
REMARK    3  A    between atoms: S_7  and  N_12
REMARK    4  A    between atoms: N_11  and  C_16
REMARK    5  A    between atoms: C_22  and  C_23
REMARK    6  A    between atoms: C_23  and  N_25
REMARK    7  A    between atoms: C_26  and  C_30
REMARK                            x       y       z     vdW  Elec       q    Type
REMARK                         _______ _______ _______ _____ _____    ______ ____
ROOT
ATOM      1  C   UNL     1      34.501 -21.585 -19.041  0.00  0.00    +0.125 C 
ATOM      2  C   UNL     1      35.782 -19.735 -20.690  0.00  0.00    -0.020 C 
ATOM      3  C   UNL     1      35.894 -21.511 -19.058  0.00  0.00    +0.020 C 
ATOM      4  C   UNL     1      33.748 -20.734 -19.849  0.00  0.00    +0.020 C 
ATOM      5  C   UNL     1      36.534 -20.587 -19.882  0.00  0.00    -0.003 C 
ATOM      6  C   UNL     1      34.389 -19.809 -20.674  0.00  0.00    -0.003 C 
ENDROOT
BRANCH   1   7
ATOM      7  S   UNL     1      33.690 -22.757 -17.996  0.00  0.00    +0.077 S 
ATOM      8  O   UNL     1      33.720 -24.048 -18.657  0.00  0.00    -0.150 OA
ATOM      9  O   UNL     1      32.428 -22.163 -17.600  0.00  0.00    -0.150 OA
BRANCH   7  12
ATOM     10  O   UNL     1      33.625 -24.348 -15.329  0.00  0.00    -0.251 OA
ATOM     11  N   UNL     1      35.586 -23.398 -14.556  0.00  0.00    -0.289 N 
ATOM     12  N   UNL     1      34.746 -22.784 -16.653  0.00  0.00    -0.169 N 
ATOM     13  C   UNL     1      34.574 -23.584 -15.478  0.00  0.00    +0.319 C 
ATOM     14  H   UNL     1      36.305 -22.759 -14.770  0.00  0.00    +0.151 HD
ATOM     15  H   UNL     1      35.539 -22.200 -16.689  0.00  0.00    +0.178 HD
BRANCH  11  16
ATOM     16  C   UNL     1      35.637 -24.097 -13.293  0.00  0.00    +0.073 C 
ATOM     17  C   UNL     1      36.171 -23.189 -12.180  0.00  0.00    +0.020 C 
ATOM     18  C   UNL     1      36.466 -25.381 -13.407  0.00  0.00    +0.020 C 
ATOM     19  C   UNL     1      37.668 -22.912 -12.320  0.00  0.00    +0.002 C 
ATOM     20  C   UNL     1      37.962 -25.102 -13.545  0.00  0.00    +0.002 C 
ATOM     21  C   UNL     1      38.473 -24.205 -12.421  0.00  0.00    +0.000 C 
ENDBRANCH  11  16
ENDBRANCH   7  12
ENDBRANCH   1   7
BRANCH   2  22
ATOM     22  C   UNL     1      36.465 -18.745 -21.572  0.00  0.00    +0.048 C 
BRANCH  22  23
ATOM     23  C   UNL     1      35.730 -18.493 -22.894  0.00  0.00    +0.094 C 
BRANCH  23  25
ATOM     24  O   UNL     1      34.267 -17.355 -25.087  0.00  0.00    -0.269 OA
ATOM     25  N   UNL     1      35.417 -17.102 -23.089  0.00  0.00    -0.300 N 
ATOM     26  C   UNL     1      34.700 -16.641 -24.187  0.00  0.00    +0.261 C 
ATOM     27  H   UNL     1      35.724 -16.451 -22.417  0.00  0.00    +0.150 HD
BRANCH  26  30
ATOM     28  N   UNL     1      33.935 -14.696 -25.390  0.00  0.00    -0.262 NA
ATOM     29  N   UNL     1      34.633 -13.014 -23.256  0.00  0.00    -0.270 NA
ATOM     30  C   UNL     1      34.483 -15.173 -24.255  0.00  0.00    +0.132 C 
ATOM     31  C   UNL     1      34.825 -14.348 -23.206  0.00  0.00    +0.174 C 
ATOM     32  C   UNL     1      34.086 -12.536 -24.391  0.00  0.00    +0.057 C 
ATOM     33  C   UNL     1      33.742 -13.363 -25.439  0.00  0.00    +0.166 C 
ATOM     34  C   UNL     1      33.857 -11.068 -24.480  0.00  0.00    +0.049 C 
ENDBRANCH  26  30
ENDBRANCH  23  25
ENDBRANCH  22  23
ENDBRANCH   2  22
TORSDOF 7
ENDMDL
MODEL 2
REMARK VINA RESULT:     -10.9      3.200      4.234
REMARK  Name = 3478
REMARK  7 active torsions:
REMARK  status: ('A' for Active; 'I' for Inactive)
REMARK    1  A    between atoms: C_1  and  S_7
REMARK    2  A    between atoms: C_2  and  C_22
REMARK    3  A    between atoms: S_7  and  N_12
REMARK    4  A    between atoms: N_11  and  C_16
REMARK    5  A    between atoms: C_22  and  C_23
REMARK    6  A    between atoms: C_23  and  N_25
REMARK    7  A    between atoms: C_26  and  C_30
REMARK                            x       y       z     vdW  Elec       q    Type
REMARK                         _______ _______ _______ _____ _____    ______ ____
ROOT
ATOM      1  C   UNL     1      34.812 -21.439 -19.460  0.00  0.00    +0.125 C 
ATOM      2  C   UNL     1      35.637 -19.251 -20.979  0.00  0.00    -0.020 C 
ATOM      3  C   UNL     1      33.873 -20.681 -20.159  0.00  0.00    +0.020 C 
ATOM      4  C   UNL     1      36.164 -21.103 -19.520  0.00  0.00    +0.020 C 
ATOM      5  C   UNL     1      34.285 -19.587 -20.918  0.00  0.00    -0.003 C 
ATOM      6  C   UNL     1      36.576 -20.008 -20.280  0.00  0.00    -0.003 C 
ENDROOT
BRANCH   1   7
ATOM      7  S   UNL     1      34.289 -22.827 -18.497  0.00  0.00    +0.077 S 
ATOM      8  O   UNL     1      35.162 -22.930 -17.343  0.00  0.00    -0.150 OA
ATOM      9  O   UNL     1      34.145 -23.942 -19.413  0.00  0.00    -0.150 OA
BRANCH   7  12
ATOM     10  O   UNL     1      32.658 -23.365 -15.909  0.00  0.00    -0.251 OA
ATOM     11  N   UNL     1      30.863 -22.089 -16.613  0.00  0.00    -0.289 N 
ATOM     12  N   UNL     1      32.741 -22.310 -17.991  0.00  0.00    -0.169 N 
ATOM     13  C   UNL     1      32.117 -22.651 -16.749  0.00  0.00    +0.319 C 
ATOM     14  H   UNL     1      30.517 -21.529 -17.346  0.00  0.00    +0.151 HD
ATOM     15  H   UNL     1      32.236 -21.729 -18.606  0.00  0.00    +0.178 HD
BRANCH  11  16
ATOM     16  C   UNL     1      30.037 -22.283 -15.443  0.00  0.00    +0.073 C 
ATOM     17  C   UNL     1      30.325 -23.636 -14.782  0.00  0.00    +0.020 C 
ATOM     18  C   UNL     1      28.551 -22.140 -15.788  0.00  0.00    +0.020 C 
ATOM     19  C   UNL     1      29.796 -24.812 -15.602  0.00  0.00    +0.002 C 
ATOM     20  C   UNL     1      28.024 -23.318 -16.607  0.00  0.00    +0.002 C 
ATOM     21  C   UNL     1      28.313 -24.652 -15.924  0.00  0.00    +0.000 C 
ENDBRANCH  11  16
ENDBRANCH   7  12
ENDBRANCH   1   7
BRANCH   2  22
ATOM     22  C   UNL     1      36.079 -18.080 -21.791  0.00  0.00    +0.048 C 
BRANCH  22  23
ATOM     23  C   UNL     1      35.182 -17.803 -23.005  0.00  0.00    +0.094 C 
BRANCH  23  25
ATOM     24  O   UNL     1      34.081 -16.568 -25.351  0.00  0.00    -0.269 OA
ATOM     25  N   UNL     1      34.962 -16.397 -23.212  0.00  0.00    -0.300 N 
ATOM     26  C   UNL     1      34.421 -15.887 -24.386  0.00  0.00    +0.261 C 
ATOM     27  H   UNL     1      35.204 -15.770 -22.492  0.00  0.00    +0.150 HD
BRANCH  26  30
ATOM     28  N   UNL     1      33.882 -13.895 -25.633  0.00  0.00    -0.262 NA
ATOM     29  N   UNL     1      34.423 -12.272 -23.410  0.00  0.00    -0.270 NA
ATOM     30  C   UNL     1      34.281 -14.410 -24.454  0.00  0.00    +0.132 C 
ATOM     31  C   UNL     1      34.546 -13.614 -23.361  0.00  0.00    +0.174 C 
ATOM     32  C   UNL     1      34.025 -11.756 -24.589  0.00  0.00    +0.057 C 
ATOM     33  C   UNL     1      33.759 -12.553 -25.682  0.00  0.00    +0.166 C 
ATOM     34  C   UNL     1      33.876 -10.277 -24.679  0.00  0.00    +0.049 C 
ENDBRANCH  26  30
ENDBRANCH  23  25
ENDBRANCH  22  23
ENDBRANCH   2  22
TORSDOF 7
ENDMDL
MODEL 3
REMARK VINA RESULT:     -10.8      3.339      4.328
REMARK  Name = 3478
REMARK  7 active torsions:
REMARK  status: ('A' for Active; 'I' for Inactive)
REMARK    1  A    between atoms: C_1  and  S_7
REMARK    2  A    between atoms: C_2  and  C_22
REMARK    3  A    between atoms: S_7  and  N_12
REMARK    4  A    between atoms: N_11  and  C_16
REMARK    5  A    between atoms: C_22  and  C_23
REMARK    6  A    between atoms: C_23  and  N_25
REMARK    7  A    between atoms: C_26  and  C_30
REMARK                            x       y       z     vdW  Elec       q    Type
REMARK                         _______ _______ _______ _____ _____    ______ ____
ROOT
ATOM      1  C   UNL     1      34.479 -21.438 -19.570  0.00  0.00    +0.125 C 
ATOM      2  C   UNL     1      34.853 -19.248 -21.256  0.00  0.00    -0.020 C 
ATOM      3  C   UNL     1      35.769 -21.025 -19.902  0.00  0.00    +0.020 C 
ATOM      4  C   UNL     1      33.375 -20.756 -20.081  0.00  0.00    +0.020 C 
ATOM      5  C   UNL     1      35.957 -19.931 -20.745  0.00  0.00    -0.003 C 
ATOM      6  C   UNL     1      33.563 -19.661 -20.925  0.00  0.00    -0.003 C 
ENDROOT
BRANCH   1   7
ATOM      7  S   UNL     1      34.242 -22.826 -18.501  0.00  0.00    +0.077 S 
ATOM      8  O   UNL     1      35.270 -22.789 -17.479  0.00  0.00    -0.150 OA
ATOM      9  O   UNL     1      34.092 -23.990 -19.353  0.00  0.00    -0.150 OA
BRANCH   7  12
ATOM     10  O   UNL     1      33.099 -23.278 -15.648  0.00  0.00    -0.251 OA
ATOM     11  N   UNL     1      31.067 -22.301 -16.160  0.00  0.00    -0.289 N 
ATOM     12  N   UNL     1      32.731 -22.444 -17.799  0.00  0.00    -0.169 N 
ATOM     13  C   UNL     1      32.350 -22.724 -16.448  0.00  0.00    +0.319 C 
ATOM     14  H   UNL     1      30.545 -21.866 -16.873  0.00  0.00    +0.151 HD
ATOM     15  H   UNL     1      32.068 -21.994 -18.371  0.00  0.00    +0.178 HD
BRANCH  11  16
ATOM     16  C   UNL     1      30.457 -22.468 -14.860  0.00  0.00    +0.073 C 
ATOM     17  C   UNL     1      30.864 -23.803 -14.226  0.00  0.00    +0.020 C 
ATOM     18  C   UNL     1      28.933 -22.336 -14.946  0.00  0.00    +0.020 C 
ATOM     19  C   UNL     1      30.208 -25.000 -14.913  0.00  0.00    +0.002 C 
ATOM     20  C   UNL     1      28.279 -23.535 -15.632  0.00  0.00    +0.002 C 
ATOM     21  C   UNL     1      28.691 -24.851 -14.977  0.00  0.00    +0.000 C 
ENDBRANCH  11  16
ENDBRANCH   7  12
ENDBRANCH   1   7
BRANCH   2  22
ATOM     22  C   UNL     1      35.053 -18.077 -22.158  0.00  0.00    +0.048 C 
BRANCH  22  23
ATOM     23  C   UNL     1      35.738 -16.887 -21.474  0.00  0.00    +0.094 C 
BRANCH  23  25
ATOM     24  O   UNL     1      35.401 -14.684 -23.285  0.00  0.00    -0.269 OA
ATOM     25  N   UNL     1      34.850 -15.767 -21.309  0.00  0.00    -0.300 N 
ATOM     26  C   UNL     1      34.754 -14.742 -22.242  0.00  0.00    +0.261 C 
ATOM     27  H   UNL     1      34.289 -15.725 -20.500  0.00  0.00    +0.150 HD
BRANCH  26  30
ATOM     28  N   UNL     1      33.634 -12.695 -22.852  0.00  0.00    -0.262 NA
ATOM     29  N   UNL     1      32.292 -12.613 -20.390  0.00  0.00    -0.270 NA
ATOM     30  C   UNL     1      33.810 -13.643 -21.911  0.00  0.00    +0.132 C 
ATOM     31  C   UNL     1      33.151 -13.604 -20.702  0.00  0.00    +0.174 C 
ATOM     32  C   UNL     1      32.116 -11.664 -21.330  0.00  0.00    +0.057 C 
ATOM     33  C   UNL     1      32.775 -11.704 -22.540  0.00  0.00    +0.166 C 
ATOM     34  C   UNL     1      31.173 -10.554 -21.020  0.00  0.00    +0.049 C 
ENDBRANCH  26  30
ENDBRANCH  23  25
ENDBRANCH  22  23
ENDBRANCH   2  22
TORSDOF 7
ENDMDL
MODEL 4
REMARK VINA RESULT:     -10.8      6.355     10.363
REMARK  Name = 3478
REMARK  7 active torsions:
REMARK  status: ('A' for Active; 'I' for Inactive)
REMARK    1  A    between atoms: C_1  and  S_7
REMARK    2  A    between atoms: C_2  and  C_22
REMARK    3  A    between atoms: S_7  and  N_12
REMARK    4  A    between atoms: N_11  and  C_16
REMARK    5  A    between atoms: C_22  and  C_23
REMARK    6  A    between atoms: C_23  and  N_25
REMARK    7  A    between atoms: C_26  and  C_30
REMARK                            x       y       z     vdW  Elec       q    Type
REMARK                         _______ _______ _______ _____ _____    ______ ____
ROOT
ATOM      1  C   UNL     1      33.173 -12.579 -22.685  0.00  0.00    +0.125 C 
ATOM      2  C   UNL     1      31.991 -11.133 -20.614  0.00  0.00    -0.020 C 
ATOM      3  C   UNL     1      32.949 -13.186 -21.450  0.00  0.00    +0.020 C 
ATOM      4  C   UNL     1      32.807 -11.249 -22.886  0.00  0.00    +0.020 C 
ATOM      5  C   UNL     1      32.358 -12.463 -20.414  0.00  0.00    -0.003 C 
ATOM      6  C   UNL     1      32.216 -10.525 -21.849  0.00  0.00    -0.003 C 
ENDROOT
BRANCH   1   7
ATOM      7  S   UNL     1      33.922 -13.496 -23.999  0.00  0.00    +0.077 S 
ATOM      8  O   UNL     1      34.915 -12.649 -24.631  0.00  0.00    -0.150 OA
ATOM      9  O   UNL     1      32.842 -14.071 -24.777  0.00  0.00    -0.150 OA
BRANCH   7  12
ATOM     10  O   UNL     1      35.038 -16.263 -24.861  0.00  0.00    -0.251 OA
ATOM     11  N   UNL     1      35.767 -16.785 -22.731  0.00  0.00    -0.289 N 
ATOM     12  N   UNL     1      34.709 -14.736 -23.125  0.00  0.00    -0.169 N 
ATOM     13  C   UNL     1      35.168 -15.974 -23.675  0.00  0.00    +0.319 C 
ATOM     14  H   UNL     1      35.823 -16.462 -21.802  0.00  0.00    +0.151 HD
ATOM     15  H   UNL     1      34.858 -14.586 -22.163  0.00  0.00    +0.178 HD
BRANCH  11  16
ATOM     16  C   UNL     1      36.316 -18.085 -23.044  0.00  0.00    +0.073 C 
ATOM     17  C   UNL     1      35.256 -19.182 -22.896  0.00  0.00    +0.020 C 
ATOM     18  C   UNL     1      37.548 -18.385 -22.184  0.00  0.00    +0.020 C 
ATOM     19  C   UNL     1      34.900 -19.458 -21.435  0.00  0.00    +0.002 C 
ATOM     20  C   UNL     1      37.190 -18.662 -20.724  0.00  0.00    +0.002 C 
ATOM     21  C   UNL     1      36.141 -19.764 -20.602  0.00  0.00    +0.000 C 
ENDBRANCH  11  16
ENDBRANCH   7  12
ENDBRANCH   1   7
BRANCH   2  22
ATOM     22  C   UNL     1      31.359 -10.358 -19.507  0.00  0.00    +0.048 C 
BRANCH  22  23
ATOM     23  C   UNL     1      32.109  -9.067 -19.157  0.00  0.00    +0.094 C 
BRANCH  23  25
ATOM     24  O   UNL     1      33.397  -6.502 -19.231  0.00  0.00    -0.269 OA
ATOM     25  N   UNL     1      31.931  -8.045 -20.153  0.00  0.00    -0.300 N 
ATOM     26  C   UNL     1      32.600  -6.827 -20.107  0.00  0.00    +0.261 C 
ATOM     27  H   UNL     1      31.309  -8.214 -20.898  0.00  0.00    +0.150 HD
BRANCH  26  30
ATOM     28  N   UNL     1      33.194  -5.760 -22.187  0.00  0.00    -0.262 NA
ATOM     29  N   UNL     1      30.826  -4.256 -22.173  0.00  0.00    -0.270 NA
ATOM     30  C   UNL     1      32.286  -5.868 -21.197  0.00  0.00    +0.132 C 
ATOM     31  C   UNL     1      31.122  -5.130 -21.190  0.00  0.00    +0.174 C 
ATOM     32  C   UNL     1      31.734  -4.148 -23.163  0.00  0.00    +0.057 C 
ATOM     33  C   UNL     1      32.897  -4.887 -23.170  0.00  0.00    +0.166 C 
ATOM     34  C   UNL     1      31.439  -3.193 -24.267  0.00  0.00    +0.049 C 
ENDBRANCH  26  30
ENDBRANCH  23  25
ENDBRANCH  22  23
ENDBRANCH   2  22
TORSDOF 7
ENDMDL
MODEL 5
REMARK VINA RESULT:     -10.5      2.872      4.563
REMARK  Name = 3478
REMARK  7 active torsions:
REMARK  status: ('A' for Active; 'I' for Inactive)
REMARK    1  A    between atoms: C_1  and  S_7
REMARK    2  A    between atoms: C_2  and  C_22
REMARK    3  A    between atoms: S_7  and  N_12
REMARK    4  A    between atoms: N_11  and  C_16
REMARK    5  A    between atoms: C_22  and  C_23
REMARK    6  A    between atoms: C_23  and  N_25
REMARK    7  A    between atoms: C_26  and  C_30
REMARK                            x       y       z     vdW  Elec       q    Type
REMARK                         _______ _______ _______ _____ _____    ______ ____
ROOT
ATOM      1  C   UNL     1      35.520 -22.593 -16.810  0.00  0.00    +0.125 C 
ATOM      2  C   UNL     1      35.381 -21.182 -19.212  0.00  0.00    -0.020 C 
ATOM      3  C   UNL     1      34.352 -22.625 -17.572  0.00  0.00    +0.020 C 
ATOM      4  C   UNL     1      36.619 -21.856 -17.248  0.00  0.00    +0.020 C 
ATOM      5  C   UNL     1      34.282 -21.919 -18.773  0.00  0.00    -0.003 C 
ATOM      6  C   UNL     1      36.549 -21.149 -18.450  0.00  0.00    -0.003 C 
ENDROOT
BRANCH   1   7
ATOM      7  S   UNL     1      35.607 -23.488 -15.288  0.00  0.00    +0.077 S 
ATOM      8  O   UNL     1      35.780 -22.531 -14.212  0.00  0.00    -0.150 OA
ATOM      9  O   UNL     1      36.568 -24.556 -15.484  0.00  0.00    -0.150 OA
BRANCH   7  12
ATOM     10  O   UNL     1      32.947 -22.403 -14.108  0.00  0.00    -0.251 OA
ATOM     11  N   UNL     1      31.755 -24.293 -14.700  0.00  0.00    -0.289 N 
ATOM     12  N   UNL     1      34.035 -24.153 -15.208  0.00  0.00    -0.169 N 
ATOM     13  C   UNL     1      32.895 -23.518 -14.619  0.00  0.00    +0.319 C 
ATOM     14  H   UNL     1      31.817 -25.176 -15.132  0.00  0.00    +0.151 HD
ATOM     15  H   UNL     1      33.902 -25.047 -15.599  0.00  0.00    +0.178 HD
BRANCH  11  16
ATOM     16  C   UNL     1      30.475 -23.866 -14.181  0.00  0.00    +0.073 C 
ATOM     17  C   UNL     1      29.378 -24.883 -14.514  0.00  0.00    +0.020 C 
ATOM     18  C   UNL     1      30.111 -22.468 -14.693  0.00  0.00    +0.020 C 
ATOM     19  C   UNL     1      29.007 -24.877 -15.997  0.00  0.00    +0.002 C 
ATOM     20  C   UNL     1      29.740 -22.467 -16.176  0.00  0.00    +0.002 C 
ATOM     21  C   UNL     1      28.638 -23.478 -16.481  0.00  0.00    +0.000 C 
ENDBRANCH  11  16
ENDBRANCH   7  12
ENDBRANCH   1   7
BRANCH   2  22
ATOM     22  C   UNL     1      35.308 -20.427 -20.496  0.00  0.00    +0.048 C 
BRANCH  22  23
ATOM     23  C   UNL     1      36.413 -19.373 -20.651  0.00  0.00    +0.094 C 
BRANCH  23  25
ATOM     24  O   UNL     1      36.103 -18.796 -23.446  0.00  0.00    -0.269 OA
ATOM     25  N   UNL     1      35.923 -18.149 -21.226  0.00  0.00    -0.300 N 
ATOM     26  C   UNL     1      35.807 -17.959 -22.598  0.00  0.00    +0.261 C 
ATOM     27  H   UNL     1      35.661 -17.416 -20.623  0.00  0.00    +0.150 HD
BRANCH  26  30
ATOM     28  N   UNL     1      35.162 -15.696 -22.071  0.00  0.00    -0.262 NA
ATOM     29  N   UNL     1      34.569 -15.164 -24.761  0.00  0.00    -0.270 NA
ATOM     30  C   UNL     1      35.310 -16.628 -23.033  0.00  0.00    +0.132 C 
ATOM     31  C   UNL     1      35.020 -16.367 -24.354  0.00  0.00    +0.174 C 
ATOM     32  C   UNL     1      34.419 -14.231 -23.800  0.00  0.00    +0.057 C 
ATOM     33  C   UNL     1      34.710 -14.492 -22.479  0.00  0.00    +0.166 C 
ATOM     34  C   UNL     1      33.924 -12.890 -24.214  0.00  0.00    +0.049 C 
ENDBRANCH  26  30
ENDBRANCH  23  25
ENDBRANCH  22  23
ENDBRANCH   2  22
TORSDOF 7
ENDMDL
MODEL 6
REMARK VINA RESULT:     -10.5      3.181      5.451
REMARK  Name = 3478
REMARK  7 active torsions:
REMARK  status: ('A' for Active; 'I' for Inactive)
REMARK    1  A    between atoms: C_1  and  S_7
REMARK    2  A    between atoms: C_2  and  C_22
REMARK    3  A    between atoms: S_7  and  N_12
REMARK    4  A    between atoms: N_11  and  C_16
REMARK    5  A    between atoms: C_22  and  C_23
REMARK    6  A    between atoms: C_23  and  N_25
REMARK    7  A    between atoms: C_26  and  C_30
REMARK                            x       y       z     vdW  Elec       q    Type
REMARK                         _______ _______ _______ _____ _____    ______ ____
ROOT
ATOM      1  C   UNL     1      36.390 -23.477 -14.841  0.00  0.00    +0.125 C 
ATOM      2  C   UNL     1      36.904 -21.798 -17.008  0.00  0.00    -0.020 C 
ATOM      3  C   UNL     1      35.353 -23.103 -15.697  0.00  0.00    +0.020 C 
ATOM      4  C   UNL     1      37.684 -23.010 -15.069  0.00  0.00    +0.020 C 
ATOM      5  C   UNL     1      35.610 -22.264 -16.780  0.00  0.00    -0.003 C 
ATOM      6  C   UNL     1      37.941 -22.170 -16.152  0.00  0.00    -0.003 C 
ENDROOT
BRANCH   1   7
ATOM      7  S   UNL     1      36.063 -24.541 -13.468  0.00  0.00    +0.077 S 
ATOM      8  O   UNL     1      36.057 -23.734 -12.263  0.00  0.00    -0.150 OA
ATOM      9  O   UNL     1      36.963 -25.672 -13.591  0.00  0.00    -0.150 OA
BRANCH   7  12
ATOM     10  O   UNL     1      33.292 -23.441 -12.601  0.00  0.00    -0.251 OA
ATOM     11  N   UNL     1      32.130 -25.054 -13.780  0.00  0.00    -0.289 N 
ATOM     12  N   UNL     1      34.470 -25.048 -13.819  0.00  0.00    -0.169 N 
ATOM     13  C   UNL     1      33.276 -24.427 -13.332  0.00  0.00    +0.319 C 
ATOM     14  H   UNL     1      32.224 -25.841 -14.366  0.00  0.00    +0.151 HD
ATOM     15  H   UNL     1      34.364 -25.834 -14.404  0.00  0.00    +0.178 HD
BRANCH  11  16
ATOM     16  C   UNL     1      30.800 -24.609 -13.429  0.00  0.00    +0.073 C 
ATOM     17  C   UNL     1      29.734 -25.395 -14.199  0.00  0.00    +0.020 C 
ATOM     18  C   UNL     1      30.648 -23.101 -13.653  0.00  0.00    +0.020 C 
ATOM     19  C   UNL     1      29.688 -25.022 -15.680  0.00  0.00    +0.002 C 
ATOM     20  C   UNL     1      30.601 -22.731 -15.135  0.00  0.00    +0.002 C 
ATOM     21  C   UNL     1      29.525 -23.518 -15.878  0.00  0.00    +0.000 C 
ENDBRANCH  11  16
ENDBRANCH   7  12
ENDBRANCH   1   7
BRANCH   2  22
ATOM     22  C   UNL     1      37.180 -20.899 -18.166  0.00  0.00    +0.048 C 
BRANCH  22  23
ATOM     23  C   UNL     1      36.386 -21.264 -19.427  0.00  0.00    +0.094 C 
BRANCH  23  25
ATOM     24  O   UNL     1      33.935 -20.147 -20.423  0.00  0.00    -0.269 OA
ATOM     25  N   UNL     1      36.253 -20.151 -20.329  0.00  0.00    -0.300 N 
ATOM     26  C   UNL     1      35.019 -19.678 -20.759  0.00  0.00    +0.261 C 
ATOM     27  H   UNL     1      37.069 -19.708 -20.656  0.00  0.00    +0.150 HD
BRANCH  26  30
ATOM     28  N   UNL     1      35.392 -17.337 -21.204  0.00  0.00    -0.262 NA
ATOM     29  N   UNL     1      34.779 -17.684 -23.920  0.00  0.00    -0.270 NA
ATOM     30  C   UNL     1      35.052 -18.538 -21.712  0.00  0.00    +0.132 C 
ATOM     31  C   UNL     1      34.751 -18.709 -23.046  0.00  0.00    +0.174 C 
ATOM     32  C   UNL     1      35.117 -16.481 -23.413  0.00  0.00    +0.057 C 
ATOM     33  C   UNL     1      35.419 -16.312 -22.079  0.00  0.00    +0.166 C 
ATOM     34  C   UNL     1      35.159 -15.326 -24.350  0.00  0.00    +0.049 C 
ENDBRANCH  26  30
ENDBRANCH  23  25
ENDBRANCH  22  23
ENDBRANCH   2  22
TORSDOF 7
ENDMDL
MODEL 7
REMARK VINA RESULT:     -10.2      2.501     11.563
REMARK  Name = 3478
REMARK  7 active torsions:
REMARK  status: ('A' for Active; 'I' for Inactive)
REMARK    1  A    between atoms: C_1  and  S_7
REMARK    2  A    between atoms: C_2  and  C_22
REMARK    3  A    between atoms: S_7  and  N_12
REMARK    4  A    between atoms: N_11  and  C_16
REMARK    5  A    between atoms: C_22  and  C_23
REMARK    6  A    between atoms: C_23  and  N_25
REMARK    7  A    between atoms: C_26  and  C_30
REMARK                            x       y       z     vdW  Elec       q    Type
REMARK                         _______ _______ _______ _____ _____    ______ ____
ROOT
ATOM      1  C   UNL     1      34.997 -20.109 -20.618  0.00  0.00    +0.125 C 
ATOM      2  C   UNL     1      33.969 -21.944 -18.786  0.00  0.00    -0.020 C 
ATOM      3  C   UNL     1      33.619 -20.198 -20.417  0.00  0.00    +0.020 C 
ATOM      4  C   UNL     1      35.861 -20.938 -19.904  0.00  0.00    +0.020 C 
ATOM      5  C   UNL     1      33.105 -21.115 -19.501  0.00  0.00    -0.003 C 
ATOM      6  C   UNL     1      35.346 -21.857 -18.988  0.00  0.00    -0.003 C 
ENDROOT
BRANCH   1   7
ATOM      7  S   UNL     1      35.648 -18.946 -21.779  0.00  0.00    +0.077 S 
ATOM      8  O   UNL     1      35.051 -19.217 -23.073  0.00  0.00    -0.150 OA
ATOM      9  O   UNL     1      37.089 -18.955 -21.618  0.00  0.00    -0.150 OA
BRANCH   7  12
ATOM     10  O   UNL     1      36.110 -15.982 -22.583  0.00  0.00    -0.251 OA
ATOM     11  N   UNL     1      34.681 -15.175 -20.954  0.00  0.00    -0.289 N 
ATOM     12  N   UNL     1      35.021 -17.481 -21.161  0.00  0.00    -0.169 N 
ATOM     13  C   UNL     1      35.338 -16.173 -21.647  0.00  0.00    +0.319 C 
ATOM     14  H   UNL     1      34.081 -15.433 -20.217  0.00  0.00    +0.151 HD
ATOM     15  H   UNL     1      34.389 -17.542 -20.409  0.00  0.00    +0.178 HD
BRANCH  11  16
ATOM     16  C   UNL     1      34.835 -13.771 -21.262  0.00  0.00    +0.073 C 
ATOM     17  C   UNL     1      33.897 -12.913 -20.406  0.00  0.00    +0.020 C 
ATOM     18  C   UNL     1      34.620 -13.508 -22.756  0.00  0.00    +0.020 C 
ATOM     19  C   UNL     1      32.433 -13.054 -20.824  0.00  0.00    +0.002 C 
ATOM     20  C   UNL     1      33.155 -13.648 -23.170  0.00  0.00    +0.002 C 
ATOM     21  C   UNL     1      32.243 -12.776 -22.313  0.00  0.00    +0.000 C 
ENDBRANCH  11  16
ENDBRANCH   7  12
ENDBRANCH   1   7
BRANCH   2  22
ATOM     22  C   UNL     1      33.420 -22.926 -17.806  0.00  0.00    +0.048 C 
BRANCH  22  23
ATOM     23  C   UNL     1      33.825 -22.635 -16.356  0.00  0.00    +0.094 C 
BRANCH  23  25
ATOM     24  O   UNL     1      34.341 -24.685 -14.413  0.00  0.00    -0.269 OA
ATOM     25  N   UNL     1      35.105 -23.199 -16.022  0.00  0.00    -0.300 N 
ATOM     26  C   UNL     1      35.260 -24.192 -15.062  0.00  0.00    +0.261 C 
ATOM     27  H   UNL     1      35.905 -22.867 -16.492  0.00  0.00    +0.150 HD
BRANCH  26  30
ATOM     28  N   UNL     1      36.864 -25.981 -14.846  0.00  0.00    -0.262 NA
ATOM     29  N   UNL     1      38.935 -24.157 -14.343  0.00  0.00    -0.270 NA
ATOM     30  C   UNL     1      36.652 -24.650 -14.815  0.00  0.00    +0.132 C 
ATOM     31  C   UNL     1      37.669 -23.754 -14.569  0.00  0.00    +0.174 C 
ATOM     32  C   UNL     1      39.148 -25.488 -14.373  0.00  0.00    +0.057 C 
ATOM     33  C   UNL     1      38.130 -26.384 -14.620  0.00  0.00    +0.166 C 
ATOM     34  C   UNL     1      40.535 -25.969 -14.129  0.00  0.00    +0.049 C 
ENDBRANCH  26  30
ENDBRANCH  23  25
ENDBRANCH  22  23
ENDBRANCH   2  22
TORSDOF 7
ENDMDL
MODEL 8
REMARK VINA RESULT:     -10.1      4.969     13.060
REMARK  Name = 3478
REMARK  7 active torsions:
REMARK  status: ('A' for Active; 'I' for Inactive)
REMARK    1  A    between atoms: C_1  and  S_7
REMARK    2  A    between atoms: C_2  and  C_22
REMARK    3  A    between atoms: S_7  and  N_12
REMARK    4  A    between atoms: N_11  and  C_16
REMARK    5  A    between atoms: C_22  and  C_23
REMARK    6  A    between atoms: C_23  and  N_25
REMARK    7  A    between atoms: C_26  and  C_30
REMARK                            x       y       z     vdW  Elec       q    Type
REMARK                         _______ _______ _______ _____ _____    ______ ____
ROOT
ATOM      1  C   UNL     1      33.040 -12.762 -21.720  0.00  0.00    +0.125 C 
ATOM      2  C   UNL     1      34.771 -14.715 -22.706  0.00  0.00    -0.020 C 
ATOM      3  C   UNL     1      33.251 -12.879 -23.094  0.00  0.00    +0.020 C 
ATOM      4  C   UNL     1      33.694 -13.622 -20.839  0.00  0.00    +0.020 C 
ATOM      5  C   UNL     1      34.117 -13.855 -23.587  0.00  0.00    -0.003 C 
ATOM      6  C   UNL     1      34.561 -14.599 -21.332  0.00  0.00    -0.003 C 
ENDROOT
BRANCH   1   7
ATOM      7  S   UNL     1      31.943 -11.525 -21.096  0.00  0.00    +0.077 S 
ATOM      8  O   UNL     1      32.273 -11.291 -19.703  0.00  0.00    -0.150 OA
ATOM      9  O   UNL     1      30.602 -11.922 -21.477  0.00  0.00    -0.150 OA
BRANCH   7  12
ATOM     10  O   UNL     1      31.915  -8.478 -20.495  0.00  0.00    -0.251 OA
ATOM     11  N   UNL     1      32.789  -7.923 -22.562  0.00  0.00    -0.289 N 
ATOM     12  N   UNL     1      32.415 -10.170 -22.025  0.00  0.00    -0.169 N 
ATOM     13  C   UNL     1      32.337  -8.806 -21.600  0.00  0.00    +0.319 C 
ATOM     14  H   UNL     1      33.108  -8.288 -23.420  0.00  0.00    +0.151 HD
ATOM     15  H   UNL     1      32.770 -10.343 -22.927  0.00  0.00    +0.178 HD
BRANCH  11  16
ATOM     16  C   UNL     1      32.814  -6.492 -22.367  0.00  0.00    +0.073 C 
ATOM     17  C   UNL     1      31.590  -5.826 -23.005  0.00  0.00    +0.020 C 
ATOM     18  C   UNL     1      34.117  -5.886 -22.900  0.00  0.00    +0.020 C 
ATOM     19  C   UNL     1      31.656  -5.824 -24.533  0.00  0.00    +0.002 C 
ATOM     20  C   UNL     1      34.179  -5.884 -24.427  0.00  0.00    +0.002 C 
ATOM     21  C   UNL     1      32.956  -5.206 -25.039  0.00  0.00    +0.000 C 
ENDBRANCH  11  16
ENDBRANCH   7  12
ENDBRANCH   1   7
BRANCH   2  22
ATOM     22  C   UNL     1      35.696 -15.760 -23.232  0.00  0.00    +0.048 C 
BRANCH  22  23
ATOM     23  C   UNL     1      34.974 -16.985 -23.807  0.00  0.00    +0.094 C 
BRANCH  23  25
ATOM     24  O   UNL     1      36.721 -18.638 -22.238  0.00  0.00    -0.269 OA
ATOM     25  N   UNL     1      34.584 -17.919 -22.784  0.00  0.00    -0.300 N 
ATOM     26  C   UNL     1      35.504 -18.680 -22.074  0.00  0.00    +0.261 C 
ATOM     27  H   UNL     1      33.626 -18.023 -22.580  0.00  0.00    +0.150 HD
BRANCH  26  30
ATOM     28  N   UNL     1      35.823 -20.275 -20.293  0.00  0.00    -0.262 NA
ATOM     29  N   UNL     1      33.054 -20.647 -20.035  0.00  0.00    -0.270 NA
ATOM     30  C   UNL     1      34.939 -19.618 -21.069  0.00  0.00    +0.132 C 
ATOM     31  C   UNL     1      33.579 -19.799 -20.943  0.00  0.00    +0.174 C 
ATOM     32  C   UNL     1      33.938 -21.305 -19.259  0.00  0.00    +0.057 C 
ATOM     33  C   UNL     1      35.298 -21.123 -19.386  0.00  0.00    +0.166 C 
ATOM     34  C   UNL     1      33.393 -22.249 -18.244  0.00  0.00    +0.049 C 
ENDBRANCH  26  30
ENDBRANCH  23  25
ENDBRANCH  22  23
ENDBRANCH   2  22
TORSDOF 7
ENDMDL
MODEL 9
REMARK VINA RESULT:     -10.1      5.595     13.699
REMARK  Name = 3478
REMARK  7 active torsions:
REMARK  status: ('A' for Active; 'I' for Inactive)
REMARK    1  A    between atoms: C_1  and  S_7
REMARK    2  A    between atoms: C_2  and  C_22
REMARK    3  A    between atoms: S_7  and  N_12
REMARK    4  A    between atoms: N_11  and  C_16
REMARK    5  A    between atoms: C_22  and  C_23
REMARK    6  A    between atoms: C_23  and  N_25
REMARK    7  A    between atoms: C_26  and  C_30
REMARK                            x       y       z     vdW  Elec       q    Type
REMARK                         _______ _______ _______ _____ _____    ______ ____
ROOT
ATOM      1  C   UNL     1      32.368 -10.995 -20.822  0.00  0.00    +0.125 C 
ATOM      2  C   UNL     1      33.160 -13.073 -22.505  0.00  0.00    -0.020 C 
ATOM      3  C   UNL     1      32.680 -10.733 -22.156  0.00  0.00    +0.020 C 
ATOM      4  C   UNL     1      32.451 -12.297 -20.329  0.00  0.00    +0.020 C 
ATOM      5  C   UNL     1      33.077 -11.771 -22.997  0.00  0.00    -0.003 C 
ATOM      6  C   UNL     1      32.848 -13.336 -21.171  0.00  0.00    -0.003 C 
ENDROOT
BRANCH   1   7
ATOM      7  S   UNL     1      31.865  -9.678 -19.755  0.00  0.00    +0.077 S 
ATOM      8  O   UNL     1      32.957  -9.394 -18.843  0.00  0.00    -0.150 OA
ATOM      9  O   UNL     1      30.553 -10.028 -19.246  0.00  0.00    -0.150 OA
BRANCH   7  12
ATOM     10  O   UNL     1      33.621  -7.175 -20.302  0.00  0.00    -0.251 OA
ATOM     11  N   UNL     1      32.240  -6.406 -21.988  0.00  0.00    -0.289 N 
ATOM     12  N   UNL     1      31.711  -8.393 -20.872  0.00  0.00    -0.169 N 
ATOM     13  C   UNL     1      32.619  -7.294 -21.001  0.00  0.00    +0.319 C 
ATOM     14  H   UNL     1      31.415  -6.591 -22.495  0.00  0.00    +0.151 HD
ATOM     15  H   UNL     1      30.934  -8.411 -21.476  0.00  0.00    +0.178 HD
BRANCH  11  16
ATOM     16  C   UNL     1      32.998  -5.218 -22.312  0.00  0.00    +0.073 C 
ATOM     17  C   UNL     1      32.070  -4.037 -22.615  0.00  0.00    +0.020 C 
ATOM     18  C   UNL     1      33.962  -5.480 -23.473  0.00  0.00    +0.020 C 
ATOM     19  C   UNL     1      31.350  -4.189 -23.955  0.00  0.00    +0.002 C 
ATOM     20  C   UNL     1      33.239  -5.630 -24.812  0.00  0.00    +0.002 C 
ATOM     21  C   UNL     1      32.331  -4.438 -25.097  0.00  0.00    +0.000 C 
ENDBRANCH  11  16
ENDBRANCH   7  12
ENDBRANCH   1   7
BRANCH   2  22
ATOM     22  C   UNL     1      33.584 -14.185 -23.405  0.00  0.00    +0.048 C 
BRANCH  22  23
ATOM     23  C   UNL     1      35.068 -14.549 -23.271  0.00  0.00    +0.094 C 
BRANCH  23  25
ATOM     24  O   UNL     1      35.437 -17.232 -24.224  0.00  0.00    -0.269 OA
ATOM     25  N   UNL     1      35.272 -15.725 -22.468  0.00  0.00    -0.300 N 
ATOM     26  C   UNL     1      35.442 -16.990 -23.020  0.00  0.00    +0.261 C 
ATOM     27  H   UNL     1      35.291 -15.631 -21.488  0.00  0.00    +0.150 HD
BRANCH  26  30
ATOM     28  N   UNL     1      34.568 -18.942 -21.905  0.00  0.00    -0.262 NA
ATOM     29  N   UNL     1      36.958 -19.281 -20.476  0.00  0.00    -0.270 NA
ATOM     30  C   UNL     1      35.615 -18.106 -22.055  0.00  0.00    +0.132 C 
ATOM     31  C   UNL     1      36.789 -18.272 -21.354  0.00  0.00    +0.174 C 
ATOM     32  C   UNL     1      35.912 -20.117 -20.325  0.00  0.00    +0.057 C 
ATOM     33  C   UNL     1      34.738 -19.950 -21.027  0.00  0.00    +0.166 C 
ATOM     34  C   UNL     1      36.064 -21.244 -19.364  0.00  0.00    +0.049 C 
ENDBRANCH  26  30
ENDBRANCH  23  25
ENDBRANCH  22  23
ENDBRANCH   2  22
TORSDOF 7
ENDMDL
