MODEL 1
REMARK VINA RESULT:     -11.7      0.000      0.000
REMARK  Name = 11538992
REMARK  4 active torsions:
REMARK  status: ('A' for Active; 'I' for Inactive)
REMARK    1  A    between atoms: C_1  and  N_7
REMARK    2  A    between atoms: C_3  and  C_24
REMARK    3  A    between atoms: C_4  and  N_30
REMARK    4  A    between atoms: C_15  and  C_20
REMARK                            x       y       z     vdW  Elec       q    Type
REMARK                         _______ _______ _______ _____ _____    ______ ____
ROOT
ATOM      1  C   UNL     1      35.279 -21.502 -19.526  0.00  0.00    -0.059 C 
ATOM      2  C   UNL     1      36.481 -20.554 -19.478  0.00  0.00    -0.042 C 
ATOM      3  C   UNL     1      35.205 -18.865 -20.891  0.00  0.00    +0.005 C 
ATOM      4  C   UNL     1      36.532 -19.648 -20.720  0.00  0.00    -0.064 C 
ATOM      5  C   UNL     1      33.970 -20.723 -19.676  0.00  0.00    -0.021 C 
ATOM      6  C   UNL     1      34.000 -19.825 -20.911  0.00  0.00    +0.000 C 
ENDROOT
BRANCH   1   7
ATOM      7  N   UNL     1      35.236 -22.311 -18.307  0.00  0.00    +0.394 N 
ATOM      8  N   UNL     1      34.927 -23.160 -15.674  0.00  0.00    -0.299 N 
ATOM      9  N   UNL     1      32.788 -23.563 -15.808  0.00  0.00    -0.136 NA
ATOM     10  N   UNL     1      33.257 -24.038 -14.594  0.00  0.00    -0.125 NA
ATOM     11  C   UNL     1      36.174 -21.787 -17.298  0.00  0.00    -0.052 C 
ATOM     12  C   UNL     1      33.859 -22.363 -17.773  0.00  0.00    -0.009 C 
ATOM     13  C   UNL     1      36.243 -22.730 -16.087  0.00  0.00    +0.086 C 
ATOM     14  C   UNL     1      33.811 -23.039 -16.450  0.00  0.00    +0.122 A 
ATOM     15  C   UNL     1      34.548 -23.786 -14.536  0.00  0.00    +0.238 A 
ATOM     16  H   UNL     1      35.525 -23.261 -18.540  0.00  0.00    -0.079 HD
BRANCH  15  20
ATOM     17  F   UNL     1      36.411 -25.068 -13.758  0.00  0.00    -0.163 F 
ATOM     18  F   UNL     1      36.206 -23.056 -12.974  0.00  0.00    -0.163 F 
ATOM     19  F   UNL     1      34.837 -24.618 -12.327  0.00  0.00    -0.163 F 
ATOM     20  C   UNL     1      35.470 -24.120 -13.438  0.00  0.00    +0.452 C 
ENDBRANCH  15  20
ENDBRANCH   1   7
BRANCH   3  24
ATOM     21  F   UNL     1      35.091 -19.877 -23.541  0.00  0.00    -0.204 F 
ATOM     22  F   UNL     1      35.257 -14.440 -22.968  0.00  0.00    -0.202 F 
ATOM     23  F   UNL     1      35.145 -15.553 -25.461  0.00  0.00    -0.202 F 
ATOM     24  C   UNL     1      35.189 -17.973 -22.126  0.00  0.00    +0.005 C 
ATOM     25  C   UNL     1      35.132 -18.546 -23.393  0.00  0.00    +0.138 C 
ATOM     26  C   UNL     1      35.231 -16.591 -21.977  0.00  0.00    +0.030 C 
ATOM     27  C   UNL     1      35.217 -15.772 -23.105  0.00  0.00    +0.167 C 
ATOM     28  C   UNL     1      35.118 -17.726 -24.521  0.00  0.00    +0.061 C 
ATOM     29  C   UNL     1      35.160 -16.340 -24.378  0.00  0.00    +0.170 C 
ENDBRANCH   3  24
BRANCH   4  30
ATOM     30  N   UNL     1      37.668 -18.727 -20.605  0.00  0.00    +0.382 N 
ATOM     31  H   UNL     1      38.030 -18.517 -21.534  0.00  0.00    -0.089 HD
ATOM     32  H   UNL     1      38.401 -19.160 -20.044  0.00  0.00    -0.089 HD
ATOM     33  H   UNL     1      37.361 -17.864 -20.156  0.00  0.00    -0.089 HD
ENDBRANCH   4  30
TORSDOF 4
ENDMDL
MODEL 2
REMARK VINA RESULT:     -11.7      0.872      1.633
REMARK  Name = 11538992
REMARK  4 active torsions:
REMARK  status: ('A' for Active; 'I' for Inactive)
REMARK    1  A    between atoms: C_1  and  N_7
REMARK    2  A    between atoms: C_3  and  C_24
REMARK    3  A    between atoms: C_4  and  N_30
REMARK    4  A    between atoms: C_15  and  C_20
REMARK                            x       y       z     vdW  Elec       q    Type
REMARK                         _______ _______ _______ _____ _____    ______ ____
ROOT
ATOM      1  C   UNL     1      35.154 -21.838 -19.132  0.00  0.00    -0.059 C 
ATOM      2  C   UNL     1      36.364 -20.898 -19.122  0.00  0.00    -0.042 C 
ATOM      3  C   UNL     1      35.102 -19.258 -20.605  0.00  0.00    +0.005 C 
ATOM      4  C   UNL     1      36.423 -20.044 -20.401  0.00  0.00    -0.064 C 
ATOM      5  C   UNL     1      33.852 -21.055 -19.316  0.00  0.00    -0.021 C 
ATOM      6  C   UNL     1      33.889 -20.208 -20.587  0.00  0.00    +0.000 C 
ENDROOT
BRANCH   1   7
ATOM      7  N   UNL     1      35.104 -22.595 -17.882  0.00  0.00    +0.394 N 
ATOM      8  N   UNL     1      34.791 -23.333 -15.215  0.00  0.00    -0.299 N 
ATOM      9  N   UNL     1      32.646 -23.716 -15.330  0.00  0.00    -0.136 NA
ATOM     10  N   UNL     1      33.113 -24.146 -14.098  0.00  0.00    -0.125 NA
ATOM     11  C   UNL     1      36.051 -22.042 -16.896  0.00  0.00    -0.052 C 
ATOM     12  C   UNL     1      33.727 -22.609 -17.344  0.00  0.00    -0.009 C 
ATOM     13  C   UNL     1      36.110 -22.936 -15.648  0.00  0.00    +0.086 C 
ATOM     14  C   UNL     1      33.674 -23.231 -15.994  0.00  0.00    +0.122 A 
ATOM     15  C   UNL     1      34.406 -23.907 -14.052  0.00  0.00    +0.238 A 
ATOM     16  H   UNL     1      35.381 -23.558 -18.077  0.00  0.00    -0.079 HD
BRANCH  15  20
ATOM     17  F   UNL     1      36.302 -25.126 -13.249  0.00  0.00    -0.163 F 
ATOM     18  F   UNL     1      36.023 -23.119 -12.476  0.00  0.00    -0.163 F 
ATOM     19  F   UNL     1      34.698 -24.722 -11.838  0.00  0.00    -0.163 F 
ATOM     20  C   UNL     1      35.327 -24.207 -12.943  0.00  0.00    +0.452 C 
ENDBRANCH  15  20
ENDBRANCH   1   7
BRANCH   3  24
ATOM     21  F   UNL     1      35.465 -16.443 -20.611  0.00  0.00    -0.204 F 
ATOM     22  F   UNL     1      34.712 -18.858 -25.460  0.00  0.00    -0.202 F 
ATOM     23  F   UNL     1      35.074 -16.153 -25.318  0.00  0.00    -0.202 F 
ATOM     24  C   UNL     1      35.094 -18.418 -21.875  0.00  0.00    +0.005 C 
ATOM     25  C   UNL     1      35.279 -17.041 -21.796  0.00  0.00    +0.138 C 
ATOM     26  C   UNL     1      34.903 -19.036 -23.107  0.00  0.00    +0.030 C 
ATOM     27  C   UNL     1      34.896 -18.270 -24.272  0.00  0.00    +0.167 C 
ATOM     28  C   UNL     1      35.272 -16.275 -22.962  0.00  0.00    +0.061 C 
ATOM     29  C   UNL     1      35.080 -16.889 -24.199  0.00  0.00    +0.170 C 
ENDBRANCH   3  24
BRANCH   4  30
ATOM     30  N   UNL     1      37.566 -19.129 -20.322  0.00  0.00    +0.382 N 
ATOM     31  H   UNL     1      38.433 -19.666 -20.338  0.00  0.00    -0.089 HD
ATOM     32  H   UNL     1      37.514 -18.593 -19.456  0.00  0.00    -0.089 HD
ATOM     33  H   UNL     1      37.547 -18.492 -21.118  0.00  0.00    -0.089 HD
ENDBRANCH   4  30
TORSDOF 4
ENDMDL
MODEL 3
REMARK VINA RESULT:     -11.5      7.076     11.265
REMARK  Name = 11538992
REMARK  4 active torsions:
REMARK  status: ('A' for Active; 'I' for Inactive)
REMARK    1  A    between atoms: C_1  and  N_7
REMARK    2  A    between atoms: C_3  and  C_24
REMARK    3  A    between atoms: C_4  and  N_30
REMARK    4  A    between atoms: C_15  and  C_20
REMARK                            x       y       z     vdW  Elec       q    Type
REMARK                         _______ _______ _______ _____ _____    ______ ____
ROOT
ATOM      1  C   UNL     1      33.660 -11.603 -23.794  0.00  0.00    -0.059 C 
ATOM      2  C   UNL     1      34.775 -10.567 -23.970  0.00  0.00    -0.042 C 
ATOM      3  C   UNL     1      33.450  -8.904 -22.570  0.00  0.00    +0.005 C 
ATOM      4  C   UNL     1      34.226  -9.132 -23.893  0.00  0.00    -0.064 C 
ATOM      5  C   UNL     1      32.910 -11.385 -22.477  0.00  0.00    -0.021 C 
ATOM      6  C   UNL     1      32.349  -9.967 -22.388  0.00  0.00    +0.000 C 
ENDROOT
BRANCH   1   7
ATOM      7  N   UNL     1      34.227 -12.951 -23.822  0.00  0.00    +0.394 N 
ATOM      8  N   UNL     1      34.594 -15.701 -23.586  0.00  0.00    -0.299 N 
ATOM      9  N   UNL     1      33.716 -16.219 -25.515  0.00  0.00    -0.136 NA
ATOM     10  N   UNL     1      34.302 -17.351 -24.971  0.00  0.00    -0.125 NA
ATOM     11  C   UNL     1      34.272 -13.529 -22.466  0.00  0.00    -0.052 C 
ATOM     12  C   UNL     1      33.456 -13.815 -24.740  0.00  0.00    -0.009 C 
ATOM     13  C   UNL     1      35.014 -14.874 -22.479  0.00  0.00    +0.086 C 
ATOM     14  C   UNL     1      33.906 -15.230 -24.667  0.00  0.00    +0.122 A 
ATOM     15  C   UNL     1      34.825 -17.015 -23.811  0.00  0.00    +0.238 A 
ATOM     16  H   UNL     1      35.185 -12.891 -24.168  0.00  0.00    -0.079 HD
BRANCH  15  20
ATOM     17  F   UNL     1      36.871 -17.531 -22.684  0.00  0.00    -0.163 F 
ATOM     18  F   UNL     1      35.029 -17.939 -21.614  0.00  0.00    -0.163 F 
ATOM     19  F   UNL     1      35.612 -19.197 -23.289  0.00  0.00    -0.163 F 
ATOM     20  C   UNL     1      35.559 -17.889 -22.880  0.00  0.00    +0.452 C 
ENDBRANCH  15  20
ENDBRANCH   1   7
BRANCH   3  24
ATOM     21  F   UNL     1      33.591  -7.343 -20.204  0.00  0.00    -0.204 F 
ATOM     22  F   UNL     1      31.042  -5.113 -24.499  0.00  0.00    -0.202 F 
ATOM     23  F   UNL     1      31.251  -3.722 -22.156  0.00  0.00    -0.202 F 
ATOM     24  C   UNL     1      32.857  -7.506 -22.455  0.00  0.00    +0.005 C 
ATOM     25  C   UNL     1      32.967  -6.803 -21.260  0.00  0.00    +0.138 C 
ATOM     26  C   UNL     1      32.210  -6.942 -23.550  0.00  0.00    +0.030 C 
ATOM     27  C   UNL     1      31.666  -5.662 -23.449  0.00  0.00    +0.167 C 
ATOM     28  C   UNL     1      32.423  -5.522 -21.159  0.00  0.00    +0.061 C 
ATOM     29  C   UNL     1      31.773  -4.952 -22.252  0.00  0.00    +0.170 C 
ENDBRANCH   3  24
BRANCH   4  30
ATOM     30  N   UNL     1      35.334  -8.179 -24.018  0.00  0.00    +0.382 N 
ATOM     31  H   UNL     1      35.145  -7.537 -24.787  0.00  0.00    -0.089 HD
ATOM     32  H   UNL     1      36.199  -8.686 -24.203  0.00  0.00    -0.089 HD
ATOM     33  H   UNL     1      35.427  -7.652 -23.150  0.00  0.00    -0.089 HD
ENDBRANCH   4  30
TORSDOF 4
ENDMDL
MODEL 4
REMARK VINA RESULT:     -11.4      7.294     11.305
REMARK  Name = 11538992
REMARK  4 active torsions:
REMARK  status: ('A' for Active; 'I' for Inactive)
REMARK    1  A    between atoms: C_1  and  N_7
REMARK    2  A    between atoms: C_3  and  C_24
REMARK    3  A    between atoms: C_4  and  N_30
REMARK    4  A    between atoms: C_15  and  C_20
REMARK                            x       y       z     vdW  Elec       q    Type
REMARK                         _______ _______ _______ _____ _____    ______ ____
ROOT
ATOM      1  C   UNL     1      34.255 -11.638 -22.963  0.00  0.00    -0.059 C 
ATOM      2  C   UNL     1      32.800 -11.566 -22.490  0.00  0.00    -0.042 C 
ATOM      3  C   UNL     1      32.652  -9.161 -23.311  0.00  0.00    +0.005 C 
ATOM      4  C   UNL     1      32.399 -10.126 -22.124  0.00  0.00    -0.064 C 
ATOM      5  C   UNL     1      34.496 -10.697 -24.146  0.00  0.00    -0.021 C 
ATOM      6  C   UNL     1      34.111  -9.260 -23.798  0.00  0.00    +0.000 C 
ENDROOT
BRANCH   1   7
ATOM      7  N   UNL     1      34.584 -13.010 -23.349  0.00  0.00    +0.394 N 
ATOM      8  N   UNL     1      34.500 -15.762 -23.764  0.00  0.00    -0.299 N 
ATOM      9  N   UNL     1      33.410 -15.678 -25.652  0.00  0.00    -0.136 NA
ATOM     10  N   UNL     1      33.835 -16.980 -25.438  0.00  0.00    -0.125 NA
ATOM     11  C   UNL     1      34.630 -13.890 -22.166  0.00  0.00    -0.052 C 
ATOM     12  C   UNL     1      33.614 -13.512 -24.344  0.00  0.00    -0.009 C 
ATOM     13  C   UNL     1      35.132 -15.289 -22.555  0.00  0.00    +0.086 C 
ATOM     14  C   UNL     1      33.824 -14.955 -24.634  0.00  0.00    +0.122 A 
ATOM     15  C   UNL     1      34.490 -17.006 -24.297  0.00  0.00    +0.238 A 
ATOM     16  H   UNL     1      35.511 -13.012 -23.775  0.00  0.00    -0.079 HD
BRANCH  15  20
ATOM     17  F   UNL     1      36.478 -18.020 -23.435  0.00  0.00    -0.163 F 
ATOM     18  F   UNL     1      34.614 -18.509 -22.440  0.00  0.00    -0.163 F 
ATOM     19  F   UNL     1      35.035 -19.317 -24.415  0.00  0.00    -0.163 F 
ATOM     20  C   UNL     1      35.133 -18.171 -23.667  0.00  0.00    +0.452 C 
ENDBRANCH  15  20
ENDBRANCH   1   7
BRANCH   3  24
ATOM     21  F   UNL     1      31.202  -7.486 -25.084  0.00  0.00    -0.204 F 
ATOM     22  F   UNL     1      32.755  -5.298 -20.318  0.00  0.00    -0.202 F 
ATOM     23  F   UNL     1      31.351  -3.799 -22.121  0.00  0.00    -0.202 F 
ATOM     24  C   UNL     1      32.301  -7.713 -22.993  0.00  0.00    +0.005 C 
ATOM     25  C   UNL     1      31.586  -6.955 -23.915  0.00  0.00    +0.138 C 
ATOM     26  C   UNL     1      32.697  -7.161 -21.779  0.00  0.00    +0.030 C 
ATOM     27  C   UNL     1      32.377  -5.836 -21.484  0.00  0.00    +0.167 C 
ATOM     28  C   UNL     1      31.265  -5.631 -23.620  0.00  0.00    +0.061 C 
ATOM     29  C   UNL     1      31.661  -5.071 -22.406  0.00  0.00    +0.170 C 
ENDBRANCH   3  24
BRANCH   4  30
ATOM     30  N   UNL     1      30.988 -10.100 -21.726  0.00  0.00    +0.382 N 
ATOM     31  H   UNL     1      30.663 -11.053 -21.564  0.00  0.00    -0.089 HD
ATOM     32  H   UNL     1      30.433  -9.674 -22.467  0.00  0.00    -0.089 HD
ATOM     33  H   UNL     1      30.887  -9.556 -20.869  0.00  0.00    -0.089 HD
ENDBRANCH   4  30
TORSDOF 4
ENDMDL
MODEL 5
REMARK VINA RESULT:     -10.7      1.486      1.919
REMARK  Name = 11538992
REMARK  4 active torsions:
REMARK  status: ('A' for Active; 'I' for Inactive)
REMARK    1  A    between atoms: C_1  and  N_7
REMARK    2  A    between atoms: C_3  and  C_24
REMARK    3  A    between atoms: C_4  and  N_30
REMARK    4  A    between atoms: C_15  and  C_20
REMARK                            x       y       z     vdW  Elec       q    Type
REMARK                         _______ _______ _______ _____ _____    ______ ____
ROOT
ATOM      1  C   UNL     1      36.062 -20.784 -18.618  0.00  0.00    -0.059 C 
ATOM      2  C   UNL     1      34.728 -21.006 -19.338  0.00  0.00    -0.042 C 
ATOM      3  C   UNL     1      35.599 -19.716 -21.352  0.00  0.00    +0.005 C 
ATOM      4  C   UNL     1      34.435 -19.876 -20.340  0.00  0.00    -0.064 C 
ATOM      5  C   UNL     1      37.210 -20.644 -19.621  0.00  0.00    -0.021 C 
ATOM      6  C   UNL     1      36.940 -19.520 -20.619  0.00  0.00    +0.000 C 
ENDROOT
BRANCH   1   7
ATOM      7  N   UNL     1      36.330 -21.901 -17.713  0.00  0.00    +0.394 N 
ATOM      8  N   UNL     1      36.610 -23.497 -15.449  0.00  0.00    -0.299 N 
ATOM      9  N   UNL     1      34.534 -24.164 -15.376  0.00  0.00    -0.136 NA
ATOM     10  N   UNL     1      35.269 -24.887 -14.450  0.00  0.00    -0.125 NA
ATOM     11  C   UNL     1      37.386 -21.550 -16.745  0.00  0.00    -0.052 C 
ATOM     12  C   UNL     1      35.090 -22.309 -17.019  0.00  0.00    -0.009 C 
ATOM     13  C   UNL     1      37.774 -22.776 -15.905  0.00  0.00    +0.086 C 
ATOM     14  C   UNL     1      35.360 -23.332 -15.974  0.00  0.00    +0.122 A 
ATOM     15  C   UNL     1      36.515 -24.470 -14.513  0.00  0.00    +0.238 A 
ATOM     16  H   UNL     1      36.662 -22.691 -18.266  0.00  0.00    -0.079 HD
BRANCH  15  20
ATOM     17  F   UNL     1      38.677 -25.495 -14.471  0.00  0.00    -0.163 F 
ATOM     18  F   UNL     1      38.270 -23.995 -12.958  0.00  0.00    -0.163 F 
ATOM     19  F   UNL     1      37.320 -25.948 -12.833  0.00  0.00    -0.163 F 
ATOM     20  C   UNL     1      37.657 -24.959 -13.722  0.00  0.00    +0.452 C 
ENDBRANCH  15  20
ENDBRANCH   1   7
BRANCH   3  24
ATOM     21  F   UNL     1      35.070 -20.158 -24.105  0.00  0.00    -0.204 F 
ATOM     22  F   UNL     1      35.267 -14.958 -22.421  0.00  0.00    -0.202 F 
ATOM     23  F   UNL     1      34.767 -15.530 -25.046  0.00  0.00    -0.202 F 
ATOM     24  C   UNL     1      35.375 -18.588 -22.351  0.00  0.00    +0.005 C 
ATOM     25  C   UNL     1      35.120 -18.886 -23.686  0.00  0.00    +0.138 C 
ATOM     26  C   UNL     1      35.425 -17.267 -21.919  0.00  0.00    +0.030 C 
ATOM     27  C   UNL     1      35.220 -16.232 -22.830  0.00  0.00    +0.167 C 
ATOM     28  C   UNL     1      34.915 -17.850 -24.598  0.00  0.00    +0.061 C 
ATOM     29  C   UNL     1      34.965 -16.524 -24.170  0.00  0.00    +0.170 C 
ENDBRANCH   3  24
BRANCH   4  30
ATOM     30  N   UNL     1      33.176 -20.158 -21.037  0.00  0.00    +0.382 N 
ATOM     31  H   UNL     1      32.399 -20.073 -20.382  0.00  0.00    -0.089 HD
ATOM     32  H   UNL     1      33.200 -21.105 -21.414  0.00  0.00    -0.089 HD
ATOM     33  H   UNL     1      33.052 -19.491 -21.799  0.00  0.00    -0.089 HD
ENDBRANCH   4  30
TORSDOF 4
ENDMDL
MODEL 6
REMARK VINA RESULT:     -10.6      6.537     10.633
REMARK  Name = 11538992
REMARK  4 active torsions:
REMARK  status: ('A' for Active; 'I' for Inactive)
REMARK    1  A    between atoms: C_1  and  N_7
REMARK    2  A    between atoms: C_3  and  C_24
REMARK    3  A    between atoms: C_4  and  N_30
REMARK    4  A    between atoms: C_15  and  C_20
REMARK                            x       y       z     vdW  Elec       q    Type
REMARK                         _______ _______ _______ _____ _____    ______ ____
ROOT
ATOM      1  C   UNL     1      33.010 -12.352 -23.164  0.00  0.00    -0.059 C 
ATOM      2  C   UNL     1      34.192 -11.481 -23.602  0.00  0.00    -0.042 C 
ATOM      3  C   UNL     1      33.163  -9.483 -22.407  0.00  0.00    +0.005 C 
ATOM      4  C   UNL     1      33.785 -10.003 -23.728  0.00  0.00    -0.064 C 
ATOM      5  C   UNL     1      32.411 -11.845 -21.850  0.00  0.00    -0.021 C 
ATOM      6  C   UNL     1      31.992 -10.380 -21.961  0.00  0.00    +0.000 C 
ENDROOT
BRANCH   1   7
ATOM      7  N   UNL     1      33.446 -13.739 -23.006  0.00  0.00    +0.394 N 
ATOM      8  N   UNL     1      34.989 -16.035 -22.689  0.00  0.00    -0.299 N 
ATOM      9  N   UNL     1      35.119 -15.929 -20.514  0.00  0.00    -0.136 NA
ATOM     10  N   UNL     1      35.642 -17.142 -20.935  0.00  0.00    -0.125 NA
ATOM     11  C   UNL     1      34.322 -14.143 -24.122  0.00  0.00    -0.052 C 
ATOM     12  C   UNL     1      34.127 -13.919 -21.707  0.00  0.00    -0.009 C 
ATOM     13  C   UNL     1      34.644 -15.643 -24.035  0.00  0.00    +0.086 C 
ATOM     14  C   UNL     1      34.725 -15.275 -21.586  0.00  0.00    +0.122 A 
ATOM     15  C   UNL     1      35.552 -17.184 -22.248  0.00  0.00    +0.238 A 
ATOM     16  H   UNL     1      32.622 -14.340 -23.021  0.00  0.00    -0.079 HD
BRANCH  15  20
ATOM     17  F   UNL     1      35.705 -18.071 -24.464  0.00  0.00    -0.163 F 
ATOM     18  F   UNL     1      37.317 -18.557 -23.096  0.00  0.00    -0.163 F 
ATOM     19  F   UNL     1      35.363 -19.478 -22.842  0.00  0.00    -0.163 F 
ATOM     20  C   UNL     1      35.971 -18.283 -23.133  0.00  0.00    +0.452 C 
ENDBRANCH  15  20
ENDBRANCH   1   7
BRANCH   3  24
ATOM     21  F   UNL     1      33.534  -7.620 -20.298  0.00  0.00    -0.204 F 
ATOM     22  F   UNL     1      31.072  -5.785 -24.824  0.00  0.00    -0.202 F 
ATOM     23  F   UNL     1      31.494  -4.100 -22.714  0.00  0.00    -0.202 F 
ATOM     24  C   UNL     1      32.713  -8.030 -22.487  0.00  0.00    +0.005 C 
ATOM     25  C   UNL     1      32.931  -7.177 -21.409  0.00  0.00    +0.138 C 
ATOM     26  C   UNL     1      32.088  -7.567 -23.640  0.00  0.00    +0.030 C 
ATOM     27  C   UNL     1      31.674  -6.237 -23.717  0.00  0.00    +0.167 C 
ATOM     28  C   UNL     1      32.517  -5.847 -21.486  0.00  0.00    +0.061 C 
ATOM     29  C   UNL     1      31.889  -5.377 -22.639  0.00  0.00    +0.170 C 
ENDBRANCH   3  24
BRANCH   4  30
ATOM     30  N   UNL     1      34.959  -9.206 -24.100  0.00  0.00    +0.382 N 
ATOM     31  H   UNL     1      35.760  -9.822 -24.232  0.00  0.00    -0.089 HD
ATOM     32  H   UNL     1      35.164  -8.537 -23.358  0.00  0.00    -0.089 HD
ATOM     33  H   UNL     1      34.768  -8.704 -24.967  0.00  0.00    -0.089 HD
ENDBRANCH   4  30
TORSDOF 4
ENDMDL
MODEL 7
REMARK VINA RESULT:     -10.1      6.929     10.906
REMARK  Name = 11538992
REMARK  4 active torsions:
REMARK  status: ('A' for Active; 'I' for Inactive)
REMARK    1  A    between atoms: C_1  and  N_7
REMARK    2  A    between atoms: C_3  and  C_24
REMARK    3  A    between atoms: C_4  and  N_30
REMARK    4  A    between atoms: C_15  and  C_20
REMARK                            x       y       z     vdW  Elec       q    Type
REMARK                         _______ _______ _______ _____ _____    ______ ____
ROOT
ATOM      1  C   UNL     1      33.635 -12.167 -22.283  0.00  0.00    -0.059 C 
ATOM      2  C   UNL     1      32.345 -11.857 -21.516  0.00  0.00    -0.042 C 
ATOM      3  C   UNL     1      32.240  -9.565 -22.619  0.00  0.00    +0.005 C 
ATOM      4  C   UNL     1      32.181 -10.346 -21.280  0.00  0.00    -0.064 C 
ATOM      5  C   UNL     1      33.680 -11.408 -23.611  0.00  0.00    -0.021 C 
ATOM      6  C   UNL     1      33.528  -9.904 -23.395  0.00  0.00    +0.000 C 
ENDROOT
BRANCH   1   7
ATOM      7  N   UNL     1      33.732 -13.605 -22.532  0.00  0.00    +0.394 N 
ATOM      8  N   UNL     1      34.664 -16.150 -23.167  0.00  0.00    -0.299 N 
ATOM      9  N   UNL     1      35.430 -16.620 -21.180  0.00  0.00    -0.136 NA
ATOM     10  N   UNL     1      35.485 -17.763 -21.963  0.00  0.00    -0.125 NA
ATOM     11  C   UNL     1      34.121 -13.870 -23.929  0.00  0.00    -0.052 C 
ATOM     12  C   UNL     1      34.685 -14.228 -21.590  0.00  0.00    -0.009 C 
ATOM     13  C   UNL     1      34.062 -15.376 -24.227  0.00  0.00    +0.086 C 
ATOM     14  C   UNL     1      34.927 -15.657 -21.922  0.00  0.00    +0.122 A 
ATOM     15  C   UNL     1      35.018 -17.456 -23.154  0.00  0.00    +0.238 A 
ATOM     16  H   UNL     1      32.812 -14.021 -22.379  0.00  0.00    -0.079 HD
BRANCH  15  20
ATOM     17  F   UNL     1      35.500 -19.570 -24.166  0.00  0.00    -0.163 F 
ATOM     18  F   UNL     1      33.575 -18.678 -24.618  0.00  0.00    -0.163 F 
ATOM     19  F   UNL     1      35.389 -17.835 -25.472  0.00  0.00    -0.163 F 
ATOM     20  C   UNL     1      34.874 -18.355 -24.311  0.00  0.00    +0.452 C 
ENDBRANCH  15  20
ENDBRANCH   1   7
BRANCH   3  24
ATOM     21  F   UNL     1      31.206  -7.842 -24.623  0.00  0.00    -0.204 F 
ATOM     22  F   UNL     1      32.786  -5.520 -19.930  0.00  0.00    -0.202 F 
ATOM     23  F   UNL     1      31.771  -3.981 -21.946  0.00  0.00    -0.202 F 
ATOM     24  C   UNL     1      32.113  -8.058 -22.440  0.00  0.00    +0.005 C 
ATOM     25  C   UNL     1      31.596  -7.279 -23.471  0.00  0.00    +0.138 C 
ATOM     26  C   UNL     1      32.516  -7.471 -21.245  0.00  0.00    +0.030 C 
ATOM     27  C   UNL     1      32.400  -6.091 -21.078  0.00  0.00    +0.167 C 
ATOM     28  C   UNL     1      31.480  -5.900 -23.303  0.00  0.00    +0.061 C 
ATOM     29  C   UNL     1      31.883  -5.306 -22.108  0.00  0.00    +0.170 C 
ENDBRANCH   3  24
BRANCH   4  30
ATOM     30  N   UNL     1      30.912 -10.097 -20.589  0.00  0.00    +0.382 N 
ATOM     31  H   UNL     1      30.284 -10.887 -20.736  0.00  0.00    -0.089 HD
ATOM     32  H   UNL     1      30.483  -9.249 -20.960  0.00  0.00    -0.089 HD
ATOM     33  H   UNL     1      31.085  -9.981 -19.591  0.00  0.00    -0.089 HD
ENDBRANCH   4  30
TORSDOF 4
ENDMDL
MODEL 8
REMARK VINA RESULT:      -9.9      7.493     13.395
REMARK  Name = 11538992
REMARK  4 active torsions:
REMARK  status: ('A' for Active; 'I' for Inactive)
REMARK    1  A    between atoms: C_1  and  N_7
REMARK    2  A    between atoms: C_3  and  C_24
REMARK    3  A    between atoms: C_4  and  N_30
REMARK    4  A    between atoms: C_15  and  C_20
REMARK                            x       y       z     vdW  Elec       q    Type
REMARK                         _______ _______ _______ _____ _____    ______ ____
ROOT
ATOM      1  C   UNL     1      32.988 -11.203 -23.428  0.00  0.00    -0.059 C 
ATOM      2  C   UNL     1      32.775 -11.806 -22.035  0.00  0.00    -0.042 C 
ATOM      3  C   UNL     1      34.473 -13.628 -22.564  0.00  0.00    +0.005 C 
ATOM      4  C   UNL     1      33.050 -13.319 -22.029  0.00  0.00    -0.064 C 
ATOM      5  C   UNL     1      34.400 -11.495 -23.943  0.00  0.00    -0.021 C 
ATOM      6  C   UNL     1      34.686 -12.995 -23.953  0.00  0.00    +0.000 C 
ENDROOT
BRANCH   1   7
ATOM      7  N   UNL     1      32.767  -9.758 -23.382  0.00  0.00    +0.394 N 
ATOM      8  N   UNL     1      32.881  -7.057 -22.716  0.00  0.00    -0.299 N 
ATOM      9  N   UNL     1      34.597  -6.579 -23.975  0.00  0.00    -0.136 NA
ATOM     10  N   UNL     1      34.067  -5.401 -23.474  0.00  0.00    -0.125 NA
ATOM     11  C   UNL     1      32.247  -9.349 -22.065  0.00  0.00    -0.052 C 
ATOM     12  C   UNL     1      34.015  -9.036 -23.706  0.00  0.00    -0.009 C 
ATOM     13  C   UNL     1      31.865  -7.861 -22.076  0.00  0.00    +0.086 C 
ATOM     14  C   UNL     1      33.866  -7.570 -23.510  0.00  0.00    +0.122 A 
ATOM     15  C   UNL     1      33.034  -5.713 -22.720  0.00  0.00    +0.238 A 
ATOM     16  H   UNL     1      32.066  -9.517 -24.084  0.00  0.00    -0.079 HD
BRANCH  15  20
ATOM     17  F   UNL     1      30.826  -4.879 -22.332  0.00  0.00    -0.163 F 
ATOM     18  F   UNL     1      32.165  -4.950 -20.627  0.00  0.00    -0.163 F 
ATOM     19  F   UNL     1      32.472  -3.465 -22.186  0.00  0.00    -0.163 F 
ATOM     20  C   UNL     1      32.153  -4.786 -21.991  0.00  0.00    +0.452 C 
ENDBRANCH  15  20
ENDBRANCH   1   7
BRANCH   3  24
ATOM     21  F   UNL     1      35.171 -15.141 -20.267  0.00  0.00    -0.204 F 
ATOM     22  F   UNL     1      34.974 -17.816 -25.033  0.00  0.00    -0.202 F 
ATOM     23  F   UNL     1      35.633 -19.149 -22.741  0.00  0.00    -0.202 F 
ATOM     24  C   UNL     1      34.787 -15.117 -22.609  0.00  0.00    +0.005 C 
ATOM     25  C   UNL     1      35.122 -15.790 -21.438  0.00  0.00    +0.138 C 
ATOM     26  C   UNL     1      34.735 -15.794 -23.823  0.00  0.00    +0.030 C 
ATOM     27  C   UNL     1      35.022 -17.158 -23.868  0.00  0.00    +0.167 C 
ATOM     28  C   UNL     1      35.408 -17.154 -21.483  0.00  0.00    +0.061 C 
ATOM     29  C   UNL     1      35.359 -17.838 -22.697  0.00  0.00    +0.170 C 
ENDBRANCH   3  24
BRANCH   4  30
ATOM     30  N   UNL     1      32.882 -13.839 -20.668  0.00  0.00    +0.382 N 
ATOM     31  H   UNL     1      32.489 -13.111 -20.073  0.00  0.00    -0.089 HD
ATOM     32  H   UNL     1      33.789 -14.127 -20.300  0.00  0.00    -0.089 HD
ATOM     33  H   UNL     1      32.252 -14.641 -20.686  0.00  0.00    -0.089 HD
ENDBRANCH   4  30
TORSDOF 4
ENDMDL
MODEL 9
REMARK VINA RESULT:      -9.9      8.154     13.877
REMARK  Name = 11538992
REMARK  4 active torsions:
REMARK  status: ('A' for Active; 'I' for Inactive)
REMARK    1  A    between atoms: C_1  and  N_7
REMARK    2  A    between atoms: C_3  and  C_24
REMARK    3  A    between atoms: C_4  and  N_30
REMARK    4  A    between atoms: C_15  and  C_20
REMARK                            x       y       z     vdW  Elec       q    Type
REMARK                         _______ _______ _______ _____ _____    ______ ____
ROOT
ATOM      1  C   UNL     1      32.990 -10.284 -23.401  0.00  0.00    -0.059 C 
ATOM      2  C   UNL     1      32.761 -11.136 -22.148  0.00  0.00    -0.042 C 
ATOM      3  C   UNL     1      34.272 -12.948 -23.104  0.00  0.00    +0.005 C 
ATOM      4  C   UNL     1      32.898 -12.637 -22.457  0.00  0.00    -0.064 C 
ATOM      5  C   UNL     1      34.356 -10.581 -24.025  0.00  0.00    -0.021 C 
ATOM      6  C   UNL     1      34.505 -12.067 -24.347  0.00  0.00    +0.000 C 
ENDROOT
BRANCH   1   7
ATOM      7  N   UNL     1      32.902  -8.864 -23.058  0.00  0.00    +0.394 N 
ATOM      8  N   UNL     1      31.962  -6.330 -22.390  0.00  0.00    -0.299 N 
ATOM      9  N   UNL     1      31.872  -6.675 -20.238  0.00  0.00    -0.136 NA
ATOM     10  N   UNL     1      31.642  -5.331 -20.486  0.00  0.00    -0.125 NA
ATOM     11  C   UNL     1      32.117  -8.130 -24.068  0.00  0.00    -0.052 C 
ATOM     12  C   UNL     1      32.321  -8.695 -21.710  0.00  0.00    -0.009 C 
ATOM     13  C   UNL     1      32.165  -6.619 -23.790  0.00  0.00    +0.086 C 
ATOM     14  C   UNL     1      32.068  -7.264 -21.399  0.00  0.00    +0.122 A 
ATOM     15  C   UNL     1      31.702  -5.147 -21.787  0.00  0.00    +0.238 A 
ATOM     16  H   UNL     1      33.845  -8.475 -23.051  0.00  0.00    -0.079 HD
BRANCH  15  20
ATOM     17  F   UNL     1      30.911  -4.001 -23.733  0.00  0.00    -0.163 F 
ATOM     18  F   UNL     1      30.785  -2.938 -21.846  0.00  0.00    -0.163 F 
ATOM     19  F   UNL     1      32.720  -3.246 -22.791  0.00  0.00    -0.163 F 
ATOM     20  C   UNL     1      31.533  -3.877 -22.514  0.00  0.00    +0.452 C 
ENDBRANCH  15  20
ENDBRANCH   1   7
BRANCH   3  24
ATOM     21  F   UNL     1      33.121 -14.142 -25.407  0.00  0.00    -0.204 F 
ATOM     22  F   UNL     1      36.104 -17.380 -22.162  0.00  0.00    -0.202 F 
ATOM     23  F   UNL     1      34.937 -18.398 -24.413  0.00  0.00    -0.202 F 
ATOM     24  C   UNL     1      34.450 -14.418 -23.459  0.00  0.00    +0.005 C 
ATOM     25  C   UNL     1      33.853 -14.930 -24.607  0.00  0.00    +0.138 C 
ATOM     26  C   UNL     1      35.210 -15.238 -22.632  0.00  0.00    +0.030 C 
ATOM     27  C   UNL     1      35.374 -16.585 -22.954  0.00  0.00    +0.167 C 
ATOM     28  C   UNL     1      34.017 -16.277 -24.929  0.00  0.00    +0.061 C 
ATOM     29  C   UNL     1      34.777 -17.104 -24.103  0.00  0.00    +0.170 C 
ENDBRANCH   3  24
BRANCH   4  30
ATOM     30  N   UNL     1      32.720 -13.406 -21.221  0.00  0.00    +0.382 N 
ATOM     31  H   UNL     1      33.457 -14.107 -21.148  0.00  0.00    -0.089 HD
ATOM     32  H   UNL     1      31.811 -13.868 -21.236  0.00  0.00    -0.089 HD
ATOM     33  H   UNL     1      32.769 -12.777 -20.419  0.00  0.00    -0.089 HD
ENDBRANCH   4  30
TORSDOF 4
ENDMDL
