MODEL 1
REMARK VINA RESULT:     -11.5      0.000      0.000
REMARK  Name = 25058128
REMARK  13 active torsions:
REMARK  status: ('A' for Active; 'I' for Inactive)
REMARK    1  A    between atoms: C_1  and  S_11
REMARK    2  A    between atoms: C_9  and  O_27
REMARK    3  A    between atoms: S_11  and  N_14
REMARK    4  A    between atoms: N_14  and  C_16
REMARK    5  A    between atoms: C_16  and  C_18
REMARK    6  A    between atoms: C_16  and  C_21
REMARK    7  A    between atoms: C_18  and  O_19
REMARK    8  A    between atoms: C_21  and  C_22
REMARK    9  A    between atoms: C_22  and  C_24
REMARK   10  A    between atoms: C_24  and  O_25
REMARK   11  A    between atoms: O_27  and  C_28
REMARK   12  A    between atoms: C_28  and  C_30
REMARK   13  A    between atoms: C_35  and  C_37
REMARK                            x       y       z     vdW  Elec       q    Type
REMARK                         _______ _______ _______ _____ _____    ______ ____
ROOT
ATOM      1  C   UNL     1      34.719 -23.064 -16.446  0.00  0.00    +0.122 C 
ATOM      2  C   UNL     1      35.430 -21.686 -18.321  0.00  0.00    +0.002 C 
ATOM      3  C   UNL     1      35.730 -22.428 -17.166  0.00  0.00    +0.020 C 
ATOM      4  C   UNL     1      34.084 -21.590 -18.750  0.00  0.00    +0.003 C 
ATOM      5  C   UNL     1      33.397 -22.969 -16.868  0.00  0.00    +0.020 C 
ATOM      6  C   UNL     1      33.080 -22.237 -18.013  0.00  0.00    +0.001 C 
ATOM      7  C   UNL     1      33.783 -20.849 -19.904  0.00  0.00    +0.037 C 
ATOM      8  C   UNL     1      36.434 -21.039 -19.059  0.00  0.00    +0.003 C 
ATOM      9  C   UNL     1      34.794 -20.212 -20.625  0.00  0.00    +0.139 C 
ATOM     10  C   UNL     1      36.116 -20.306 -20.203  0.00  0.00    +0.037 C 
ENDROOT
BRANCH   1  11
ATOM     11  S   UNL     1      35.119 -23.992 -14.995  0.00  0.00    +0.061 S 
ATOM     12  O   UNL     1      34.113 -23.709 -13.991  0.00  0.00    -0.153 OA
ATOM     13  O   UNL     1      35.361 -25.358 -15.422  0.00  0.00    -0.153 OA
BRANCH  11  14
ATOM     14  N   UNL     1      36.596 -23.293 -14.529  0.00  0.00    -0.170 NA
ATOM     15  H   UNL     1      36.374 -22.540 -13.877  0.00  0.00    +0.149 HD
BRANCH  14  16
ATOM     16  C   UNL     1      37.636 -24.124 -13.884  0.00  0.00    +0.174 C 
BRANCH  16  18
ATOM     17  O   UNL     1      39.861 -24.796 -14.600  0.00  0.00    -0.249 OA
ATOM     18  C   UNL     1      38.861 -24.108 -14.766  0.00  0.00    +0.330 C 
BRANCH  18  19
ATOM     19  O   UNL     1      38.733 -23.244 -15.806  0.00  0.00    -0.479 OA
ATOM     20  H   UNL     1      39.319 -23.298 -16.535  0.00  0.00    +0.295 HD
ENDBRANCH  18  19
ENDBRANCH  16  18
BRANCH  16  21
ATOM     21  C   UNL     1      37.880 -23.655 -12.444  0.00  0.00    +0.040 C 
BRANCH  21  22
ATOM     22  C   UNL     1      36.660 -23.135 -11.681  0.00  0.00    +0.111 C 
BRANCH  22  24
ATOM     23  O   UNL     1      36.344 -24.341  -9.612  0.00  0.00    -0.250 OA
ATOM     24  C   UNL     1      36.021 -24.160 -10.779  0.00  0.00    +0.314 C 
BRANCH  24  25
ATOM     25  O   UNL     1      35.055 -24.881 -11.402  0.00  0.00    -0.480 OA
ATOM     26  H   UNL     1      34.256 -25.079 -10.953  0.00  0.00    +0.295 HD
ENDBRANCH  24  25
ENDBRANCH  22  24
ENDBRANCH  21  22
ENDBRANCH  16  21
ENDBRANCH  14  16
ENDBRANCH  11  14
ENDBRANCH   1  11
BRANCH   9  27
ATOM     27  O   UNL     1      34.487 -19.499 -21.743  0.00  0.00    -0.471 OA
BRANCH  27  28
ATOM     28  C   UNL     1      35.575 -18.945 -22.481  0.00  0.00    +0.234 C 
BRANCH  28  30
ATOM     29  F   UNL     1      34.938 -17.984 -25.066  0.00  0.00    -0.204 F 
ATOM     30  C   UNL     1      35.289 -17.501 -22.768  0.00  0.00    +0.049 C 
ATOM     31  C   UNL     1      34.982 -17.092 -24.066  0.00  0.00    +0.140 C 
ATOM     32  C   UNL     1      35.331 -16.566 -21.734  0.00  0.00    +0.002 C 
ATOM     33  C   UNL     1      34.717 -15.748 -24.329  0.00  0.00    +0.040 C 
ATOM     34  C   UNL     1      35.066 -15.222 -21.998  0.00  0.00    +0.010 C 
ATOM     35  C   UNL     1      34.759 -14.813 -23.295  0.00  0.00    +0.071 C 
BRANCH  35  37
ATOM     36  N   UNL     1      34.264 -12.319 -23.786  0.00  0.00    -0.191 NA
ATOM     37  C   UNL     1      34.486 -13.437 -23.565  0.00  0.00    +0.100 C 
ENDBRANCH  35  37
ENDBRANCH  28  30
ENDBRANCH  27  28
ENDBRANCH   9  27
TORSDOF 13
ENDMDL
MODEL 2
REMARK VINA RESULT:     -11.3      2.544      4.609
REMARK  Name = 25058128
REMARK  13 active torsions:
REMARK  status: ('A' for Active; 'I' for Inactive)
REMARK    1  A    between atoms: C_1  and  S_11
REMARK    2  A    between atoms: C_9  and  O_27
REMARK    3  A    between atoms: S_11  and  N_14
REMARK    4  A    between atoms: N_14  and  C_16
REMARK    5  A    between atoms: C_16  and  C_18
REMARK    6  A    between atoms: C_16  and  C_21
REMARK    7  A    between atoms: C_18  and  O_19
REMARK    8  A    between atoms: C_21  and  C_22
REMARK    9  A    between atoms: C_22  and  C_24
REMARK   10  A    between atoms: C_24  and  O_25
REMARK   11  A    between atoms: O_27  and  C_28
REMARK   12  A    between atoms: C_28  and  C_30
REMARK   13  A    between atoms: C_35  and  C_37
REMARK                            x       y       z     vdW  Elec       q    Type
REMARK                         _______ _______ _______ _____ _____    ______ ____
ROOT
ATOM      1  C   UNL     1      35.062 -22.377 -17.044  0.00  0.00    +0.122 C 
ATOM      2  C   UNL     1      34.137 -21.240 -18.985  0.00  0.00    +0.002 C 
ATOM      3  C   UNL     1      33.962 -21.983 -17.806  0.00  0.00    +0.020 C 
ATOM      4  C   UNL     1      35.446 -20.892 -19.395  0.00  0.00    +0.003 C 
ATOM      5  C   UNL     1      36.348 -22.033 -17.447  0.00  0.00    +0.020 C 
ATOM      6  C   UNL     1      36.541 -21.295 -18.615  0.00  0.00    +0.001 C 
ATOM      7  C   UNL     1      35.621 -20.148 -20.574  0.00  0.00    +0.037 C 
ATOM      8  C   UNL     1      33.042 -20.836 -19.766  0.00  0.00    +0.003 C 
ATOM      9  C   UNL     1      34.521 -19.755 -21.338  0.00  0.00    +0.139 C 
ATOM     10  C   UNL     1      33.234 -20.098 -20.935  0.00  0.00    +0.037 C 
ENDROOT
BRANCH   1  11
ATOM     11  S   UNL     1      34.820 -23.311 -15.562  0.00  0.00    +0.061 S 
ATOM     12  O   UNL     1      34.744 -24.713 -15.925  0.00  0.00    -0.153 OA
ATOM     13  O   UNL     1      35.815 -22.857 -14.609  0.00  0.00    -0.153 OA
BRANCH  11  14
ATOM     14  N   UNL     1      33.289 -22.774 -15.056  0.00  0.00    -0.170 NA
ATOM     15  H   UNL     1      33.045 -21.979 -15.647  0.00  0.00    +0.149 HD
BRANCH  14  16
ATOM     16  C   UNL     1      32.135 -23.699 -15.086  0.00  0.00    +0.174 C 
BRANCH  16  18
ATOM     17  O   UNL     1      31.376 -23.839 -12.780  0.00  0.00    -0.249 OA
ATOM     18  C   UNL     1      31.998 -24.322 -13.718  0.00  0.00    +0.330 C 
BRANCH  18  19
ATOM     19  O   UNL     1      32.637 -25.518 -13.634  0.00  0.00    -0.479 OA
ATOM     20  H   UNL     1      33.157 -25.823 -14.350  0.00  0.00    +0.295 HD
ENDBRANCH  18  19
ENDBRANCH  16  18
BRANCH  16  21
ATOM     21  C   UNL     1      30.879 -22.973 -15.585  0.00  0.00    +0.040 C 
BRANCH  21  22
ATOM     22  C   UNL     1      29.630 -23.834 -15.790  0.00  0.00    +0.111 C 
BRANCH  22  24
ATOM     23  O   UNL     1      27.823 -23.798 -17.393  0.00  0.00    -0.250 OA
ATOM     24  C   UNL     1      28.573 -23.183 -16.645  0.00  0.00    +0.314 C 
BRANCH  24  25
ATOM     25  O   UNL     1      28.547 -21.833 -16.513  0.00  0.00    -0.480 OA
ATOM     26  H   UNL     1      29.300 -21.326 -16.749  0.00  0.00    +0.295 HD
ENDBRANCH  24  25
ENDBRANCH  22  24
ENDBRANCH  21  22
ENDBRANCH  16  21
ENDBRANCH  14  16
ENDBRANCH  11  14
ENDBRANCH   1  11
BRANCH   9  27
ATOM     27  O   UNL     1      34.707 -19.034 -22.477  0.00  0.00    -0.471 OA
BRANCH  27  28
ATOM     28  C   UNL     1      35.850 -18.183 -22.528  0.00  0.00    +0.234 C 
BRANCH  28  30
ATOM     29  F   UNL     1      35.345 -17.087 -25.089  0.00  0.00    -0.204 F 
ATOM     30  C   UNL     1      35.398 -16.768 -22.737  0.00  0.00    +0.049 C 
ATOM     31  C   UNL     1      35.168 -16.289 -24.027  0.00  0.00    +0.140 C 
ATOM     32  C   UNL     1      35.210 -15.930 -21.638  0.00  0.00    +0.002 C 
ATOM     33  C   UNL     1      34.748 -14.972 -24.217  0.00  0.00    +0.040 C 
ATOM     34  C   UNL     1      34.791 -14.612 -21.829  0.00  0.00    +0.010 C 
ATOM     35  C   UNL     1      34.560 -14.133 -23.119  0.00  0.00    +0.071 C 
BRANCH  35  37
ATOM     36  N   UNL     1      33.779 -11.690 -23.472  0.00  0.00    -0.191 NA
ATOM     37  C   UNL     1      34.129 -12.785 -23.314  0.00  0.00    +0.100 C 
ENDBRANCH  35  37
ENDBRANCH  28  30
ENDBRANCH  27  28
ENDBRANCH   9  27
TORSDOF 13
ENDMDL
MODEL 3
REMARK VINA RESULT:     -11.3      1.530      3.266
REMARK  Name = 25058128
REMARK  13 active torsions:
REMARK  status: ('A' for Active; 'I' for Inactive)
REMARK    1  A    between atoms: C_1  and  S_11
REMARK    2  A    between atoms: C_9  and  O_27
REMARK    3  A    between atoms: S_11  and  N_14
REMARK    4  A    between atoms: N_14  and  C_16
REMARK    5  A    between atoms: C_16  and  C_18
REMARK    6  A    between atoms: C_16  and  C_21
REMARK    7  A    between atoms: C_18  and  O_19
REMARK    8  A    between atoms: C_21  and  C_22
REMARK    9  A    between atoms: C_22  and  C_24
REMARK   10  A    between atoms: C_24  and  O_25
REMARK   11  A    between atoms: O_27  and  C_28
REMARK   12  A    between atoms: C_28  and  C_30
REMARK   13  A    between atoms: C_35  and  C_37
REMARK                            x       y       z     vdW  Elec       q    Type
REMARK                         _______ _______ _______ _____ _____    ______ ____
ROOT
ATOM      1  C   UNL     1      36.206 -23.041 -15.501  0.00  0.00    +0.122 C 
ATOM      2  C   UNL     1      35.032 -22.229 -17.471  0.00  0.00    +0.002 C 
ATOM      3  C   UNL     1      35.036 -22.926 -16.252  0.00  0.00    +0.020 C 
ATOM      4  C   UNL     1      36.233 -21.639 -17.934  0.00  0.00    +0.003 C 
ATOM      5  C   UNL     1      37.386 -22.461 -15.956  0.00  0.00    +0.020 C 
ATOM      6  C   UNL     1      37.401 -21.764 -17.165  0.00  0.00    +0.001 C 
ATOM      7  C   UNL     1      36.230 -20.941 -19.153  0.00  0.00    +0.037 C 
ATOM      8  C   UNL     1      33.864 -22.104 -18.241  0.00  0.00    +0.003 C 
ATOM      9  C   UNL     1      35.060 -20.826 -19.904  0.00  0.00    +0.139 C 
ATOM     10  C   UNL     1      33.879 -21.406 -19.449  0.00  0.00    +0.037 C 
ENDROOT
BRANCH   1  11
ATOM     11  S   UNL     1      36.189 -23.924 -13.969  0.00  0.00    +0.061 S 
ATOM     12  O   UNL     1      35.100 -23.404 -13.166  0.00  0.00    -0.153 OA
ATOM     13  O   UNL     1      36.247 -25.336 -14.295  0.00  0.00    -0.153 OA
BRANCH  11  14
ATOM     14  N   UNL     1      37.671 -23.457 -13.281  0.00  0.00    -0.170 NA
ATOM     15  H   UNL     1      37.498 -22.596 -12.761  0.00  0.00    +0.149 HD
BRANCH  14  16
ATOM     16  C   UNL     1      38.382 -24.375 -12.364  0.00  0.00    +0.174 C 
BRANCH  16  18
ATOM     17  O   UNL     1      37.010 -24.065 -10.380  0.00  0.00    -0.249 OA
ATOM     18  C   UNL     1      37.418 -24.790 -11.278  0.00  0.00    +0.330 C 
BRANCH  18  19
ATOM     19  O   UNL     1      37.022 -26.082 -11.412  0.00  0.00    -0.479 OA
ATOM     20  H   UNL     1      37.601 -26.713 -11.792  0.00  0.00    +0.295 HD
ENDBRANCH  18  19
ENDBRANCH  16  18
BRANCH  16  21
ATOM     21  C   UNL     1      39.004 -25.539 -13.144  0.00  0.00    +0.040 C 
BRANCH  21  22
ATOM     22  C   UNL     1      39.744 -25.176 -14.435  0.00  0.00    +0.111 C 
BRANCH  22  24
ATOM     23  O   UNL     1      41.439 -26.877 -14.175  0.00  0.00    -0.250 OA
ATOM     24  C   UNL     1      40.695 -26.242 -14.914  0.00  0.00    +0.314 C 
BRANCH  24  25
ATOM     25  O   UNL     1      40.657 -26.418 -16.258  0.00  0.00    -0.480 OA
ATOM     26  H   UNL     1      41.448 -26.376 -16.758  0.00  0.00    +0.295 HD
ENDBRANCH  24  25
ENDBRANCH  22  24
ENDBRANCH  21  22
ENDBRANCH  16  21
ENDBRANCH  14  16
ENDBRANCH  11  14
ENDBRANCH   1  11
BRANCH   9  27
ATOM     27  O   UNL     1      35.072 -20.146 -21.083  0.00  0.00    -0.471 OA
BRANCH  27  28
ATOM     28  C   UNL     1      36.097 -19.169 -21.258  0.00  0.00    +0.234 C 
BRANCH  28  30
ATOM     29  F   UNL     1      35.343 -19.724 -23.930  0.00  0.00    -0.204 F 
ATOM     30  C   UNL     1      35.610 -18.113 -22.207  0.00  0.00    +0.049 C 
ATOM     31  C   UNL     1      35.256 -18.453 -23.512  0.00  0.00    +0.140 C 
ATOM     32  C   UNL     1      35.514 -16.788 -21.781  0.00  0.00    +0.002 C 
ATOM     33  C   UNL     1      34.804 -17.469 -24.391  0.00  0.00    +0.040 C 
ATOM     34  C   UNL     1      35.063 -15.804 -22.661  0.00  0.00    +0.010 C 
ATOM     35  C   UNL     1      34.708 -16.144 -23.966  0.00  0.00    +0.071 C 
BRANCH  35  37
ATOM     36  N   UNL     1      33.869 -14.318 -25.598  0.00  0.00    -0.191 NA
ATOM     37  C   UNL     1      34.245 -15.136 -24.866  0.00  0.00    +0.100 C 
ENDBRANCH  35  37
ENDBRANCH  28  30
ENDBRANCH  27  28
ENDBRANCH   9  27
TORSDOF 13
ENDMDL
MODEL 4
REMARK VINA RESULT:     -11.0      1.040      1.739
REMARK  Name = 25058128
REMARK  13 active torsions:
REMARK  status: ('A' for Active; 'I' for Inactive)
REMARK    1  A    between atoms: C_1  and  S_11
REMARK    2  A    between atoms: C_9  and  O_27
REMARK    3  A    between atoms: S_11  and  N_14
REMARK    4  A    between atoms: N_14  and  C_16
REMARK    5  A    between atoms: C_16  and  C_18
REMARK    6  A    between atoms: C_16  and  C_21
REMARK    7  A    between atoms: C_18  and  O_19
REMARK    8  A    between atoms: C_21  and  C_22
REMARK    9  A    between atoms: C_22  and  C_24
REMARK   10  A    between atoms: C_24  and  O_25
REMARK   11  A    between atoms: O_27  and  C_28
REMARK   12  A    between atoms: C_28  and  C_30
REMARK   13  A    between atoms: C_35  and  C_37
REMARK                            x       y       z     vdW  Elec       q    Type
REMARK                         _______ _______ _______ _____ _____    ______ ____
ROOT
ATOM      1  C   UNL     1      35.970 -22.678 -16.525  0.00  0.00    +0.122 C 
ATOM      2  C   UNL     1      34.640 -21.755 -18.340  0.00  0.00    +0.002 C 
ATOM      3  C   UNL     1      34.742 -22.518 -17.165  0.00  0.00    +0.020 C 
ATOM      4  C   UNL     1      35.803 -21.147 -18.872  0.00  0.00    +0.003 C 
ATOM      5  C   UNL     1      37.112 -22.080 -17.047  0.00  0.00    +0.020 C 
ATOM      6  C   UNL     1      37.031 -21.318 -18.213  0.00  0.00    +0.001 C 
ATOM      7  C   UNL     1      35.702 -20.383 -20.047  0.00  0.00    +0.037 C 
ATOM      8  C   UNL     1      33.412 -21.583 -18.999  0.00  0.00    +0.003 C 
ATOM      9  C   UNL     1      34.473 -20.223 -20.688  0.00  0.00    +0.139 C 
ATOM     10  C   UNL     1      33.331 -20.822 -20.166  0.00  0.00    +0.037 C 
ENDROOT
BRANCH   1  11
ATOM     11  S   UNL     1      36.076 -23.643 -15.046  0.00  0.00    +0.061 S 
ATOM     12  O   UNL     1      35.808 -22.768 -13.922  0.00  0.00    -0.153 OA
ATOM     13  O   UNL     1      35.268 -24.829 -15.257  0.00  0.00    -0.153 OA
BRANCH  11  14
ATOM     14  N   UNL     1      37.715 -24.089 -15.037  0.00  0.00    -0.170 NA
ATOM     15  H   UNL     1      38.224 -23.338 -14.570  0.00  0.00    +0.149 HD
BRANCH  14  16
ATOM     16  C   UNL     1      38.134 -25.353 -14.391  0.00  0.00    +0.174 C 
BRANCH  16  18
ATOM     17  O   UNL     1      40.211 -26.615 -14.489  0.00  0.00    -0.249 OA
ATOM     18  C   UNL     1      39.591 -25.582 -14.712  0.00  0.00    +0.330 C 
BRANCH  18  19
ATOM     19  O   UNL     1      40.160 -24.502 -15.308  0.00  0.00    -0.479 OA
ATOM     20  H   UNL     1      40.511 -23.808 -14.786  0.00  0.00    +0.295 HD
ENDBRANCH  18  19
ENDBRANCH  16  18
BRANCH  16  21
ATOM     21  C   UNL     1      37.807 -25.324 -12.893  0.00  0.00    +0.040 C 
BRANCH  21  22
ATOM     22  C   UNL     1      38.459 -24.206 -12.075  0.00  0.00    +0.111 C 
BRANCH  22  24
ATOM     23  O   UNL     1      36.843 -24.122 -10.282  0.00  0.00    -0.250 OA
ATOM     24  C   UNL     1      37.520 -23.527 -11.111  0.00  0.00    +0.314 C 
BRANCH  24  25
ATOM     25  O   UNL     1      37.488 -22.180 -11.268  0.00  0.00    -0.480 OA
ATOM     26  H   UNL     1      36.814 -21.677 -10.852  0.00  0.00    +0.295 HD
ENDBRANCH  24  25
ENDBRANCH  22  24
ENDBRANCH  21  22
ENDBRANCH  16  21
ENDBRANCH  14  16
ENDBRANCH  11  14
ENDBRANCH   1  11
BRANCH   9  27
ATOM     27  O   UNL     1      34.391 -19.480 -21.825  0.00  0.00    -0.471 OA
BRANCH  27  28
ATOM     28  C   UNL     1      35.591 -18.857 -22.282  0.00  0.00    +0.234 C 
BRANCH  28  30
ATOM     29  F   UNL     1      35.021 -17.983 -24.914  0.00  0.00    -0.204 F 
ATOM     30  C   UNL     1      35.301 -17.426 -22.623  0.00  0.00    +0.049 C 
ATOM     31  C   UNL     1      35.029 -17.060 -23.941  0.00  0.00    +0.140 C 
ATOM     32  C   UNL     1      35.305 -16.458 -21.618  0.00  0.00    +0.002 C 
ATOM     33  C   UNL     1      34.760 -15.727 -24.254  0.00  0.00    +0.040 C 
ATOM     34  C   UNL     1      35.037 -15.125 -21.932  0.00  0.00    +0.010 C 
ATOM     35  C   UNL     1      34.765 -14.760 -23.250  0.00  0.00    +0.071 C 
BRANCH  35  37
ATOM     36  N   UNL     1      34.263 -12.287 -23.830  0.00  0.00    -0.191 NA
ATOM     37  C   UNL     1      34.488 -13.395 -23.571  0.00  0.00    +0.100 C 
ENDBRANCH  35  37
ENDBRANCH  28  30
ENDBRANCH  27  28
ENDBRANCH   9  27
TORSDOF 13
ENDMDL
MODEL 5
REMARK VINA RESULT:     -10.9      3.014      4.891
REMARK  Name = 25058128
REMARK  13 active torsions:
REMARK  status: ('A' for Active; 'I' for Inactive)
REMARK    1  A    between atoms: C_1  and  S_11
REMARK    2  A    between atoms: C_9  and  O_27
REMARK    3  A    between atoms: S_11  and  N_14
REMARK    4  A    between atoms: N_14  and  C_16
REMARK    5  A    between atoms: C_16  and  C_18
REMARK    6  A    between atoms: C_16  and  C_21
REMARK    7  A    between atoms: C_18  and  O_19
REMARK    8  A    between atoms: C_21  and  C_22
REMARK    9  A    between atoms: C_22  and  C_24
REMARK   10  A    between atoms: C_24  and  O_25
REMARK   11  A    between atoms: O_27  and  C_28
REMARK   12  A    between atoms: C_28  and  C_30
REMARK   13  A    between atoms: C_35  and  C_37
REMARK                            x       y       z     vdW  Elec       q    Type
REMARK                         _______ _______ _______ _____ _____    ______ ____
ROOT
ATOM      1  C   UNL     1      34.248 -21.848 -18.645  0.00  0.00    +0.122 C 
ATOM      2  C   UNL     1      35.658 -20.358 -19.951  0.00  0.00    +0.002 C 
ATOM      3  C   UNL     1      35.511 -21.360 -18.978  0.00  0.00    +0.020 C 
ATOM      4  C   UNL     1      34.506 -19.846 -20.596  0.00  0.00    +0.003 C 
ATOM      5  C   UNL     1      33.116 -21.346 -19.279  0.00  0.00    +0.020 C 
ATOM      6  C   UNL     1      33.243 -20.351 -20.249  0.00  0.00    +0.001 C 
ATOM      7  C   UNL     1      34.652 -18.845 -21.570  0.00  0.00    +0.037 C 
ATOM      8  C   UNL     1      36.921 -19.853 -20.300  0.00  0.00    +0.003 C 
ATOM      9  C   UNL     1      35.916 -18.355 -21.904  0.00  0.00    +0.139 C 
ATOM     10  C   UNL     1      37.047 -18.858 -21.270  0.00  0.00    +0.037 C 
ENDROOT
BRANCH   1  11
ATOM     11  S   UNL     1      34.085 -23.110 -17.416  0.00  0.00    +0.061 S 
ATOM     12  O   UNL     1      33.547 -24.293 -18.058  0.00  0.00    -0.153 OA
ATOM     13  O   UNL     1      35.349 -23.174 -16.708  0.00  0.00    -0.153 OA
BRANCH  11  14
ATOM     14  N   UNL     1      32.911 -22.443 -16.385  0.00  0.00    -0.170 NA
ATOM     15  H   UNL     1      32.416 -21.730 -16.922  0.00  0.00    +0.149 HD
BRANCH  14  16
ATOM     16  C   UNL     1      31.879 -23.313 -15.779  0.00  0.00    +0.174 C 
BRANCH  16  18
ATOM     17  O   UNL     1      33.548 -23.737 -14.063  0.00  0.00    -0.249 OA
ATOM     18  C   UNL     1      32.380 -23.764 -14.428  0.00  0.00    +0.330 C 
BRANCH  18  19
ATOM     19  O   UNL     1      31.373 -24.197 -13.626  0.00  0.00    -0.479 OA
ATOM     20  H   UNL     1      30.543 -24.425 -13.997  0.00  0.00    +0.295 HD
ENDBRANCH  18  19
ENDBRANCH  16  18
BRANCH  16  21
ATOM     21  C   UNL     1      30.523 -22.598 -15.751  0.00  0.00    +0.040 C 
BRANCH  21  22
ATOM     22  C   UNL     1      29.283 -23.478 -15.933  0.00  0.00    +0.111 C 
BRANCH  22  24
ATOM     23  O   UNL     1      27.720 -23.487 -17.775  0.00  0.00    -0.250 OA
ATOM     24  C   UNL     1      28.240 -22.883 -16.845  0.00  0.00    +0.314 C 
BRANCH  24  25
ATOM     25  O   UNL     1      27.947 -21.595 -16.539  0.00  0.00    -0.480 OA
ATOM     26  H   UNL     1      27.451 -21.072 -17.140  0.00  0.00    +0.295 HD
ENDBRANCH  24  25
ENDBRANCH  22  24
ENDBRANCH  21  22
ENDBRANCH  16  21
ENDBRANCH  14  16
ENDBRANCH  11  14
ENDBRANCH   1  11
BRANCH   9  27
ATOM     27  O   UNL     1      36.041 -17.386 -22.850  0.00  0.00    -0.471 OA
BRANCH  27  28
ATOM     28  C   UNL     1      34.908 -17.137 -23.680  0.00  0.00    +0.234 C 
BRANCH  28  30
ATOM     29  F   UNL     1      33.457 -15.844 -25.738  0.00  0.00    -0.204 F 
ATOM     30  C   UNL     1      34.603 -15.669 -23.667  0.00  0.00    +0.049 C 
ATOM     31  C   UNL     1      33.884 -15.092 -24.714  0.00  0.00    +0.140 C 
ATOM     32  C   UNL     1      35.042 -14.878 -22.605  0.00  0.00    +0.002 C 
ATOM     33  C   UNL     1      33.603 -13.726 -24.698  0.00  0.00    +0.040 C 
ATOM     34  C   UNL     1      34.762 -13.511 -22.590  0.00  0.00    +0.010 C 
ATOM     35  C   UNL     1      34.042 -12.935 -23.637  0.00  0.00    +0.071 C 
BRANCH  35  37
ATOM     36  N   UNL     1      33.517 -10.400 -23.608  0.00  0.00    -0.191 NA
ATOM     37  C   UNL     1      33.753 -11.536 -23.620  0.00  0.00    +0.100 C 
ENDBRANCH  35  37
ENDBRANCH  28  30
ENDBRANCH  27  28
ENDBRANCH   9  27
TORSDOF 13
ENDMDL
MODEL 6
REMARK VINA RESULT:     -10.9      1.719      3.035
REMARK  Name = 25058128
REMARK  13 active torsions:
REMARK  status: ('A' for Active; 'I' for Inactive)
REMARK    1  A    between atoms: C_1  and  S_11
REMARK    2  A    between atoms: C_9  and  O_27
REMARK    3  A    between atoms: S_11  and  N_14
REMARK    4  A    between atoms: N_14  and  C_16
REMARK    5  A    between atoms: C_16  and  C_18
REMARK    6  A    between atoms: C_16  and  C_21
REMARK    7  A    between atoms: C_18  and  O_19
REMARK    8  A    between atoms: C_21  and  C_22
REMARK    9  A    between atoms: C_22  and  C_24
REMARK   10  A    between atoms: C_24  and  O_25
REMARK   11  A    between atoms: O_27  and  C_28
REMARK   12  A    between atoms: C_28  and  C_30
REMARK   13  A    between atoms: C_35  and  C_37
REMARK                            x       y       z     vdW  Elec       q    Type
REMARK                         _______ _______ _______ _____ _____    ______ ____
ROOT
ATOM      1  C   UNL     1      35.700 -22.362 -16.955  0.00  0.00    +0.122 C 
ATOM      2  C   UNL     1      34.422 -21.376 -18.774  0.00  0.00    +0.002 C 
ATOM      3  C   UNL     1      34.479 -22.116 -17.582  0.00  0.00    +0.020 C 
ATOM      4  C   UNL     1      35.622 -20.878 -19.337  0.00  0.00    +0.003 C 
ATOM      5  C   UNL     1      36.879 -21.873 -17.508  0.00  0.00    +0.020 C 
ATOM      6  C   UNL     1      36.842 -21.136 -18.692  0.00  0.00    +0.001 C 
ATOM      7  C   UNL     1      35.566 -20.138 -20.529  0.00  0.00    +0.037 C 
ATOM      8  C   UNL     1      33.202 -21.118 -19.420  0.00  0.00    +0.003 C 
ATOM      9  C   UNL     1      34.344 -19.891 -21.157  0.00  0.00    +0.139 C 
ATOM     10  C   UNL     1      33.165 -20.380 -20.604  0.00  0.00    +0.037 C 
ENDROOT
BRANCH   1  11
ATOM     11  S   UNL     1      35.750 -23.297 -15.454  0.00  0.00    +0.061 S 
ATOM     12  O   UNL     1      35.486 -24.684 -15.782  0.00  0.00    -0.153 OA
ATOM     13  O   UNL     1      36.973 -22.928 -14.768  0.00  0.00    -0.153 OA
BRANCH  11  14
ATOM     14  N   UNL     1      34.427 -22.656 -14.601  0.00  0.00    -0.170 NA
ATOM     15  H   UNL     1      33.717 -22.416 -15.294  0.00  0.00    +0.149 HD
BRANCH  14  16
ATOM     16  C   UNL     1      33.753 -23.469 -13.564  0.00  0.00    +0.174 C 
BRANCH  16  18
ATOM     17  O   UNL     1      32.094 -23.978 -15.268  0.00  0.00    -0.249 OA
ATOM     18  C   UNL     1      32.678 -24.288 -14.237  0.00  0.00    +0.330 C 
BRANCH  18  19
ATOM     19  O   UNL     1      32.428 -25.448 -13.575  0.00  0.00    -0.479 OA
ATOM     20  H   UNL     1      31.581 -25.604 -13.207  0.00  0.00    +0.295 HD
ENDBRANCH  18  19
ENDBRANCH  16  18
BRANCH  16  21
ATOM     21  C   UNL     1      34.780 -24.289 -12.774  0.00  0.00    +0.040 C 
BRANCH  21  22
ATOM     22  C   UNL     1      35.516 -23.557 -11.649  0.00  0.00    +0.111 C 
BRANCH  22  24
ATOM     23  O   UNL     1      37.483 -24.692 -10.824  0.00  0.00    -0.250 OA
ATOM     24  C   UNL     1      36.282 -24.471 -10.726  0.00  0.00    +0.314 C 
BRANCH  24  25
ATOM     25  O   UNL     1      35.497 -25.041  -9.778  0.00  0.00    -0.480 OA
ATOM     26  H   UNL     1      34.566 -24.937  -9.817  0.00  0.00    +0.295 HD
ENDBRANCH  24  25
ENDBRANCH  22  24
ENDBRANCH  21  22
ENDBRANCH  16  21
ENDBRANCH  14  16
ENDBRANCH  11  14
ENDBRANCH   1  11
BRANCH   9  27
ATOM     27  O   UNL     1      34.306 -19.171 -22.311  0.00  0.00    -0.471 OA
BRANCH  27  28
ATOM     28  C   UNL     1      35.509 -18.515 -22.709  0.00  0.00    +0.234 C 
BRANCH  28  30
ATOM     29  F   UNL     1      35.377 -16.558 -20.668  0.00  0.00    -0.204 F 
ATOM     30  C   UNL     1      35.214 -17.070 -22.980  0.00  0.00    +0.049 C 
ATOM     31  C   UNL     1      35.162 -16.155 -21.928  0.00  0.00    +0.140 C 
ATOM     32  C   UNL     1      34.990 -16.641 -24.289  0.00  0.00    +0.002 C 
ATOM     33  C   UNL     1      34.886 -14.812 -22.185  0.00  0.00    +0.040 C 
ATOM     34  C   UNL     1      34.713 -15.298 -24.545  0.00  0.00    +0.010 C 
ATOM     35  C   UNL     1      34.661 -14.383 -23.493  0.00  0.00    +0.071 C 
BRANCH  35  37
ATOM     36  N   UNL     1      34.152 -11.890 -23.969  0.00  0.00    -0.191 NA
ATOM     37  C   UNL     1      34.381 -13.007 -23.756  0.00  0.00    +0.100 C 
ENDBRANCH  35  37
ENDBRANCH  28  30
ENDBRANCH  27  28
ENDBRANCH   9  27
TORSDOF 13
ENDMDL
MODEL 7
REMARK VINA RESULT:     -10.7      1.921      3.188
REMARK  Name = 25058128
REMARK  13 active torsions:
REMARK  status: ('A' for Active; 'I' for Inactive)
REMARK    1  A    between atoms: C_1  and  S_11
REMARK    2  A    between atoms: C_9  and  O_27
REMARK    3  A    between atoms: S_11  and  N_14
REMARK    4  A    between atoms: N_14  and  C_16
REMARK    5  A    between atoms: C_16  and  C_18
REMARK    6  A    between atoms: C_16  and  C_21
REMARK    7  A    between atoms: C_18  and  O_19
REMARK    8  A    between atoms: C_21  and  C_22
REMARK    9  A    between atoms: C_22  and  C_24
REMARK   10  A    between atoms: C_24  and  O_25
REMARK   11  A    between atoms: O_27  and  C_28
REMARK   12  A    between atoms: C_28  and  C_30
REMARK   13  A    between atoms: C_35  and  C_37
REMARK                            x       y       z     vdW  Elec       q    Type
REMARK                         _______ _______ _______ _____ _____    ______ ____
ROOT
ATOM      1  C   UNL     1      34.064 -21.831 -18.716  0.00  0.00    +0.122 C 
ATOM      2  C   UNL     1      35.543 -20.400 -20.012  0.00  0.00    +0.002 C 
ATOM      3  C   UNL     1      35.348 -21.402 -19.048  0.00  0.00    +0.020 C 
ATOM      4  C   UNL     1      34.416 -19.825 -20.648  0.00  0.00    +0.003 C 
ATOM      5  C   UNL     1      32.957 -21.267 -19.342  0.00  0.00    +0.020 C 
ATOM      6  C   UNL     1      33.130 -20.269 -20.302  0.00  0.00    +0.001 C 
ATOM      7  C   UNL     1      34.610 -18.823 -21.613  0.00  0.00    +0.037 C 
ATOM      8  C   UNL     1      36.829 -19.954 -20.359  0.00  0.00    +0.003 C 
ATOM      9  C   UNL     1      35.895 -18.393 -21.945  0.00  0.00    +0.139 C 
ATOM     10  C   UNL     1      37.002 -18.957 -21.320  0.00  0.00    +0.037 C 
ENDROOT
BRANCH   1  11
ATOM     11  S   UNL     1      33.842 -23.095 -17.499  0.00  0.00    +0.061 S 
ATOM     12  O   UNL     1      32.800 -22.661 -16.589  0.00  0.00    -0.153 OA
ATOM     13  O   UNL     1      33.711 -24.350 -18.214  0.00  0.00    -0.153 OA
BRANCH  11  14
ATOM     14  N   UNL     1      35.339 -23.073 -16.696  0.00  0.00    -0.170 NA
ATOM     15  H   UNL     1      35.747 -22.152 -16.857  0.00  0.00    +0.149 HD
BRANCH  14  16
ATOM     16  C   UNL     1      35.400 -23.318 -15.238  0.00  0.00    +0.174 C 
BRANCH  16  18
ATOM     17  O   UNL     1      35.672 -25.715 -15.545  0.00  0.00    -0.249 OA
ATOM     18  C   UNL     1      35.105 -24.778 -14.996  0.00  0.00    +0.330 C 
BRANCH  18  19
ATOM     19  O   UNL     1      34.131 -24.957 -14.065  0.00  0.00    -0.479 OA
ATOM     20  H   UNL     1      34.161 -25.697 -13.491  0.00  0.00    +0.295 HD
ENDBRANCH  18  19
ENDBRANCH  16  18
BRANCH  16  21
ATOM     21  C   UNL     1      36.739 -22.834 -14.668  0.00  0.00    +0.040 C 
BRANCH  21  22
ATOM     22  C   UNL     1      37.427 -23.762 -13.664  0.00  0.00    +0.111 C 
BRANCH  22  24
ATOM     23  O   UNL     1      39.301 -25.285 -13.599  0.00  0.00    -0.250 OA
ATOM     24  C   UNL     1      38.681 -24.411 -14.192  0.00  0.00    +0.314 C 
BRANCH  24  25
ATOM     25  O   UNL     1      39.066 -23.913 -15.394  0.00  0.00    -0.480 OA
ATOM     26  H   UNL     1      38.517 -24.029 -16.145  0.00  0.00    +0.295 HD
ENDBRANCH  24  25
ENDBRANCH  22  24
ENDBRANCH  21  22
ENDBRANCH  16  21
ENDBRANCH  14  16
ENDBRANCH  11  14
ENDBRANCH   1  11
BRANCH   9  27
ATOM     27  O   UNL     1      36.066 -17.422 -22.883  0.00  0.00    -0.471 OA
BRANCH  27  28
ATOM     28  C   UNL     1      34.966 -17.156 -23.752  0.00  0.00    +0.234 C 
BRANCH  28  30
ATOM     29  F   UNL     1      35.277 -15.535 -21.452  0.00  0.00    -0.204 F 
ATOM     30  C   UNL     1      34.681 -15.683 -23.745  0.00  0.00    +0.049 C 
ATOM     31  C   UNL     1      34.853 -14.941 -22.577  0.00  0.00    +0.140 C 
ATOM     32  C   UNL     1      34.240 -15.056 -24.911  0.00  0.00    +0.002 C 
ATOM     33  C   UNL     1      34.586 -13.572 -22.575  0.00  0.00    +0.040 C 
ATOM     34  C   UNL     1      33.972 -13.687 -24.908  0.00  0.00    +0.010 C 
ATOM     35  C   UNL     1      34.145 -12.945 -23.740  0.00  0.00    +0.071 C 
BRANCH  35  37
ATOM     36  N   UNL     1      33.651 -10.403 -23.734  0.00  0.00    -0.191 NA
ATOM     37  C   UNL     1      33.873 -11.542 -23.737  0.00  0.00    +0.100 C 
ENDBRANCH  35  37
ENDBRANCH  28  30
ENDBRANCH  27  28
ENDBRANCH   9  27
TORSDOF 13
ENDMDL
MODEL 8
REMARK VINA RESULT:     -10.6      5.320      9.378
REMARK  Name = 25058128
REMARK  13 active torsions:
REMARK  status: ('A' for Active; 'I' for Inactive)
REMARK    1  A    between atoms: C_1  and  S_11
REMARK    2  A    between atoms: C_9  and  O_27
REMARK    3  A    between atoms: S_11  and  N_14
REMARK    4  A    between atoms: N_14  and  C_16
REMARK    5  A    between atoms: C_16  and  C_18
REMARK    6  A    between atoms: C_16  and  C_21
REMARK    7  A    between atoms: C_18  and  O_19
REMARK    8  A    between atoms: C_21  and  C_22
REMARK    9  A    between atoms: C_22  and  C_24
REMARK   10  A    between atoms: C_24  and  O_25
REMARK   11  A    between atoms: O_27  and  C_28
REMARK   12  A    between atoms: C_28  and  C_30
REMARK   13  A    between atoms: C_35  and  C_37
REMARK                            x       y       z     vdW  Elec       q    Type
REMARK                         _______ _______ _______ _____ _____    ______ ____
ROOT
ATOM      1  C   UNL     1      34.731 -16.565 -23.445  0.00  0.00    +0.122 C 
ATOM      2  C   UNL     1      34.181 -14.548 -24.688  0.00  0.00    +0.002 C 
ATOM      3  C   UNL     1      34.292 -15.946 -24.615  0.00  0.00    +0.020 C 
ATOM      4  C   UNL     1      34.522 -13.767 -23.557  0.00  0.00    +0.003 C 
ATOM      5  C   UNL     1      35.066 -15.798 -22.334  0.00  0.00    +0.020 C 
ATOM      6  C   UNL     1      34.962 -14.408 -22.388  0.00  0.00    +0.001 C 
ATOM      7  C   UNL     1      34.411 -12.369 -23.629  0.00  0.00    +0.037 C 
ATOM      8  C   UNL     1      33.741 -13.907 -25.857  0.00  0.00    +0.003 C 
ATOM      9  C   UNL     1      33.971 -11.749 -24.800  0.00  0.00    +0.139 C 
ATOM     10  C   UNL     1      33.637 -12.516 -25.911  0.00  0.00    +0.037 C 
ENDROOT
BRANCH   1  11
ATOM     11  S   UNL     1      34.863 -18.327 -23.375  0.00  0.00    +0.061 S 
ATOM     12  O   UNL     1      33.573 -18.887 -23.725  0.00  0.00    -0.153 OA
ATOM     13  O   UNL     1      36.047 -18.692 -24.130  0.00  0.00    -0.153 OA
BRANCH  11  14
ATOM     14  N   UNL     1      35.163 -18.589 -21.723  0.00  0.00    -0.170 NA
ATOM     15  H   UNL     1      34.301 -18.958 -21.321  0.00  0.00    +0.149 HD
BRANCH  14  16
ATOM     16  C   UNL     1      36.253 -19.497 -21.304  0.00  0.00    +0.174 C 
BRANCH  16  18
ATOM     17  O   UNL     1      37.821 -18.367 -19.828  0.00  0.00    -0.249 OA
ATOM     18  C   UNL     1      37.459 -18.656 -20.962  0.00  0.00    +0.330 C 
BRANCH  18  19
ATOM     19  O   UNL     1      38.134 -18.254 -22.070  0.00  0.00    -0.479 OA
ATOM     20  H   UNL     1      38.686 -17.497 -22.035  0.00  0.00    +0.295 HD
ENDBRANCH  18  19
ENDBRANCH  16  18
BRANCH  16  21
ATOM     21  C   UNL     1      35.778 -20.420 -20.175  0.00  0.00    +0.040 C 
BRANCH  21  22
ATOM     22  C   UNL     1      34.264 -20.566 -20.006  0.00  0.00    +0.111 C 
BRANCH  22  24
ATOM     23  O   UNL     1      32.690 -22.062 -18.947  0.00  0.00    -0.250 OA
ATOM     24  C   UNL     1      33.854 -21.759 -19.180  0.00  0.00    +0.314 C 
BRANCH  24  25
ATOM     25  O   UNL     1      34.913 -22.458 -18.702  0.00  0.00    -0.480 OA
ATOM     26  H   UNL     1      35.688 -22.005 -18.430  0.00  0.00    +0.295 HD
ENDBRANCH  24  25
ENDBRANCH  22  24
ENDBRANCH  21  22
ENDBRANCH  16  21
ENDBRANCH  14  16
ENDBRANCH  11  14
ENDBRANCH   1  11
BRANCH   9  27
ATOM     27  O   UNL     1      33.868 -10.393 -24.854  0.00  0.00    -0.471 OA
BRANCH  27  28
ATOM     28  C   UNL     1      34.608  -9.646 -23.890  0.00  0.00    +0.234 C 
BRANCH  28  30
ATOM     29  F   UNL     1      35.754  -7.164 -23.155  0.00  0.00    -0.204 F 
ATOM     30  C   UNL     1      33.792  -8.467 -23.451  0.00  0.00    +0.049 C 
ATOM     31  C   UNL     1      34.419  -7.271 -23.102  0.00  0.00    +0.140 C 
ATOM     32  C   UNL     1      32.402  -8.568 -23.394  0.00  0.00    +0.002 C 
ATOM     33  C   UNL     1      33.657  -6.176 -22.694  0.00  0.00    +0.040 C 
ATOM     34  C   UNL     1      31.639  -7.473 -22.986  0.00  0.00    +0.010 C 
ATOM     35  C   UNL     1      32.267  -6.277 -22.636  0.00  0.00    +0.071 C 
BRANCH  35  37
ATOM     36  N   UNL     1      30.853  -4.243 -21.882  0.00  0.00    -0.191 NA
ATOM     37  C   UNL     1      31.486  -5.155 -22.220  0.00  0.00    +0.100 C 
ENDBRANCH  35  37
ENDBRANCH  28  30
ENDBRANCH  27  28
ENDBRANCH   9  27
TORSDOF 13
ENDMDL
MODEL 9
REMARK VINA RESULT:     -10.6      4.024     11.404
REMARK  Name = 25058128
REMARK  13 active torsions:
REMARK  status: ('A' for Active; 'I' for Inactive)
REMARK    1  A    between atoms: C_1  and  S_11
REMARK    2  A    between atoms: C_9  and  O_27
REMARK    3  A    between atoms: S_11  and  N_14
REMARK    4  A    between atoms: N_14  and  C_16
REMARK    5  A    between atoms: C_16  and  C_18
REMARK    6  A    between atoms: C_16  and  C_21
REMARK    7  A    between atoms: C_18  and  O_19
REMARK    8  A    between atoms: C_21  and  C_22
REMARK    9  A    between atoms: C_22  and  C_24
REMARK   10  A    between atoms: C_24  and  O_25
REMARK   11  A    between atoms: O_27  and  C_28
REMARK   12  A    between atoms: C_28  and  C_30
REMARK   13  A    between atoms: C_35  and  C_37
REMARK                            x       y       z     vdW  Elec       q    Type
REMARK                         _______ _______ _______ _____ _____    ______ ____
ROOT
ATOM      1  C   UNL     1      35.311 -18.908 -21.994  0.00  0.00    +0.122 C 
ATOM      2  C   UNL     1      34.591 -20.438 -20.246  0.00  0.00    +0.002 C 
ATOM      3  C   UNL     1      34.303 -19.638 -21.364  0.00  0.00    +0.020 C 
ATOM      4  C   UNL     1      35.920 -20.498 -19.762  0.00  0.00    +0.003 C 
ATOM      5  C   UNL     1      36.617 -18.968 -21.519  0.00  0.00    +0.020 C 
ATOM      6  C   UNL     1      36.921 -19.758 -20.410  0.00  0.00    +0.001 C 
ATOM      7  C   UNL     1      36.208 -21.299 -18.645  0.00  0.00    +0.037 C 
ATOM      8  C   UNL     1      33.589 -21.179 -19.597  0.00  0.00    +0.003 C 
ATOM      9  C   UNL     1      35.200 -22.029 -18.013  0.00  0.00    +0.139 C 
ATOM     10  C   UNL     1      33.894 -21.969 -18.488  0.00  0.00    +0.037 C 
ENDROOT
BRANCH   1  11
ATOM     11  S   UNL     1      34.927 -17.906 -23.401  0.00  0.00    +0.061 S 
ATOM     12  O   UNL     1      36.119 -17.812 -24.220  0.00  0.00    -0.153 OA
ATOM     13  O   UNL     1      33.694 -18.422 -23.962  0.00  0.00    -0.153 OA
BRANCH  11  14
ATOM     14  N   UNL     1      34.615 -16.399 -22.681  0.00  0.00    -0.170 NA
ATOM     15  H   UNL     1      35.144 -16.373 -21.808  0.00  0.00    +0.149 HD
BRANCH  14  16
ATOM     16  C   UNL     1      34.934 -15.152 -23.410  0.00  0.00    +0.174 C 
BRANCH  16  18
ATOM     17  O   UNL     1      34.014 -15.728 -25.586  0.00  0.00    -0.249 OA
ATOM     18  C   UNL     1      33.983 -15.035 -24.576  0.00  0.00    +0.330 C 
BRANCH  18  19
ATOM     19  O   UNL     1      33.048 -14.069 -24.381  0.00  0.00    -0.479 OA
ATOM     20  H   UNL     1      33.180 -13.415 -23.723  0.00  0.00    +0.295 HD
ENDBRANCH  18  19
ENDBRANCH  16  18
BRANCH  16  21
ATOM     21  C   UNL     1      34.920 -13.953 -22.453  0.00  0.00    +0.040 C 
BRANCH  21  22
ATOM     22  C   UNL     1      34.233 -14.167 -21.102  0.00  0.00    +0.111 C 
BRANCH  22  24
ATOM     23  O   UNL     1      32.194 -13.514 -19.984  0.00  0.00    -0.250 OA
ATOM     24  C   UNL     1      32.946 -13.397 -20.944  0.00  0.00    +0.314 C 
BRANCH  24  25
ATOM     25  O   UNL     1      32.695 -12.569 -21.988  0.00  0.00    -0.480 OA
ATOM     26  H   UNL     1      32.436 -12.925 -22.816  0.00  0.00    +0.295 HD
ENDBRANCH  24  25
ENDBRANCH  22  24
ENDBRANCH  21  22
ENDBRANCH  16  21
ENDBRANCH  14  16
ENDBRANCH  11  14
ENDBRANCH   1  11
BRANCH   9  27
ATOM     27  O   UNL     1      35.495 -22.801 -16.932  0.00  0.00    -0.471 OA
BRANCH  27  28
ATOM     28  C   UNL     1      34.398 -23.274 -16.152  0.00  0.00    +0.234 C 
BRANCH  28  30
ATOM     29  F   UNL     1      32.758 -24.421 -14.150  0.00  0.00    -0.204 F 
ATOM     30  C   UNL     1      34.853 -23.470 -14.736  0.00  0.00    +0.049 C 
ATOM     31  C   UNL     1      33.994 -24.041 -13.797  0.00  0.00    +0.140 C 
ATOM     32  C   UNL     1      36.138 -23.080 -14.359  0.00  0.00    +0.002 C 
ATOM     33  C   UNL     1      34.420 -24.222 -12.481  0.00  0.00    +0.040 C 
ATOM     34  C   UNL     1      36.563 -23.261 -13.042  0.00  0.00    +0.010 C 
ATOM     35  C   UNL     1      35.704 -23.832 -12.103  0.00  0.00    +0.071 C 
BRANCH  35  37
ATOM     36  N   UNL     1      36.496 -24.170  -9.661  0.00  0.00    -0.191 NA
ATOM     37  C   UNL     1      36.141 -24.019 -10.756  0.00  0.00    +0.100 C 
ENDBRANCH  35  37
ENDBRANCH  28  30
ENDBRANCH  27  28
ENDBRANCH   9  27
TORSDOF 13
ENDMDL
