MODEL 1
REMARK VINA RESULT:     -11.9      0.000      0.000
REMARK  Name = 4566
REMARK  6 active torsions:
REMARK  status: ('A' for Active; 'I' for Inactive)
REMARK    1  A    between atoms: N_4  and  C_14
REMARK    2  A    between atoms: C_6  and  O_26
REMARK    3  A    between atoms: C_15  and  S_20
REMARK    4  A    between atoms: S_20  and  N_23
REMARK    5  A    between atoms: O_26  and  C_27
REMARK    6  A    between atoms: C_27  and  C_28
REMARK                            x       y       z     vdW  Elec       q    Type
REMARK                         _______ _______ _______ _____ _____    ______ ____
ROOT
ATOM      1  N   UNL     1      34.151 -23.802 -15.657  0.00  0.00    -0.293 NA
ATOM      2  N   UNL     1      30.735 -22.692 -16.447  0.00  0.00    -0.266 NA
ATOM      3  N   UNL     1      32.586 -23.986 -13.794  0.00  0.00    -0.316 NA
ATOM      4  N   UNL     1      34.826 -24.621 -13.570  0.00  0.00    -0.238 N 
ATOM      5  N   UNL     1      30.331 -23.248 -14.327  0.00  0.00    -0.296 N 
ATOM      6  C   UNL     1      33.191 -23.307 -16.470  0.00  0.00    +0.288 C 
ATOM      7  C   UNL     1      31.923 -23.147 -15.951  0.00  0.00    +0.215 C 
ATOM      8  C   UNL     1      31.647 -23.487 -14.633  0.00  0.00    +0.196 C 
ATOM      9  C   UNL     1      33.793 -24.106 -14.386  0.00  0.00    +0.207 C 
ATOM     10  C   UNL     1      29.811 -22.771 -15.438  0.00  0.00    +0.164 C 
ATOM     11  H   UNL     1      30.571 -22.366 -17.362  0.00  0.00    +0.126 HD
ATOM     12  H   UNL     1      34.537 -24.835 -12.652  0.00  0.00    +0.166 HD
ATOM     13  H   UNL     1      29.877 -23.401 -13.467  0.00  0.00    +0.150 HD
ENDROOT
BRANCH   4  14
ATOM     14  C   UNL     1      36.185 -24.890 -13.811  0.00  0.00    +0.059 C 
ATOM     15  C   UNL     1      38.885 -25.423 -14.294  0.00  0.00    +0.122 C 
ATOM     16  C   UNL     1      37.173 -24.109 -13.208  0.00  0.00    +0.017 C 
ATOM     17  C   UNL     1      36.553 -25.939 -14.659  0.00  0.00    +0.017 C 
ATOM     18  C   UNL     1      38.521 -24.375 -13.448  0.00  0.00    +0.021 C 
ATOM     19  C   UNL     1      37.901 -26.204 -14.899  0.00  0.00    +0.021 C 
BRANCH  15  20
ATOM     20  S   UNL     1      40.572 -25.755 -14.595  0.00  0.00    +0.057 S 
ATOM     21  O   UNL     1      41.280 -24.487 -14.694  0.00  0.00    -0.153 OA
ATOM     22  O   UNL     1      41.022 -26.762 -13.644  0.00  0.00    -0.153 OA
BRANCH  20  23
ATOM     23  N   UNL     1      40.492 -26.466 -16.147  0.00  0.00    -0.203 NA
ATOM     24  H   UNL     1      41.038 -25.908 -16.805  0.00  0.00    +0.144 HD
ATOM     25  H   UNL     1      39.520 -26.499 -16.456  0.00  0.00    +0.144 HD
ENDBRANCH  20  23
ENDBRANCH  15  20
ENDBRANCH   4  14
BRANCH   6  26
ATOM     26  O   UNL     1      33.520 -22.987 -17.763  0.00  0.00    -0.453 OA
BRANCH  26  27
ATOM     27  C   UNL     1      34.771 -22.359 -17.973  0.00  0.00    +0.208 C 
BRANCH  27  28
ATOM     28  C   UNL     1      34.740 -21.656 -19.329  0.00  0.00    +0.044 C 
ATOM     29  C   UNL     1      33.462 -20.819 -19.477  0.00  0.00    +0.004 C 
ATOM     30  C   UNL     1      35.990 -20.786 -19.518  0.00  0.00    +0.004 C 
ATOM     31  C   UNL     1      33.433 -20.064 -20.804  0.00  0.00    +0.000 C 
ATOM     32  C   UNL     1      35.955 -20.032 -20.845  0.00  0.00    +0.000 C 
ATOM     33  C   UNL     1      34.680 -19.206 -20.991  0.00  0.00    +0.000 C 
ENDBRANCH  27  28
ENDBRANCH  26  27
ENDBRANCH   6  26
TORSDOF 6
ENDMDL
MODEL 2
REMARK VINA RESULT:     -11.6      1.362      2.094
REMARK  Name = 4566
REMARK  6 active torsions:
REMARK  status: ('A' for Active; 'I' for Inactive)
REMARK    1  A    between atoms: N_4  and  C_14
REMARK    2  A    between atoms: C_6  and  O_26
REMARK    3  A    between atoms: C_15  and  S_20
REMARK    4  A    between atoms: S_20  and  N_23
REMARK    5  A    between atoms: O_26  and  C_27
REMARK    6  A    between atoms: C_27  and  C_28
REMARK                            x       y       z     vdW  Elec       q    Type
REMARK                         _______ _______ _______ _____ _____    ______ ____
ROOT
ATOM      1  N   UNL     1      32.655 -23.275 -15.696  0.00  0.00    -0.293 NA
ATOM      2  N   UNL     1      29.327 -22.286 -16.911  0.00  0.00    -0.266 NA
ATOM      3  N   UNL     1      30.867 -23.580 -14.065  0.00  0.00    -0.316 NA
ATOM      4  N   UNL     1      33.083 -24.128 -13.558  0.00  0.00    -0.238 N 
ATOM      5  N   UNL     1      28.671 -22.922 -14.878  0.00  0.00    -0.296 N 
ATOM      6  C   UNL     1      31.790 -22.797 -16.618  0.00  0.00    +0.288 C 
ATOM      7  C   UNL     1      30.458 -22.706 -16.270  0.00  0.00    +0.215 C 
ATOM      8  C   UNL     1      30.025 -23.096 -15.010  0.00  0.00    +0.196 C 
ATOM      9  C   UNL     1      32.146 -23.632 -14.492  0.00  0.00    +0.207 C 
ATOM     10  C   UNL     1      28.282 -22.435 -16.036  0.00  0.00    +0.164 C 
ATOM     11  H   UNL     1      29.272 -21.941 -17.831  0.00  0.00    +0.126 HD
ATOM     12  H   UNL     1      32.685 -24.380 -12.693  0.00  0.00    +0.166 HD
ATOM     13  H   UNL     1      28.114 -23.120 -14.090  0.00  0.00    +0.150 HD
ENDROOT
BRANCH   4  14
ATOM     14  C   UNL     1      34.473 -24.331 -13.621  0.00  0.00    +0.059 C 
ATOM     15  C   UNL     1      37.235 -24.737 -13.745  0.00  0.00    +0.122 C 
ATOM     16  C   UNL     1      35.041 -24.955 -14.734  0.00  0.00    +0.017 C 
ATOM     17  C   UNL     1      35.292 -23.911 -12.570  0.00  0.00    +0.017 C 
ATOM     18  C   UNL     1      36.420 -25.158 -14.797  0.00  0.00    +0.021 C 
ATOM     19  C   UNL     1      36.671 -24.114 -12.632  0.00  0.00    +0.021 C 
BRANCH  15  20
ATOM     20  S   UNL     1      38.961 -24.991 -13.823  0.00  0.00    +0.057 S 
ATOM     21  O   UNL     1      39.582 -24.269 -12.722  0.00  0.00    -0.153 OA
ATOM     22  O   UNL     1      39.210 -26.417 -13.985  0.00  0.00    -0.153 OA
BRANCH  20  23
ATOM     23  N   UNL     1      39.341 -24.199 -15.288  0.00  0.00    -0.203 NA
ATOM     24  H   UNL     1      39.998 -23.440 -15.104  0.00  0.00    +0.144 HD
ATOM     25  H   UNL     1      38.489 -23.817 -15.699  0.00  0.00    +0.144 HD
ENDBRANCH  20  23
ENDBRANCH  15  20
ENDBRANCH   4  14
BRANCH   6  26
ATOM     26  O   UNL     1      32.273 -22.425 -17.848  0.00  0.00    -0.453 OA
BRANCH  26  27
ATOM     27  C   UNL     1      33.636 -22.700 -18.114  0.00  0.00    +0.208 C 
BRANCH  27  28
ATOM     28  C   UNL     1      34.266 -21.459 -18.745  0.00  0.00    +0.044 C 
ATOM     29  C   UNL     1      35.693 -21.757 -19.222  0.00  0.00    +0.004 C 
ATOM     30  C   UNL     1      33.400 -20.939 -19.901  0.00  0.00    +0.004 C 
ATOM     31  C   UNL     1      36.326 -20.546 -19.904  0.00  0.00    +0.000 C 
ATOM     32  C   UNL     1      34.037 -19.729 -20.581  0.00  0.00    +0.000 C 
ATOM     33  C   UNL     1      35.458 -20.028 -21.047  0.00  0.00    +0.000 C 
ENDBRANCH  27  28
ENDBRANCH  26  27
ENDBRANCH   6  26
TORSDOF 6
ENDMDL
MODEL 3
REMARK VINA RESULT:     -11.3      3.409      7.080
REMARK  Name = 4566
REMARK  6 active torsions:
REMARK  status: ('A' for Active; 'I' for Inactive)
REMARK    1  A    between atoms: N_4  and  C_14
REMARK    2  A    between atoms: C_6  and  O_26
REMARK    3  A    between atoms: C_15  and  S_20
REMARK    4  A    between atoms: S_20  and  N_23
REMARK    5  A    between atoms: O_26  and  C_27
REMARK    6  A    between atoms: C_27  and  C_28
REMARK                            x       y       z     vdW  Elec       q    Type
REMARK                         _______ _______ _______ _____ _____    ______ ____
ROOT
ATOM      1  N   UNL     1      34.755 -23.799 -14.245  0.00  0.00    -0.293 NA
ATOM      2  N   UNL     1      38.296 -24.135 -13.311  0.00  0.00    -0.266 NA
ATOM      3  N   UNL     1      35.122 -24.258 -11.878  0.00  0.00    -0.316 NA
ATOM      4  N   UNL     1      32.967 -23.998 -12.747  0.00  0.00    -0.238 N 
ATOM      5  N   UNL     1      37.467 -24.479 -11.271  0.00  0.00    -0.296 N 
ATOM      6  C   UNL     1      36.083 -23.812 -14.498  0.00  0.00    +0.288 C 
ATOM      7  C   UNL     1      36.939 -24.049 -13.443  0.00  0.00    +0.215 C 
ATOM      8  C   UNL     1      36.447 -24.265 -12.163  0.00  0.00    +0.196 C 
ATOM      9  C   UNL     1      34.363 -24.021 -12.968  0.00  0.00    +0.207 C 
ATOM     10  C   UNL     1      38.564 -24.395 -11.992  0.00  0.00    +0.164 C 
ATOM     11  H   UNL     1      38.960 -24.031 -14.030  0.00  0.00    +0.126 HD
ATOM     12  H   UNL     1      32.711 -24.161 -11.810  0.00  0.00    +0.166 HD
ATOM     13  H   UNL     1      37.393 -24.656 -10.305  0.00  0.00    +0.150 HD
ENDROOT
BRANCH   4  14
ATOM     14  C   UNL     1      31.872 -23.789 -13.604  0.00  0.00    +0.059 C 
ATOM     15  C   UNL     1      29.697 -23.371 -15.308  0.00  0.00    +0.122 C 
ATOM     16  C   UNL     1      30.983 -24.831 -13.876  0.00  0.00    +0.017 C 
ATOM     17  C   UNL     1      31.668 -22.536 -14.189  0.00  0.00    +0.017 C 
ATOM     18  C   UNL     1      29.897 -24.623 -14.726  0.00  0.00    +0.021 C 
ATOM     19  C   UNL     1      30.582 -22.328 -15.040  0.00  0.00    +0.021 C 
BRANCH  15  20
ATOM     20  S   UNL     1      28.338 -23.111 -16.374  0.00  0.00    +0.057 S 
ATOM     21  O   UNL     1      28.611 -21.935 -17.188  0.00  0.00    -0.153 OA
ATOM     22  O   UNL     1      28.007 -24.375 -17.016  0.00  0.00    -0.153 OA
BRANCH  20  23
ATOM     23  N   UNL     1      27.110 -22.731 -15.248  0.00  0.00    -0.203 NA
ATOM     24  H   UNL     1      27.172 -23.364 -14.451  0.00  0.00    +0.144 HD
ATOM     25  H   UNL     1      26.198 -22.834 -15.693  0.00  0.00    +0.144 HD
ENDBRANCH  20  23
ENDBRANCH  15  20
ENDBRANCH   4  14
BRANCH   6  26
ATOM     26  O   UNL     1      36.514 -23.593 -15.782  0.00  0.00    -0.453 OA
BRANCH  26  27
ATOM     27  C   UNL     1      36.533 -22.252 -16.235  0.00  0.00    +0.208 C 
BRANCH  27  28
ATOM     28  C   UNL     1      35.989 -22.216 -17.663  0.00  0.00    +0.044 C 
ATOM     29  C   UNL     1      34.455 -22.167 -17.658  0.00  0.00    +0.004 C 
ATOM     30  C   UNL     1      36.572 -21.025 -18.434  0.00  0.00    +0.004 C 
ATOM     31  C   UNL     1      33.889 -22.076 -19.073  0.00  0.00    +0.000 C 
ATOM     32  C   UNL     1      36.002 -20.936 -19.849  0.00  0.00    +0.000 C 
ATOM     33  C   UNL     1      34.477 -20.895 -19.839  0.00  0.00    +0.000 C 
ENDBRANCH  27  28
ENDBRANCH  26  27
ENDBRANCH   6  26
TORSDOF 6
ENDMDL
MODEL 4
REMARK VINA RESULT:     -11.1      3.461      7.371
REMARK  Name = 4566
REMARK  6 active torsions:
REMARK  status: ('A' for Active; 'I' for Inactive)
REMARK    1  A    between atoms: N_4  and  C_14
REMARK    2  A    between atoms: C_6  and  O_26
REMARK    3  A    between atoms: C_15  and  S_20
REMARK    4  A    between atoms: S_20  and  N_23
REMARK    5  A    between atoms: O_26  and  C_27
REMARK    6  A    between atoms: C_27  and  C_28
REMARK                            x       y       z     vdW  Elec       q    Type
REMARK                         _______ _______ _______ _____ _____    ______ ____
ROOT
ATOM      1  N   UNL     1      34.023 -22.567 -16.304  0.00  0.00    -0.293 NA
ATOM      2  N   UNL     1      33.036 -24.485 -13.326  0.00  0.00    -0.266 NA
ATOM      3  N   UNL     1      31.802 -23.566 -16.452  0.00  0.00    -0.316 NA
ATOM      4  N   UNL     1      32.684 -22.292 -18.205  0.00  0.00    -0.238 N 
ATOM      5  N   UNL     1      31.160 -24.832 -14.478  0.00  0.00    -0.296 N 
ATOM      6  C   UNL     1      34.215 -23.073 -15.066  0.00  0.00    +0.288 C 
ATOM      7  C   UNL     1      33.203 -23.830 -14.513  0.00  0.00    +0.215 C 
ATOM      8  C   UNL     1      32.025 -24.059 -15.211  0.00  0.00    +0.196 C 
ATOM      9  C   UNL     1      32.844 -22.841 -16.913  0.00  0.00    +0.207 C 
ATOM     10  C   UNL     1      31.797 -25.070 -13.352  0.00  0.00    +0.164 C 
ATOM     11  H   UNL     1      33.685 -24.529 -12.587  0.00  0.00    +0.126 HD
ATOM     12  H   UNL     1      31.818 -22.507 -18.623  0.00  0.00    +0.166 HD
ATOM     13  H   UNL     1      30.261 -25.139 -14.739  0.00  0.00    +0.150 HD
ENDROOT
BRANCH   4  14
ATOM     14  C   UNL     1      33.519 -21.500 -19.012  0.00  0.00    +0.059 C 
ATOM     15  C   UNL     1      35.177 -19.922 -20.615  0.00  0.00    +0.122 C 
ATOM     16  C   UNL     1      34.904 -21.671 -18.972  0.00  0.00    +0.017 C 
ATOM     17  C   UNL     1      32.966 -20.534 -19.859  0.00  0.00    +0.017 C 
ATOM     18  C   UNL     1      35.733 -20.884 -19.772  0.00  0.00    +0.021 C 
ATOM     19  C   UNL     1      33.794 -19.747 -20.659  0.00  0.00    +0.021 C 
BRANCH  15  20
ATOM     20  S   UNL     1      36.213 -18.936 -21.616  0.00  0.00    +0.057 S 
ATOM     21  O   UNL     1      37.587 -19.108 -21.166  0.00  0.00    -0.153 OA
ATOM     22  O   UNL     1      35.874 -19.178 -23.012  0.00  0.00    -0.153 OA
BRANCH  20  23
ATOM     23  N   UNL     1      35.685 -17.369 -21.189  0.00  0.00    -0.203 NA
ATOM     24  H   UNL     1      34.665 -17.336 -21.211  0.00  0.00    +0.144 HD
ATOM     25  H   UNL     1      36.061 -16.690 -21.852  0.00  0.00    +0.144 HD
ENDBRANCH  20  23
ENDBRANCH  15  20
ENDBRANCH   4  14
BRANCH   6  26
ATOM     26  O   UNL     1      35.400 -22.815 -14.422  0.00  0.00    -0.453 OA
BRANCH  26  27
ATOM     27  C   UNL     1      36.592 -23.049 -15.149  0.00  0.00    +0.208 C 
BRANCH  27  28
ATOM     28  C   UNL     1      37.490 -23.968 -14.323  0.00  0.00    +0.044 C 
ATOM     29  C   UNL     1      37.465 -23.565 -12.842  0.00  0.00    +0.004 C 
ATOM     30  C   UNL     1      37.070 -25.434 -14.497  0.00  0.00    +0.004 C 
ATOM     31  C   UNL     1      38.314 -24.503 -11.987  0.00  0.00    +0.000 C 
ATOM     32  C   UNL     1      37.921 -26.369 -13.639  0.00  0.00    +0.000 C 
ATOM     33  C   UNL     1      37.899 -25.959 -12.169  0.00  0.00    +0.000 C 
ENDBRANCH  27  28
ENDBRANCH  26  27
ENDBRANCH   6  26
TORSDOF 6
ENDMDL
MODEL 5
REMARK VINA RESULT:     -10.8      2.861      5.513
REMARK  Name = 4566
REMARK  6 active torsions:
REMARK  status: ('A' for Active; 'I' for Inactive)
REMARK    1  A    between atoms: N_4  and  C_14
REMARK    2  A    between atoms: C_6  and  O_26
REMARK    3  A    between atoms: C_15  and  S_20
REMARK    4  A    between atoms: S_20  and  N_23
REMARK    5  A    between atoms: O_26  and  C_27
REMARK    6  A    between atoms: C_27  and  C_28
REMARK                            x       y       z     vdW  Elec       q    Type
REMARK                         _______ _______ _______ _____ _____    ______ ____
ROOT
ATOM      1  N   UNL     1      35.211 -22.070 -17.613  0.00  0.00    -0.293 NA
ATOM      2  N   UNL     1      33.996 -20.463 -20.691  0.00  0.00    -0.266 NA
ATOM      3  N   UNL     1      36.884 -20.710 -18.756  0.00  0.00    -0.316 NA
ATOM      4  N   UNL     1      37.385 -21.846 -16.774  0.00  0.00    -0.238 N 
ATOM      5  N   UNL     1      36.070 -19.654 -20.789  0.00  0.00    -0.296 N 
ATOM      6  C   UNL     1      34.278 -21.784 -18.548  0.00  0.00    +0.288 C 
ATOM      7  C   UNL     1      34.641 -20.960 -19.593  0.00  0.00    +0.215 C 
ATOM      8  C   UNL     1      35.927 -20.443 -19.677  0.00  0.00    +0.196 C 
ATOM      9  C   UNL     1      36.440 -21.523 -17.773  0.00  0.00    +0.207 C 
ATOM     10  C   UNL     1      34.893 -19.687 -21.376  0.00  0.00    +0.164 C 
ATOM     11  H   UNL     1      33.059 -20.632 -20.943  0.00  0.00    +0.126 HD
ATOM     12  H   UNL     1      38.269 -21.434 -16.915  0.00  0.00    +0.166 HD
ATOM     13  H   UNL     1      36.876 -19.169 -21.083  0.00  0.00    +0.150 HD
ENDROOT
BRANCH   4  14
ATOM     14  C   UNL     1      37.312 -22.641 -15.617  0.00  0.00    +0.059 C 
ATOM     15  C   UNL     1      37.162 -24.222 -13.317  0.00  0.00    +0.122 C 
ATOM     16  C   UNL     1      38.277 -23.621 -15.375  0.00  0.00    +0.017 C 
ATOM     17  C   UNL     1      36.270 -22.456 -14.703  0.00  0.00    +0.017 C 
ATOM     18  C   UNL     1      38.203 -24.411 -14.227  0.00  0.00    +0.021 C 
ATOM     19  C   UNL     1      36.197 -23.245 -13.555  0.00  0.00    +0.021 C 
BRANCH  15  20
ATOM     20  S   UNL     1      37.069 -25.211 -11.881  0.00  0.00    +0.057 S 
ATOM     21  O   UNL     1      37.213 -26.606 -12.272  0.00  0.00    -0.153 OA
ATOM     22  O   UNL     1      37.958 -24.647 -10.874  0.00  0.00    -0.153 OA
BRANCH  20  23
ATOM     23  N   UNL     1      35.453 -24.936 -11.400  0.00  0.00    -0.203 NA
ATOM     24  H   UNL     1      35.431 -24.216 -10.677  0.00  0.00    +0.144 HD
ATOM     25  H   UNL     1      35.057 -25.800 -11.031  0.00  0.00    +0.144 HD
ENDBRANCH  20  23
ENDBRANCH  15  20
ENDBRANCH   4  14
BRANCH   6  26
ATOM     26  O   UNL     1      33.022 -22.323 -18.416  0.00  0.00    -0.453 OA
BRANCH  26  27
ATOM     27  C   UNL     1      32.870 -23.379 -17.486  0.00  0.00    +0.208 C 
BRANCH  27  28
ATOM     28  C   UNL     1      32.178 -22.830 -16.240  0.00  0.00    +0.044 C 
ATOM     29  C   UNL     1      30.662 -23.054 -16.317  0.00  0.00    +0.004 C 
ATOM     30  C   UNL     1      32.761 -23.467 -14.971  0.00  0.00    +0.004 C 
ATOM     31  C   UNL     1      29.953 -22.561 -15.057  0.00  0.00    +0.000 C 
ATOM     32  C   UNL     1      32.049 -22.972 -13.714  0.00  0.00    +0.000 C 
ATOM     33  C   UNL     1      30.541 -23.191 -13.798  0.00  0.00    +0.000 C 
ENDBRANCH  27  28
ENDBRANCH  26  27
ENDBRANCH   6  26
TORSDOF 6
ENDMDL
MODEL 6
REMARK VINA RESULT:      -9.4      3.708      7.315
REMARK  Name = 4566
REMARK  6 active torsions:
REMARK  status: ('A' for Active; 'I' for Inactive)
REMARK    1  A    between atoms: N_4  and  C_14
REMARK    2  A    between atoms: C_6  and  O_26
REMARK    3  A    between atoms: C_15  and  S_20
REMARK    4  A    between atoms: S_20  and  N_23
REMARK    5  A    between atoms: O_26  and  C_27
REMARK    6  A    between atoms: C_27  and  C_28
REMARK                            x       y       z     vdW  Elec       q    Type
REMARK                         _______ _______ _______ _____ _____    ______ ____
ROOT
ATOM      1  N   UNL     1      35.514 -22.800 -15.639  0.00  0.00    -0.293 NA
ATOM      2  N   UNL     1      35.616 -24.638 -12.455  0.00  0.00    -0.266 NA
ATOM      3  N   UNL     1      37.765 -23.366 -14.886  0.00  0.00    -0.316 NA
ATOM      4  N   UNL     1      37.406 -22.197 -16.879  0.00  0.00    -0.238 N 
ATOM      5  N   UNL     1      37.820 -24.581 -12.780  0.00  0.00    -0.296 N 
ATOM      6  C   UNL     1      34.958 -23.390 -14.557  0.00  0.00    +0.288 C 
ATOM      7  C   UNL     1      35.800 -23.971 -13.632  0.00  0.00    +0.215 C 
ATOM      8  C   UNL     1      37.177 -23.949 -13.813  0.00  0.00    +0.196 C 
ATOM      9  C   UNL     1      36.865 -22.824 -15.734  0.00  0.00    +0.207 C 
ATOM     10  C   UNL     1      36.855 -24.983 -11.981  0.00  0.00    +0.164 C 
ATOM     11  H   UNL     1      34.753 -24.835 -12.024  0.00  0.00    +0.126 HD
ATOM     12  H   UNL     1      38.389 -22.231 -16.923  0.00  0.00    +0.166 HD
ATOM     13  H   UNL     1      38.790 -24.706 -12.663  0.00  0.00    +0.150 HD
ENDROOT
BRANCH   4  14
ATOM     14  C   UNL     1      36.814 -21.534 -17.969  0.00  0.00    +0.059 C 
ATOM     15  C   UNL     1      35.637 -20.217 -20.134  0.00  0.00    +0.122 C 
ATOM     16  C   UNL     1      37.488 -20.490 -18.606  0.00  0.00    +0.017 C 
ATOM     17  C   UNL     1      35.548 -21.917 -18.420  0.00  0.00    +0.017 C 
ATOM     18  C   UNL     1      36.901 -19.832 -19.687  0.00  0.00    +0.021 C 
ATOM     19  C   UNL     1      34.961 -21.259 -19.501  0.00  0.00    +0.021 C 
BRANCH  15  20
ATOM     20  S   UNL     1      34.901 -19.393 -21.487  0.00  0.00    +0.057 S 
ATOM     21  O   UNL     1      35.618 -19.766 -22.698  0.00  0.00    -0.153 OA
ATOM     22  O   UNL     1      33.459 -19.581 -21.413  0.00  0.00    -0.153 OA
BRANCH  20  23
ATOM     23  N   UNL     1      35.261 -17.766 -21.111  0.00  0.00    -0.203 NA
ATOM     24  H   UNL     1      36.024 -17.440 -21.705  0.00  0.00    +0.144 HD
ATOM     25  H   UNL     1      35.540 -17.697 -20.132  0.00  0.00    +0.144 HD
ENDBRANCH  20  23
ENDBRANCH  15  20
ENDBRANCH   4  14
BRANCH   6  26
ATOM     26  O   UNL     1      33.591 -23.382 -14.429  0.00  0.00    -0.453 OA
BRANCH  26  27
ATOM     27  C   UNL     1      32.833 -23.261 -15.618  0.00  0.00    +0.208 C 
BRANCH  27  28
ATOM     28  C   UNL     1      31.351 -23.265 -15.250  0.00  0.00    +0.044 C 
ATOM     29  C   UNL     1      30.524 -22.536 -16.318  0.00  0.00    +0.004 C 
ATOM     30  C   UNL     1      30.845 -24.701 -15.054  0.00  0.00    +0.004 C 
ATOM     31  C   UNL     1      29.032 -22.572 -15.999  0.00  0.00    +0.000 C 
ATOM     32  C   UNL     1      29.351 -24.733 -14.737  0.00  0.00    +0.000 C 
ATOM     33  C   UNL     1      28.535 -24.000 -15.797  0.00  0.00    +0.000 C 
ENDBRANCH  27  28
ENDBRANCH  26  27
ENDBRANCH   6  26
TORSDOF 6
ENDMDL
MODEL 7
REMARK VINA RESULT:      -8.9     14.344     18.365
REMARK  Name = 4566
REMARK  6 active torsions:
REMARK  status: ('A' for Active; 'I' for Inactive)
REMARK    1  A    between atoms: N_4  and  C_14
REMARK    2  A    between atoms: C_6  and  O_26
REMARK    3  A    between atoms: C_15  and  S_20
REMARK    4  A    between atoms: S_20  and  N_23
REMARK    5  A    between atoms: O_26  and  C_27
REMARK    6  A    between atoms: C_27  and  C_28
REMARK                            x       y       z     vdW  Elec       q    Type
REMARK                         _______ _______ _______ _____ _____    ______ ____
ROOT
ATOM      1  N   UNL     1      33.077  -8.174 -22.942  0.00  0.00    -0.293 NA
ATOM      2  N   UNL     1      31.947 -10.632 -20.450  0.00  0.00    -0.266 NA
ATOM      3  N   UNL     1      32.790  -7.260 -20.698  0.00  0.00    -0.316 NA
ATOM      4  N   UNL     1      33.500  -5.918 -22.478  0.00  0.00    -0.238 N 
ATOM      5  N   UNL     1      32.043  -8.893 -19.059  0.00  0.00    -0.296 N 
ATOM      6  C   UNL     1      32.699  -9.406 -22.534  0.00  0.00    +0.288 C 
ATOM      7  C   UNL     1      32.363  -9.573 -21.207  0.00  0.00    +0.215 C 
ATOM      8  C   UNL     1      32.415  -8.506 -20.321  0.00  0.00    +0.196 C 
ATOM      9  C   UNL     1      33.099  -7.191 -22.011  0.00  0.00    +0.207 C 
ATOM     10  C   UNL     1      31.768 -10.174 -19.170  0.00  0.00    +0.164 C 
ATOM     11  H   UNL     1      31.802 -11.553 -20.764  0.00  0.00    +0.126 HD
ATOM     12  H   UNL     1      33.508  -5.224 -21.780  0.00  0.00    +0.166 HD
ATOM     13  H   UNL     1      31.993  -8.334 -18.249  0.00  0.00    +0.150 HD
ENDROOT
BRANCH   4  14
ATOM     14  C   UNL     1      33.891  -5.451 -23.745  0.00  0.00    +0.059 C 
ATOM     15  C   UNL     1      34.669  -4.524 -26.263  0.00  0.00    +0.122 C 
ATOM     16  C   UNL     1      33.118  -4.498 -24.411  0.00  0.00    +0.017 C 
ATOM     17  C   UNL     1      35.056  -5.939 -24.344  0.00  0.00    +0.017 C 
ATOM     18  C   UNL     1      33.506  -4.034 -25.669  0.00  0.00    +0.021 C 
ATOM     19  C   UNL     1      35.444  -5.475 -25.602  0.00  0.00    +0.021 C 
BRANCH  15  20
ATOM     20  S   UNL     1      35.155  -3.944 -27.838  0.00  0.00    +0.057 S 
ATOM     21  O   UNL     1      36.321  -4.702 -28.267  0.00  0.00    -0.153 OA
ATOM     22  O   UNL     1      33.976  -3.884 -28.691  0.00  0.00    -0.153 OA
BRANCH  20  23
ATOM     23  N   UNL     1      35.639  -2.350 -27.462  0.00  0.00    -0.203 NA
ATOM     24  H   UNL     1      35.253  -2.081 -26.557  0.00  0.00    +0.144 HD
ATOM     25  H   UNL     1      35.296  -1.712 -28.181  0.00  0.00    +0.144 HD
ENDBRANCH  20  23
ENDBRANCH  15  20
ENDBRANCH   4  14
BRANCH   6  26
ATOM     26  O   UNL     1      32.664 -10.425 -23.453  0.00  0.00    -0.453 OA
BRANCH  26  27
ATOM     27  C   UNL     1      33.894 -11.051 -23.767  0.00  0.00    +0.208 C 
BRANCH  27  28
ATOM     28  C   UNL     1      33.706 -12.564 -23.671  0.00  0.00    +0.044 C 
ATOM     29  C   UNL     1      33.864 -13.220 -25.050  0.00  0.00    +0.004 C 
ATOM     30  C   UNL     1      34.690 -13.170 -22.661  0.00  0.00    +0.004 C 
ATOM     31  C   UNL     1      33.732 -14.739 -24.971  0.00  0.00    +0.000 C 
ATOM     32  C   UNL     1      34.557 -14.690 -22.587  0.00  0.00    +0.000 C 
ATOM     33  C   UNL     1      34.707 -15.336 -23.961  0.00  0.00    +0.000 C 
ENDBRANCH  27  28
ENDBRANCH  26  27
ENDBRANCH   6  26
TORSDOF 6
ENDMDL
