MODEL 1
REMARK VINA RESULT:     -12.7      0.000      0.000
REMARK  Name = 21081761
REMARK  5 active torsions:
REMARK  status: ('A' for Active; 'I' for Inactive)
REMARK    1  A    between atoms: N_2  and  C_6
REMARK    2  A    between atoms: C_3  and  C_25
REMARK    3  A    between atoms: C_7  and  O_12
REMARK    4  A    between atoms: O_12  and  C_16
REMARK    5  A    between atoms: N_24  and  C_31
REMARK                            x       y       z     vdW  Elec       q    Type
REMARK                         _______ _______ _______ _____ _____    ______ ____
ROOT
ATOM      1  O   UNL     1      32.505 -13.373 -22.430  0.00  0.00    -0.270 OA
ATOM      2  N   UNL     1      34.743 -13.727 -23.088  0.00  0.00    -0.280 N 
ATOM      3  C   UNL     1      33.579 -12.986 -22.874  0.00  0.00    +0.254 C 
ATOM      4  H   UNL     1      35.510 -13.233 -23.457  0.00  0.00    +0.155 HD
ENDROOT
BRANCH   2   6
ATOM      5  F   UNL     1      35.179 -18.216 -24.681  0.00  0.00    -0.201 F 
ATOM      6  C   UNL     1      34.951 -15.085 -22.843  0.00  0.00    +0.053 C 
ATOM      7  C   UNL     1      35.366 -17.800 -22.353  0.00  0.00    +0.173 C 
ATOM      8  C   UNL     1      34.962 -15.992 -23.903  0.00  0.00    +0.047 C 
ATOM      9  C   UNL     1      35.149 -15.536 -21.538  0.00  0.00    +0.018 C 
ATOM     10  C   UNL     1      35.169 -17.350 -23.658  0.00  0.00    +0.176 C 
ATOM     11  C   UNL     1      35.355 -16.893 -21.292  0.00  0.00    +0.041 C 
BRANCH   7  12
ATOM     12  O   UNL     1      35.570 -19.145 -22.109  0.00  0.00    -0.451 OA
BRANCH  12  16
ATOM     13  N   UNL     1      35.040 -21.765 -18.297  0.00  0.00    -0.297 N 
ATOM     14  N   UNL     1      32.998 -21.004 -19.322  0.00  0.00    -0.229 NA
ATOM     15  C   UNL     1      35.260 -20.506 -20.128  0.00  0.00    +0.067 C 
ATOM     16  C   UNL     1      34.751 -19.752 -21.198  0.00  0.00    +0.150 C 
ATOM     17  C   UNL     1      34.340 -21.083 -19.258  0.00  0.00    +0.135 C 
ATOM     18  C   UNL     1      36.552 -20.865 -19.659  0.00  0.00    +0.022 C 
ATOM     19  C   UNL     1      36.385 -21.639 -18.532  0.00  0.00    +0.063 C 
ATOM     20  C   UNL     1      33.367 -19.637 -21.313  0.00  0.00    +0.058 C 
ATOM     21  C   UNL     1      32.564 -20.268 -20.372  0.00  0.00    +0.103 C 
ATOM     22  H   UNL     1      34.639 -22.269 -17.552  0.00  0.00    +0.154 HD
ENDBRANCH  12  16
ENDBRANCH   7  12
ENDBRANCH   2   6
BRANCH   3  25
ATOM     23  O   UNL     1      32.130 -10.781 -21.741  0.00  0.00    -0.269 OA
ATOM     24  N   UNL     1      33.267  -9.148 -23.020  0.00  0.00    -0.233 N 
ATOM     25  C   UNL     1      33.735 -11.576 -23.250  0.00  0.00    +0.108 C 
ATOM     26  C   UNL     1      32.974 -10.467 -22.581  0.00  0.00    +0.261 C 
ATOM     27  C   UNL     1      34.163  -8.951 -24.071  0.00  0.00    +0.072 C 
ATOM     28  C   UNL     1      34.586 -11.307 -24.247  0.00  0.00    +0.010 C 
ATOM     29  C   UNL     1      34.800  -9.957 -24.678  0.00  0.00    +0.017 C 
BRANCH  24  31
ATOM     30  F   UNL     1      30.762  -4.794 -20.593  0.00  0.00    -0.204 F 
ATOM     31  C   UNL     1      32.616  -8.017 -22.389  0.00  0.00    +0.059 C 
ATOM     32  C   UNL     1      32.991  -7.623 -21.104  0.00  0.00    +0.018 C 
ATOM     33  C   UNL     1      31.614  -7.321 -23.067  0.00  0.00    +0.018 C 
ATOM     34  C   UNL     1      32.365  -6.535 -20.498  0.00  0.00    +0.031 C 
ATOM     35  C   UNL     1      30.988  -6.232 -22.461  0.00  0.00    +0.031 C 
ATOM     36  C   UNL     1      31.364  -5.839 -21.176  0.00  0.00    +0.140 C 
ENDBRANCH  24  31
ENDBRANCH   3  25
TORSDOF 5
ENDMDL
MODEL 2
REMARK VINA RESULT:     -12.4      1.258      1.914
REMARK  Name = 21081761
REMARK  5 active torsions:
REMARK  status: ('A' for Active; 'I' for Inactive)
REMARK    1  A    between atoms: N_2  and  C_6
REMARK    2  A    between atoms: C_3  and  C_25
REMARK    3  A    between atoms: C_7  and  O_12
REMARK    4  A    between atoms: O_12  and  C_16
REMARK    5  A    between atoms: N_24  and  C_31
REMARK                            x       y       z     vdW  Elec       q    Type
REMARK                         _______ _______ _______ _____ _____    ______ ____
ROOT
ATOM      1  O   UNL     1      33.442 -12.368 -25.225  0.00  0.00    -0.270 OA
ATOM      2  N   UNL     1      34.838 -12.769 -23.365  0.00  0.00    -0.280 N 
ATOM      3  C   UNL     1      34.167 -11.992 -24.312  0.00  0.00    +0.254 C 
ATOM      4  H   UNL     1      35.378 -12.278 -22.705  0.00  0.00    +0.155 HD
ENDROOT
BRANCH   2   6
ATOM      5  F   UNL     1      34.771 -17.116 -25.359  0.00  0.00    -0.201 F 
ATOM      6  C   UNL     1      34.836 -14.159 -23.241  0.00  0.00    +0.053 C 
ATOM      7  C   UNL     1      34.831 -16.937 -22.993  0.00  0.00    +0.173 C 
ATOM      8  C   UNL     1      34.804 -14.961 -24.382  0.00  0.00    +0.047 C 
ATOM      9  C   UNL     1      34.867 -14.746 -21.976  0.00  0.00    +0.018 C 
ATOM     10  C   UNL     1      34.800 -16.351 -24.259  0.00  0.00    +0.176 C 
ATOM     11  C   UNL     1      34.863 -16.136 -21.852  0.00  0.00    +0.041 C 
BRANCH   7  12
ATOM     12  O   UNL     1      34.826 -18.314 -22.870  0.00  0.00    -0.451 OA
BRANCH  12  16
ATOM     13  N   UNL     1      34.955 -21.035 -19.094  0.00  0.00    -0.297 N 
ATOM     14  N   UNL     1      37.034 -19.964 -19.670  0.00  0.00    -0.229 NA
ATOM     15  C   UNL     1      34.926 -19.723 -20.901  0.00  0.00    +0.067 C 
ATOM     16  C   UNL     1      35.526 -18.856 -21.829  0.00  0.00    +0.150 C 
ATOM     17  C   UNL     1      35.729 -20.220 -19.878  0.00  0.00    +0.135 C 
ATOM     18  C   UNL     1      33.629 -20.268 -20.708  0.00  0.00    +0.022 C 
ATOM     19  C   UNL     1      33.677 -21.071 -19.590  0.00  0.00    +0.063 C 
ATOM     20  C   UNL     1      36.878 -18.557 -21.661  0.00  0.00    +0.058 C 
ATOM     21  C   UNL     1      37.559 -19.124 -20.593  0.00  0.00    +0.103 C 
ATOM     22  H   UNL     1      35.268 -21.521 -18.297  0.00  0.00    +0.154 HD
ENDBRANCH  12  16
ENDBRANCH   7  12
ENDBRANCH   2   6
BRANCH   3  25
ATOM     23  O   UNL     1      32.424 -10.167 -22.941  0.00  0.00    -0.269 OA
ATOM     24  N   UNL     1      33.859  -8.308 -23.223  0.00  0.00    -0.233 N 
ATOM     25  C   UNL     1      34.405 -10.556 -24.128  0.00  0.00    +0.108 C 
ATOM     26  C   UNL     1      33.470  -9.668 -23.358  0.00  0.00    +0.261 C 
ATOM     27  C   UNL     1      35.016  -7.853 -23.856  0.00  0.00    +0.072 C 
ATOM     28  C   UNL     1      35.503 -10.047 -24.699  0.00  0.00    +0.010 C 
ATOM     29  C   UNL     1      35.814  -8.654 -24.569  0.00  0.00    +0.017 C 
BRANCH  24  31
ATOM     30  F   UNL     1      30.703  -4.799 -20.248  0.00  0.00    -0.204 F 
ATOM     31  C   UNL     1      33.038  -7.396 -22.450  0.00  0.00    +0.059 C 
ATOM     32  C   UNL     1      33.288  -7.217 -21.089  0.00  0.00    +0.018 C 
ATOM     33  C   UNL     1      32.000  -6.698 -23.067  0.00  0.00    +0.018 C 
ATOM     34  C   UNL     1      32.499  -6.339 -20.346  0.00  0.00    +0.031 C 
ATOM     35  C   UNL     1      31.211  -5.820 -22.324  0.00  0.00    +0.031 C 
ATOM     36  C   UNL     1      31.461  -5.641 -20.963  0.00  0.00    +0.140 C 
ENDBRANCH  24  31
ENDBRANCH   3  25
TORSDOF 5
ENDMDL
MODEL 3
REMARK VINA RESULT:     -12.3      1.914      3.029
REMARK  Name = 21081761
REMARK  5 active torsions:
REMARK  status: ('A' for Active; 'I' for Inactive)
REMARK    1  A    between atoms: N_2  and  C_6
REMARK    2  A    between atoms: C_3  and  C_25
REMARK    3  A    between atoms: C_7  and  O_12
REMARK    4  A    between atoms: O_12  and  C_16
REMARK    5  A    between atoms: N_24  and  C_31
REMARK                            x       y       z     vdW  Elec       q    Type
REMARK                         _______ _______ _______ _____ _____    ______ ____
ROOT
ATOM      1  O   UNL     1      31.632 -13.123 -20.672  0.00  0.00    -0.270 OA
ATOM      2  N   UNL     1      33.780 -12.686 -21.546  0.00  0.00    -0.280 N 
ATOM      3  C   UNL     1      32.538 -12.364 -20.994  0.00  0.00    +0.254 C 
ATOM      4  H   UNL     1      34.378 -11.928 -21.739  0.00  0.00    +0.155 HD
ENDROOT
BRANCH   2   6
ATOM      5  F   UNL     1      35.065 -15.955 -24.792  0.00  0.00    -0.201 F 
ATOM      6  C   UNL     1      34.275 -13.952 -21.860  0.00  0.00    +0.053 C 
ATOM      7  C   UNL     1      35.265 -16.484 -22.487  0.00  0.00    +0.173 C 
ATOM      8  C   UNL     1      34.427 -14.332 -23.194  0.00  0.00    +0.047 C 
ATOM      9  C   UNL     1      34.620 -14.838 -20.840  0.00  0.00    +0.018 C 
ATOM     10  C   UNL     1      34.921 -15.598 -23.508  0.00  0.00    +0.176 C 
ATOM     11  C   UNL     1      35.114 -16.105 -21.153  0.00  0.00    +0.041 C 
BRANCH   7  12
ATOM     12  O   UNL     1      35.754 -17.739 -22.797  0.00  0.00    -0.451 OA
BRANCH  12  16
ATOM     13  N   UNL     1      34.213 -20.836 -19.681  0.00  0.00    -0.297 N 
ATOM     14  N   UNL     1      36.574 -20.365 -19.594  0.00  0.00    -0.229 NA
ATOM     15  C   UNL     1      34.984 -19.354 -21.163  0.00  0.00    +0.067 C 
ATOM     16  C   UNL     1      36.002 -18.593 -21.760  0.00  0.00    +0.150 C 
ATOM     17  C   UNL     1      35.344 -20.193 -20.113  0.00  0.00    +0.135 C 
ATOM     18  C   UNL     1      33.585 -19.510 -21.353  0.00  0.00    +0.022 C 
ATOM     19  C   UNL     1      33.138 -20.427 -20.428  0.00  0.00    +0.063 C 
ATOM     20  C   UNL     1      37.296 -18.733 -21.261  0.00  0.00    +0.058 C 
ATOM     21  C   UNL     1      37.514 -19.608 -20.206  0.00  0.00    +0.103 C 
ATOM     22  H   UNL     1      34.177 -21.491 -18.946  0.00  0.00    +0.154 HD
ENDBRANCH  12  16
ENDBRANCH   7  12
ENDBRANCH   2   6
BRANCH   3  25
ATOM     23  O   UNL     1      32.972 -10.348 -22.991  0.00  0.00    -0.269 OA
ATOM     24  N   UNL     1      32.319  -8.563 -21.583  0.00  0.00    -0.233 N 
ATOM     25  C   UNL     1      32.368 -10.919 -20.802  0.00  0.00    +0.108 C 
ATOM     26  C   UNL     1      32.568  -9.923 -21.908  0.00  0.00    +0.261 C 
ATOM     27  C   UNL     1      31.984  -8.213 -20.275  0.00  0.00    +0.072 C 
ATOM     28  C   UNL     1      32.037 -10.507 -19.573  0.00  0.00    +0.010 C 
ATOM     29  C   UNL     1      31.848  -9.114 -19.297  0.00  0.00    +0.017 C 
BRANCH  24  31
ATOM     30  F   UNL     1      32.777  -4.640 -25.524  0.00  0.00    -0.204 F 
ATOM     31  C   UNL     1      32.439  -7.543 -22.608  0.00  0.00    +0.059 C 
ATOM     32  C   UNL     1      31.362  -7.276 -23.454  0.00  0.00    +0.018 C 
ATOM     33  C   UNL     1      33.630  -6.830 -22.747  0.00  0.00    +0.018 C 
ATOM     34  C   UNL     1      31.477  -6.295 -24.439  0.00  0.00    +0.031 C 
ATOM     35  C   UNL     1      33.744  -5.849 -23.732  0.00  0.00    +0.031 C 
ATOM     36  C   UNL     1      32.668  -5.581 -24.578  0.00  0.00    +0.140 C 
ENDBRANCH  24  31
ENDBRANCH   3  25
TORSDOF 5
ENDMDL
MODEL 4
REMARK VINA RESULT:     -12.2      3.295      5.819
REMARK  Name = 21081761
REMARK  5 active torsions:
REMARK  status: ('A' for Active; 'I' for Inactive)
REMARK    1  A    between atoms: N_2  and  C_6
REMARK    2  A    between atoms: C_3  and  C_25
REMARK    3  A    between atoms: C_7  and  O_12
REMARK    4  A    between atoms: O_12  and  C_16
REMARK    5  A    between atoms: N_24  and  C_31
REMARK                            x       y       z     vdW  Elec       q    Type
REMARK                         _______ _______ _______ _____ _____    ______ ____
ROOT
ATOM      1  O   UNL     1      36.626 -17.786 -20.791  0.00  0.00    -0.270 OA
ATOM      2  N   UNL     1      34.630 -18.936 -21.304  0.00  0.00    -0.280 N 
ATOM      3  C   UNL     1      35.595 -17.935 -21.436  0.00  0.00    +0.254 C 
ATOM      4  H   UNL     1      33.865 -18.884 -21.920  0.00  0.00    +0.155 HD
ENDROOT
BRANCH   2   6
ATOM      5  F   UNL     1      36.957 -21.967 -18.428  0.00  0.00    -0.201 F 
ATOM      6  C   UNL     1      34.619 -20.002 -20.404  0.00  0.00    +0.053 C 
ATOM      7  C   UNL     1      34.597 -22.135 -18.606  0.00  0.00    +0.173 C 
ATOM      8  C   UNL     1      35.815 -20.463 -19.853  0.00  0.00    +0.047 C 
ATOM      9  C   UNL     1      33.412 -20.607 -20.054  0.00  0.00    +0.018 C 
ATOM     10  C   UNL     1      35.805 -21.530 -18.954  0.00  0.00    +0.176 C 
ATOM     11  C   UNL     1      33.401 -21.674 -19.156  0.00  0.00    +0.041 C 
BRANCH   7  12
ATOM     12  O   UNL     1      34.585 -23.192 -17.716  0.00  0.00    -0.451 OA
BRANCH  12  16
ATOM     13  N   UNL     1      33.888 -23.461 -13.121  0.00  0.00    -0.297 N 
ATOM     14  N   UNL     1      31.944 -22.912 -14.433  0.00  0.00    -0.229 NA
ATOM     15  C   UNL     1      34.189 -23.324 -15.329  0.00  0.00    +0.067 C 
ATOM     16  C   UNL     1      33.744 -23.105 -16.643  0.00  0.00    +0.150 C 
ATOM     17  C   UNL     1      33.251 -23.211 -14.308  0.00  0.00    +0.135 C 
ATOM     18  C   UNL     1      35.427 -23.655 -14.715  0.00  0.00    +0.022 C 
ATOM     19  C   UNL     1      35.211 -23.732 -13.357  0.00  0.00    +0.063 C 
ATOM     20  C   UNL     1      32.398 -22.791 -16.830  0.00  0.00    +0.058 C 
ATOM     21  C   UNL     1      31.571 -22.712 -15.719  0.00  0.00    +0.103 C 
ATOM     22  H   UNL     1      33.461 -23.448 -12.233  0.00  0.00    +0.154 HD
ENDBRANCH  12  16
ENDBRANCH   7  12
ENDBRANCH   2   6
BRANCH   3  25
ATOM     23  O   UNL     1      34.464 -15.324 -21.047  0.00  0.00    -0.269 OA
ATOM     24  N   UNL     1      34.497 -14.774 -23.347  0.00  0.00    -0.233 N 
ATOM     25  C   UNL     1      35.268 -16.977 -22.498  0.00  0.00    +0.108 C 
ATOM     26  C   UNL     1      34.720 -15.607 -22.218  0.00  0.00    +0.261 C 
ATOM     27  C   UNL     1      34.718 -15.274 -24.631  0.00  0.00    +0.072 C 
ATOM     28  C   UNL     1      35.462 -17.383 -23.759  0.00  0.00    +0.010 C 
ATOM     29  C   UNL     1      35.171 -16.511 -24.858  0.00  0.00    +0.017 C 
BRANCH  24  31
ATOM     30  F   UNL     1      32.658  -9.557 -22.627  0.00  0.00    -0.204 F 
ATOM     31  C   UNL     1      34.019 -13.418 -23.159  0.00  0.00    +0.059 C 
ATOM     32  C   UNL     1      34.469 -12.398 -23.998  0.00  0.00    +0.018 C 
ATOM     33  C   UNL     1      33.109 -13.134 -22.141  0.00  0.00    +0.018 C 
ATOM     34  C   UNL     1      34.009 -11.094 -23.819  0.00  0.00    +0.031 C 
ATOM     35  C   UNL     1      32.648 -11.829 -21.962  0.00  0.00    +0.031 C 
ATOM     36  C   UNL     1      33.098 -10.809 -22.800  0.00  0.00    +0.140 C 
ENDBRANCH  24  31
ENDBRANCH   3  25
TORSDOF 5
ENDMDL
MODEL 5
REMARK VINA RESULT:     -12.2      5.117     12.291
REMARK  Name = 21081761
REMARK  5 active torsions:
REMARK  status: ('A' for Active; 'I' for Inactive)
REMARK    1  A    between atoms: N_2  and  C_6
REMARK    2  A    between atoms: C_3  and  C_25
REMARK    3  A    between atoms: C_7  and  O_12
REMARK    4  A    between atoms: O_12  and  C_16
REMARK    5  A    between atoms: N_24  and  C_31
REMARK                            x       y       z     vdW  Elec       q    Type
REMARK                         _______ _______ _______ _____ _____    ______ ____
ROOT
ATOM      1  O   UNL     1      32.749 -22.088 -19.786  0.00  0.00    -0.270 OA
ATOM      2  N   UNL     1      34.665 -20.913 -19.069  0.00  0.00    -0.280 N 
ATOM      3  C   UNL     1      33.603 -21.812 -18.952  0.00  0.00    +0.254 C 
ATOM      4  H   UNL     1      35.250 -20.829 -18.281  0.00  0.00    +0.155 HD
ENDROOT
BRANCH   2   6
ATOM      5  F   UNL     1      37.886 -18.380 -21.534  0.00  0.00    -0.201 F 
ATOM      6  C   UNL     1      34.999 -20.120 -20.166  0.00  0.00    +0.053 C 
ATOM      7  C   UNL     1      35.667 -18.530 -22.360  0.00  0.00    +0.173 C 
ATOM      8  C   UNL     1      36.300 -19.635 -20.308  0.00  0.00    +0.047 C 
ATOM      9  C   UNL     1      34.033 -19.809 -21.123  0.00  0.00    +0.018 C 
ATOM     10  C   UNL     1      36.634 -18.840 -21.404  0.00  0.00    +0.176 C 
ATOM     11  C   UNL     1      34.366 -19.014 -22.219  0.00  0.00    +0.041 C 
BRANCH   7  12
ATOM     12  O   UNL     1      35.997 -17.742 -23.446  0.00  0.00    -0.451 OA
BRANCH  12  16
ATOM     13  N   UNL     1      33.972 -13.821 -21.962  0.00  0.00    -0.297 N 
ATOM     14  N   UNL     1      33.566 -14.388 -24.267  0.00  0.00    -0.229 NA
ATOM     15  C   UNL     1      34.929 -15.696 -22.705  0.00  0.00    +0.067 C 
ATOM     16  C   UNL     1      35.212 -16.651 -23.695  0.00  0.00    +0.150 C 
ATOM     17  C   UNL     1      34.120 -14.623 -23.063  0.00  0.00    +0.135 C 
ATOM     18  C   UNL     1      35.270 -15.517 -21.337  0.00  0.00    +0.022 C 
ATOM     19  C   UNL     1      34.667 -14.355 -20.907  0.00  0.00    +0.063 C 
ATOM     20  C   UNL     1      34.664 -16.456 -24.962  0.00  0.00    +0.058 C 
ATOM     21  C   UNL     1      33.871 -15.338 -25.182  0.00  0.00    +0.103 C 
ATOM     22  H   UNL     1      33.447 -12.988 -21.932  0.00  0.00    +0.154 HD
ENDBRANCH  12  16
ENDBRANCH   7  12
ENDBRANCH   2   6
BRANCH   3  25
ATOM     23  O   UNL     1      35.895 -22.643 -17.436  0.00  0.00    -0.269 OA
ATOM     24  N   UNL     1      34.619 -23.429 -15.606  0.00  0.00    -0.233 N 
ATOM     25  C   UNL     1      33.568 -22.473 -17.643  0.00  0.00    +0.108 C 
ATOM     26  C   UNL     1      34.812 -22.839 -16.883  0.00  0.00    +0.261 C 
ATOM     27  C   UNL     1      33.327 -23.704 -15.157  0.00  0.00    +0.072 C 
ATOM     28  C   UNL     1      32.361 -22.761 -17.142  0.00  0.00    +0.010 C 
ATOM     29  C   UNL     1      32.235 -23.404 -15.868  0.00  0.00    +0.017 C 
BRANCH  24  31
ATOM     30  F   UNL     1      39.037 -24.719 -12.452  0.00  0.00    -0.204 F 
ATOM     31  C   UNL     1      35.767 -23.764 -14.786  0.00  0.00    +0.059 C 
ATOM     32  C   UNL     1      36.356 -25.025 -14.891  0.00  0.00    +0.018 C 
ATOM     33  C   UNL     1      36.284 -22.826 -13.892  0.00  0.00    +0.018 C 
ATOM     34  C   UNL     1      37.460 -25.347 -14.103  0.00  0.00    +0.031 C 
ATOM     35  C   UNL     1      37.389 -23.148 -13.104  0.00  0.00    +0.031 C 
ATOM     36  C   UNL     1      37.977 -24.408 -13.209  0.00  0.00    +0.140 C 
ENDBRANCH  24  31
ENDBRANCH   3  25
TORSDOF 5
ENDMDL
MODEL 6
REMARK VINA RESULT:     -12.1      2.665     11.459
REMARK  Name = 21081761
REMARK  5 active torsions:
REMARK  status: ('A' for Active; 'I' for Inactive)
REMARK    1  A    between atoms: N_2  and  C_6
REMARK    2  A    between atoms: C_3  and  C_25
REMARK    3  A    between atoms: C_7  and  O_12
REMARK    4  A    between atoms: O_12  and  C_16
REMARK    5  A    between atoms: N_24  and  C_31
REMARK                            x       y       z     vdW  Elec       q    Type
REMARK                         _______ _______ _______ _____ _____    ______ ____
ROOT
ATOM      1  O   UNL     1      34.943 -13.615 -21.331  0.00  0.00    -0.270 OA
ATOM      2  N   UNL     1      34.378 -13.202 -23.584  0.00  0.00    -0.280 N 
ATOM      3  C   UNL     1      34.759 -13.977 -22.486  0.00  0.00    +0.254 C 
ATOM      4  H   UNL     1      34.280 -13.681 -24.439  0.00  0.00    +0.155 HD
ENDROOT
BRANCH   2   6
ATOM      5  F   UNL     1      35.564  -8.784 -24.975  0.00  0.00    -0.201 F 
ATOM      6  C   UNL     1      34.118 -11.832 -23.616  0.00  0.00    +0.053 C 
ATOM      7  C   UNL     1      33.601  -9.092 -23.679  0.00  0.00    +0.173 C 
ATOM      8  C   UNL     1      34.986 -10.973 -24.292  0.00  0.00    +0.047 C 
ATOM      9  C   UNL     1      32.991 -11.320 -22.973  0.00  0.00    +0.018 C 
ATOM     10  C   UNL     1      34.727  -9.603 -24.323  0.00  0.00    +0.176 C 
ATOM     11  C   UNL     1      32.733  -9.950 -23.004  0.00  0.00    +0.041 C 
BRANCH   7  12
ATOM     12  O   UNL     1      33.344  -7.734 -23.709  0.00  0.00    -0.451 OA
BRANCH  12  16
ATOM     13  N   UNL     1      31.499  -4.155 -21.371  0.00  0.00    -0.297 N 
ATOM     14  N   UNL     1      32.504  -5.872 -20.013  0.00  0.00    -0.229 NA
ATOM     15  C   UNL     1      32.393  -5.886 -22.463  0.00  0.00    +0.067 C 
ATOM     16  C   UNL     1      33.065  -7.118 -22.522  0.00  0.00    +0.150 C 
ATOM     17  C   UNL     1      32.158  -5.345 -21.203  0.00  0.00    +0.135 C 
ATOM     18  C   UNL     1      31.851  -4.976 -23.409  0.00  0.00    +0.022 C 
ATOM     19  C   UNL     1      31.308  -3.921 -22.709  0.00  0.00    +0.063 C 
ATOM     20  C   UNL     1      33.446  -7.709 -21.318  0.00  0.00    +0.058 C 
ATOM     21  C   UNL     1      33.147  -7.057 -20.130  0.00  0.00    +0.103 C 
ATOM     22  H   UNL     1      31.207  -3.559 -20.644  0.00  0.00    +0.154 HD
ENDBRANCH  12  16
ENDBRANCH   7  12
ENDBRANCH   2   6
BRANCH   3  25
ATOM     23  O   UNL     1      35.232 -16.112 -20.625  0.00  0.00    -0.269 OA
ATOM     24  N   UNL     1      35.255 -17.793 -22.289  0.00  0.00    -0.233 N 
ATOM     25  C   UNL     1      34.942 -15.391 -22.834  0.00  0.00    +0.108 C 
ATOM     26  C   UNL     1      35.140 -16.464 -21.802  0.00  0.00    +0.261 C 
ATOM     27  C   UNL     1      35.255 -18.030 -23.664  0.00  0.00    +0.072 C 
ATOM     28  C   UNL     1      34.944 -15.698 -24.137  0.00  0.00    +0.010 C 
ATOM     29  C   UNL     1      35.114 -17.054 -24.566  0.00  0.00    +0.017 C 
BRANCH  24  31
ATOM     30  F   UNL     1      35.797 -22.027 -18.696  0.00  0.00    -0.204 F 
ATOM     31  C   UNL     1      35.396 -18.894 -21.355  0.00  0.00    +0.059 C 
ATOM     32  C   UNL     1      34.271 -19.613 -20.950  0.00  0.00    +0.018 C 
ATOM     33  C   UNL     1      36.656 -19.233 -20.861  0.00  0.00    +0.018 C 
ATOM     34  C   UNL     1      34.407 -20.672 -20.053  0.00  0.00    +0.031 C 
ATOM     35  C   UNL     1      36.792 -20.292 -19.964  0.00  0.00    +0.031 C 
ATOM     36  C   UNL     1      35.667 -21.012 -19.559  0.00  0.00    +0.140 C 
ENDBRANCH  24  31
ENDBRANCH   3  25
TORSDOF 5
ENDMDL
MODEL 7
REMARK VINA RESULT:     -11.8      5.295     12.724
REMARK  Name = 21081761
REMARK  5 active torsions:
REMARK  status: ('A' for Active; 'I' for Inactive)
REMARK    1  A    between atoms: N_2  and  C_6
REMARK    2  A    between atoms: C_3  and  C_25
REMARK    3  A    between atoms: C_7  and  O_12
REMARK    4  A    between atoms: O_12  and  C_16
REMARK    5  A    between atoms: N_24  and  C_31
REMARK                            x       y       z     vdW  Elec       q    Type
REMARK                         _______ _______ _______ _____ _____    ______ ____
ROOT
ATOM      1  O   UNL     1      33.714 -23.257 -19.339  0.00  0.00    -0.270 OA
ATOM      2  N   UNL     1      34.741 -21.334 -18.438  0.00  0.00    -0.280 N 
ATOM      3  C   UNL     1      34.102 -22.575 -18.399  0.00  0.00    +0.254 C 
ATOM      4  H   UNL     1      34.977 -20.940 -17.567  0.00  0.00    +0.155 HD
ENDROOT
BRANCH   2   6
ATOM      5  F   UNL     1      38.058 -19.232 -21.168  0.00  0.00    -0.201 F 
ATOM      6  C   UNL     1      35.087 -20.584 -19.562  0.00  0.00    +0.053 C 
ATOM      7  C   UNL     1      35.779 -19.082 -21.809  0.00  0.00    +0.173 C 
ATOM      8  C   UNL     1      36.425 -20.275 -19.811  0.00  0.00    +0.047 C 
ATOM      9  C   UNL     1      34.096 -20.143 -20.439  0.00  0.00    +0.018 C 
ATOM     10  C   UNL     1      36.771 -19.524 -20.934  0.00  0.00    +0.176 C 
ATOM     11  C   UNL     1      34.441 -19.391 -21.561  0.00  0.00    +0.041 C 
BRANCH   7  12
ATOM     12  O   UNL     1      36.120 -18.337 -22.922  0.00  0.00    -0.451 OA
BRANCH  12  16
ATOM     13  N   UNL     1      33.613 -14.834 -24.689  0.00  0.00    -0.297 N 
ATOM     14  N   UNL     1      32.971 -17.038 -25.417  0.00  0.00    -0.229 NA
ATOM     15  C   UNL     1      34.797 -16.536 -23.859  0.00  0.00    +0.067 C 
ATOM     16  C   UNL     1      35.105 -17.900 -23.725  0.00  0.00    +0.150 C 
ATOM     17  C   UNL     1      33.743 -16.198 -24.703  0.00  0.00    +0.135 C 
ATOM     18  C   UNL     1      35.305 -15.321 -23.328  0.00  0.00    +0.022 C 
ATOM     19  C   UNL     1      34.558 -14.291 -23.856  0.00  0.00    +0.063 C 
ATOM     20  C   UNL     1      34.336 -18.814 -24.444  0.00  0.00    +0.058 C 
ATOM     21  C   UNL     1      33.311 -18.337 -25.250  0.00  0.00    +0.103 C 
ATOM     22  H   UNL     1      32.945 -14.321 -25.198  0.00  0.00    +0.154 HD
ENDBRANCH  12  16
ENDBRANCH   7  12
ENDBRANCH   2   6
BRANCH   3  25
ATOM     23  O   UNL     1      36.187 -23.207 -16.528  0.00  0.00    -0.269 OA
ATOM     24  N   UNL     1      34.693 -23.747 -14.776  0.00  0.00    -0.233 N 
ATOM     25  C   UNL     1      33.903 -23.060 -17.028  0.00  0.00    +0.108 C 
ATOM     26  C   UNL     1      35.043 -23.327 -16.087  0.00  0.00    +0.261 C 
ATOM     27  C   UNL     1      33.353 -23.959 -14.451  0.00  0.00    +0.072 C 
ATOM     28  C   UNL     1      32.641 -23.279 -16.641  0.00  0.00    +0.010 C 
ATOM     29  C   UNL     1      32.357 -23.751 -15.318  0.00  0.00    +0.017 C 
BRANCH  24  31
ATOM     30  F   UNL     1      38.688 -24.624 -10.982  0.00  0.00    -0.204 F 
ATOM     31  C   UNL     1      35.732 -23.975 -13.790  0.00  0.00    +0.059 C 
ATOM     32  C   UNL     1      36.111 -22.947 -12.927  0.00  0.00    +0.018 C 
ATOM     33  C   UNL     1      36.351 -25.223 -13.705  0.00  0.00    +0.018 C 
ATOM     34  C   UNL     1      37.110 -23.167 -11.978  0.00  0.00    +0.031 C 
ATOM     35  C   UNL     1      37.349 -25.442 -12.756  0.00  0.00    +0.031 C 
ATOM     36  C   UNL     1      37.729 -24.414 -11.892  0.00  0.00    +0.140 C 
ENDBRANCH  24  31
ENDBRANCH   3  25
TORSDOF 5
ENDMDL
MODEL 8
REMARK VINA RESULT:     -11.8      2.612     11.683
REMARK  Name = 21081761
REMARK  5 active torsions:
REMARK  status: ('A' for Active; 'I' for Inactive)
REMARK    1  A    between atoms: N_2  and  C_6
REMARK    2  A    between atoms: C_3  and  C_25
REMARK    3  A    between atoms: C_7  and  O_12
REMARK    4  A    between atoms: O_12  and  C_16
REMARK    5  A    between atoms: N_24  and  C_31
REMARK                            x       y       z     vdW  Elec       q    Type
REMARK                         _______ _______ _______ _____ _____    ______ ____
ROOT
ATOM      1  O   UNL     1      35.649 -13.784 -21.678  0.00  0.00    -0.270 OA
ATOM      2  N   UNL     1      33.801 -13.670 -23.141  0.00  0.00    -0.280 N 
ATOM      3  C   UNL     1      34.853 -14.288 -22.461  0.00  0.00    +0.254 C 
ATOM      4  H   UNL     1      33.269 -14.248 -23.733  0.00  0.00    +0.155 HD
ENDROOT
BRANCH   2   6
ATOM      5  F   UNL     1      31.375 -10.136 -21.020  0.00  0.00    -0.201 F 
ATOM      6  C   UNL     1      33.414 -12.331 -23.083  0.00  0.00    +0.053 C 
ATOM      7  C   UNL     1      32.637  -9.654 -22.970  0.00  0.00    +0.173 C 
ATOM      8  C   UNL     1      32.572 -11.891 -22.062  0.00  0.00    +0.047 C 
ATOM      9  C   UNL     1      33.868 -11.431 -24.048  0.00  0.00    +0.018 C 
ATOM     10  C   UNL     1      32.183 -10.552 -22.005  0.00  0.00    +0.176 C 
ATOM     11  C   UNL     1      33.479 -10.093 -23.992  0.00  0.00    +0.041 C 
BRANCH   7  12
ATOM     12  O   UNL     1      32.252  -8.328 -22.916  0.00  0.00    -0.451 OA
BRANCH  12  16
ATOM     13  N   UNL     1      33.049  -4.130 -24.765  0.00  0.00    -0.297 N 
ATOM     14  N   UNL     1      35.006  -5.479 -24.376  0.00  0.00    -0.229 NA
ATOM     15  C   UNL     1      32.700  -6.150 -23.879  0.00  0.00    +0.067 C 
ATOM     16  C   UNL     1      33.130  -7.395 -23.391  0.00  0.00    +0.150 C 
ATOM     17  C   UNL     1      33.676  -5.272 -24.340  0.00  0.00    +0.135 C 
ATOM     18  C   UNL     1      31.449  -5.496 -24.040  0.00  0.00    +0.022 C 
ATOM     19  C   UNL     1      31.695  -4.256 -24.588  0.00  0.00    +0.063 C 
ATOM     20  C   UNL     1      34.498  -7.662 -23.405  0.00  0.00    +0.058 C 
ATOM     21  C   UNL     1      35.363  -6.693 -23.896  0.00  0.00    +0.103 C 
ATOM     22  H   UNL     1      33.500  -3.340 -25.141  0.00  0.00    +0.154 HD
ENDBRANCH  12  16
ENDBRANCH   7  12
ENDBRANCH   2   6
BRANCH   3  25
ATOM     23  O   UNL     1      35.201 -16.396 -20.543  0.00  0.00    -0.269 OA
ATOM     24  N   UNL     1      35.133 -18.119 -22.161  0.00  0.00    -0.233 N 
ATOM     25  C   UNL     1      34.957 -15.718 -22.771  0.00  0.00    +0.108 C 
ATOM     26  C   UNL     1      35.092 -16.773 -21.710  0.00  0.00    +0.261 C 
ATOM     27  C   UNL     1      35.123 -18.392 -23.530  0.00  0.00    +0.072 C 
ATOM     28  C   UNL     1      34.945 -16.059 -24.065  0.00  0.00    +0.010 C 
ATOM     29  C   UNL     1      35.040 -17.434 -24.458  0.00  0.00    +0.017 C 
BRANCH  24  31
ATOM     30  F   UNL     1      35.426 -22.281 -18.457  0.00  0.00    -0.204 F 
ATOM     31  C   UNL     1      35.209 -19.201 -21.198  0.00  0.00    +0.059 C 
ATOM     32  C   UNL     1      34.041 -19.808 -20.738  0.00  0.00    +0.018 C 
ATOM     33  C   UNL     1      36.451 -19.634 -20.732  0.00  0.00    +0.018 C 
ATOM     34  C   UNL     1      34.114 -20.849 -19.813  0.00  0.00    +0.031 C 
ATOM     35  C   UNL     1      36.525 -20.675 -19.807  0.00  0.00    +0.031 C 
ATOM     36  C   UNL     1      35.356 -21.282 -19.347  0.00  0.00    +0.140 C 
ENDBRANCH  24  31
ENDBRANCH   3  25
TORSDOF 5
ENDMDL
MODEL 9
REMARK VINA RESULT:     -11.8      2.709     11.153
REMARK  Name = 21081761
REMARK  5 active torsions:
REMARK  status: ('A' for Active; 'I' for Inactive)
REMARK    1  A    between atoms: N_2  and  C_6
REMARK    2  A    between atoms: C_3  and  C_25
REMARK    3  A    between atoms: C_7  and  O_12
REMARK    4  A    between atoms: O_12  and  C_16
REMARK    5  A    between atoms: N_24  and  C_31
REMARK                            x       y       z     vdW  Elec       q    Type
REMARK                         _______ _______ _______ _____ _____    ______ ____
ROOT
ATOM      1  O   UNL     1      35.417 -13.769 -23.441  0.00  0.00    -0.270 OA
ATOM      2  N   UNL     1      33.539 -14.341 -22.132  0.00  0.00    -0.280 N 
ATOM      3  C   UNL     1      34.671 -14.585 -22.913  0.00  0.00    +0.254 C 
ATOM      4  H   UNL     1      33.066 -15.137 -21.795  0.00  0.00    +0.155 HD
ENDROOT
BRANCH   2   6
ATOM      5  F   UNL     1      31.983 -11.312 -18.775  0.00  0.00    -0.201 F 
ATOM      6  C   UNL     1      32.996 -13.108 -21.771  0.00  0.00    +0.053 C 
ATOM      7  C   UNL     1      31.908 -10.643 -21.049  0.00  0.00    +0.173 C 
ATOM      8  C   UNL     1      32.755 -12.818 -20.428  0.00  0.00    +0.047 C 
ATOM      9  C   UNL     1      32.694 -12.165 -22.753  0.00  0.00    +0.018 C 
ATOM     10  C   UNL     1      32.211 -11.585 -20.067  0.00  0.00    +0.176 C 
ATOM     11  C   UNL     1      32.150 -10.932 -22.393  0.00  0.00    +0.041 C 
BRANCH   7  12
ATOM     12  O   UNL     1      31.368  -9.421 -20.693  0.00  0.00    -0.451 OA
BRANCH  12  16
ATOM     13  N   UNL     1      32.261  -6.013 -23.735  0.00  0.00    -0.297 N 
ATOM     14  N   UNL     1      33.554  -5.953 -21.704  0.00  0.00    -0.229 NA
ATOM     15  C   UNL     1      31.856  -7.634 -22.255  0.00  0.00    +0.067 C 
ATOM     16  C   UNL     1      32.067  -8.298 -21.035  0.00  0.00    +0.150 C 
ATOM     17  C   UNL     1      32.621  -6.499 -22.506  0.00  0.00    +0.135 C 
ATOM     18  C   UNL     1      31.015  -7.822 -23.384  0.00  0.00    +0.022 C 
ATOM     19  C   UNL     1      31.286  -6.809 -24.278  0.00  0.00    +0.063 C 
ATOM     20  C   UNL     1      33.023  -7.774 -20.166  0.00  0.00    +0.058 C 
ATOM     21  C   UNL     1      33.715  -6.632 -20.545  0.00  0.00    +0.103 C 
ATOM     22  H   UNL     1      32.644  -5.213 -24.165  0.00  0.00    +0.154 HD
ENDBRANCH  12  16
ENDBRANCH   7  12
ENDBRANCH   2   6
BRANCH   3  25
ATOM     23  O   UNL     1      35.252 -16.437 -20.797  0.00  0.00    -0.269 OA
ATOM     24  N   UNL     1      35.388 -18.309 -22.235  0.00  0.00    -0.233 N 
ATOM     25  C   UNL     1      34.940 -16.017 -23.080  0.00  0.00    +0.108 C 
ATOM     26  C   UNL     1      35.191 -16.938 -21.920  0.00  0.00    +0.261 C 
ATOM     27  C   UNL     1      35.414 -18.717 -23.569  0.00  0.00    +0.072 C 
ATOM     28  C   UNL     1      34.972 -16.485 -24.333  0.00  0.00    +0.010 C 
ATOM     29  C   UNL     1      35.225 -17.872 -24.588  0.00  0.00    +0.017 C 
BRANCH  24  31
ATOM     30  F   UNL     1      36.144 -22.016 -18.135  0.00  0.00    -0.204 F 
ATOM     31  C   UNL     1      35.584 -19.273 -21.169  0.00  0.00    +0.059 C 
ATOM     32  C   UNL     1      36.855 -19.462 -20.625  0.00  0.00    +0.018 C 
ATOM     33  C   UNL     1      34.502 -20.011 -20.688  0.00  0.00    +0.018 C 
ATOM     34  C   UNL     1      37.044 -20.388 -19.600  0.00  0.00    +0.031 C 
ATOM     35  C   UNL     1      34.691 -20.937 -19.662  0.00  0.00    +0.031 C 
ATOM     36  C   UNL     1      35.962 -21.126 -19.118  0.00  0.00    +0.140 C 
ENDBRANCH  24  31
ENDBRANCH   3  25
TORSDOF 5
ENDMDL
