MODEL 1
REMARK VINA RESULT:     -11.7      0.000      0.000
REMARK  Name = 4369498
REMARK  8 active torsions:
REMARK  status: ('A' for Active; 'I' for Inactive)
REMARK    1  A    between atoms: N_2  and  C_11
REMARK    2  A    between atoms: C_5  and  C_25
REMARK    3  A    between atoms: C_8  and  S_14
REMARK    4  A    between atoms: C_13  and  O_23
REMARK    5  A    between atoms: S_14  and  N_17
REMARK    6  A    between atoms: N_17  and  C_19
REMARK    7  A    between atoms: C_19  and  C_20
REMARK    8  A    between atoms: C_26  and  C_32
REMARK                            x       y       z     vdW  Elec       q    Type
REMARK                         _______ _______ _______ _____ _____    ______ ____
ROOT
ATOM      1  O   UNL     1      34.812 -16.357 -22.977  0.00  0.00    -0.424 OA
ATOM      2  N   UNL     1      35.324 -18.347 -21.949  0.00  0.00    -0.265 N 
ATOM      3  N   UNL     1      35.186 -16.267 -20.748  0.00  0.00    -0.193 NA
ATOM      4  C   UNL     1      35.123 -17.016 -21.826  0.00  0.00    +0.293 C 
ATOM      5  C   UNL     1      34.666 -15.064 -22.574  0.00  0.00    +0.168 C 
ATOM      6  C   UNL     1      34.894 -15.014 -21.222  0.00  0.00    +0.141 C 
ATOM      7  H   UNL     1      35.223 -18.699 -22.863  0.00  0.00    +0.157 HD
ENDROOT
BRANCH   2  11
ATOM      8  C   UNL     1      34.998 -21.173 -19.563  0.00  0.00    +0.123 C 
ATOM      9  C   UNL     1      34.684 -20.215 -20.528  0.00  0.00    +0.038 C 
ATOM     10  C   UNL     1      36.289 -21.237 -19.039  0.00  0.00    +0.023 C 
ATOM     11  C   UNL     1      35.660 -19.321 -20.967  0.00  0.00    +0.087 C 
ATOM     12  C   UNL     1      37.266 -20.342 -19.479  0.00  0.00    +0.040 C 
ATOM     13  C   UNL     1      36.951 -19.385 -20.443  0.00  0.00    +0.152 C 
BRANCH   8  14
ATOM     14  S   UNL     1      33.776 -22.291 -19.010  0.00  0.00    +0.060 S 
ATOM     15  O   UNL     1      32.466 -21.671 -19.170  0.00  0.00    -0.153 OA
ATOM     16  O   UNL     1      34.037 -23.580 -19.635  0.00  0.00    -0.153 OA
BRANCH  14  17
ATOM     17  N   UNL     1      34.120 -22.415 -17.340  0.00  0.00    -0.179 NA
ATOM     18  H   UNL     1      33.986 -21.487 -16.941  0.00  0.00    +0.149 HD
BRANCH  17  19
ATOM     19  C   UNL     1      33.356 -23.352 -16.504  0.00  0.00    +0.091 C 
BRANCH  19  20
ATOM     20  C   UNL     1      32.094 -22.720 -16.019  0.00  0.00    +0.017 C 
ATOM     21  C   UNL     1      30.990 -23.593 -15.497  0.00  0.00    +0.001 C 
ATOM     22  C   UNL     1      31.781 -22.737 -14.552  0.00  0.00    +0.001 C 
ENDBRANCH  19  20
ENDBRANCH  17  19
ENDBRANCH  14  17
ENDBRANCH   8  14
BRANCH  13  23
ATOM     23  O   UNL     1      37.919 -18.520 -20.858  0.00  0.00    -0.470 OA
ATOM     24  C   UNL     1      38.252 -18.538 -22.244  0.00  0.00    +0.253 C 
ENDBRANCH  13  23
ENDBRANCH   2  11
BRANCH   5  25
ATOM     25  C   UNL     1      34.327 -14.108 -23.600  0.00  0.00    +0.036 C 
ATOM     26  C   UNL     1      34.116 -11.818 -24.341  0.00  0.00    +0.002 C 
ATOM     27  C   UNL     1      34.443 -12.741 -23.348  0.00  0.00    +0.003 C 
ATOM     28  C   UNL     1      33.885 -14.552 -24.847  0.00  0.00    +0.003 C 
ATOM     29  C   UNL     1      33.673 -12.262 -25.587  0.00  0.00    +0.000 C 
ATOM     30  C   UNL     1      33.558 -13.629 -25.840  0.00  0.00    +0.000 C 
BRANCH  26  32
ATOM     31  N   UNL     1      33.285  -8.389 -23.130  0.00  0.00    -0.242 NA
ATOM     32  C   UNL     1      34.235 -10.401 -24.078  0.00  0.00    +0.019 C 
ATOM     33  C   UNL     1      35.354  -9.686 -24.491  0.00  0.00    +0.003 C 
ATOM     34  C   UNL     1      33.237  -9.711 -23.407  0.00  0.00    +0.099 C 
ATOM     35  C   UNL     1      35.439  -8.324 -24.224  0.00  0.00    +0.021 C 
ATOM     36  C   UNL     1      34.387  -7.728 -23.547  0.00  0.00    +0.099 C 
ENDBRANCH  26  32
ENDBRANCH   5  25
TORSDOF 8
ENDMDL
MODEL 2
REMARK VINA RESULT:     -11.7      3.150      6.128
REMARK  Name = 4369498
REMARK  8 active torsions:
REMARK  status: ('A' for Active; 'I' for Inactive)
REMARK    1  A    between atoms: N_2  and  C_11
REMARK    2  A    between atoms: C_5  and  C_25
REMARK    3  A    between atoms: C_8  and  S_14
REMARK    4  A    between atoms: C_13  and  O_23
REMARK    5  A    between atoms: S_14  and  N_17
REMARK    6  A    between atoms: N_17  and  C_19
REMARK    7  A    between atoms: C_19  and  C_20
REMARK    8  A    between atoms: C_26  and  C_32
REMARK                            x       y       z     vdW  Elec       q    Type
REMARK                         _______ _______ _______ _____ _____    ______ ____
ROOT
ATOM      1  O   UNL     1      33.926 -20.480 -20.247  0.00  0.00    -0.424 OA
ATOM      2  N   UNL     1      33.177 -21.725 -18.467  0.00  0.00    -0.265 N 
ATOM      3  N   UNL     1      35.515 -21.336 -18.884  0.00  0.00    -0.193 NA
ATOM      4  C   UNL     1      34.232 -21.217 -19.144  0.00  0.00    +0.293 C 
ATOM      5  C   UNL     1      35.144 -20.100 -20.725  0.00  0.00    +0.168 C 
ATOM      6  C   UNL     1      36.105 -20.621 -19.895  0.00  0.00    +0.141 C 
ATOM      7  H   UNL     1      32.296 -21.506 -18.848  0.00  0.00    +0.157 HD
ENDROOT
BRANCH   2  11
ATOM      8  C   UNL     1      34.292 -23.898 -15.671  0.00  0.00    +0.123 C 
ATOM      9  C   UNL     1      34.316 -23.106 -16.820  0.00  0.00    +0.038 C 
ATOM     10  C   UNL     1      33.090 -24.109 -14.995  0.00  0.00    +0.023 C 
ATOM     11  C   UNL     1      33.138 -22.528 -17.292  0.00  0.00    +0.087 C 
ATOM     12  C   UNL     1      31.912 -23.531 -15.469  0.00  0.00    +0.040 C 
ATOM     13  C   UNL     1      31.937 -22.740 -16.617  0.00  0.00    +0.152 C 
BRANCH   8  14
ATOM     14  S   UNL     1      35.765 -24.626 -15.079  0.00  0.00    +0.060 S 
ATOM     15  O   UNL     1      35.820 -26.009 -15.534  0.00  0.00    -0.153 OA
ATOM     16  O   UNL     1      36.865 -23.725 -15.399  0.00  0.00    -0.153 OA
BRANCH  14  17
ATOM     17  N   UNL     1      35.527 -24.615 -13.387  0.00  0.00    -0.179 NA
ATOM     18  H   UNL     1      34.654 -25.111 -13.208  0.00  0.00    +0.149 HD
BRANCH  17  19
ATOM     19  C   UNL     1      36.540 -25.209 -12.502  0.00  0.00    +0.091 C 
BRANCH  19  20
ATOM     20  C   UNL     1      37.026 -24.207 -11.508  0.00  0.00    +0.017 C 
ATOM     21  C   UNL     1      38.446 -23.726 -11.585  0.00  0.00    +0.001 C 
ATOM     22  C   UNL     1      37.322 -22.807 -11.962  0.00  0.00    +0.001 C 
ENDBRANCH  19  20
ENDBRANCH  17  19
ENDBRANCH  14  17
ENDBRANCH   8  14
BRANCH  13  23
ATOM     23  O   UNL     1      30.775 -22.184 -17.064  0.00  0.00    -0.470 OA
ATOM     24  C   UNL     1      29.568 -22.618 -16.440  0.00  0.00    +0.253 C 
ENDBRANCH  13  23
ENDBRANCH   2  11
BRANCH   5  25
ATOM     25  C   UNL     1      35.140 -19.289 -21.918  0.00  0.00    +0.036 C 
ATOM     26  C   UNL     1      34.982 -17.124 -22.977  0.00  0.00    +0.002 C 
ATOM     27  C   UNL     1      34.985 -17.906 -21.823  0.00  0.00    +0.003 C 
ATOM     28  C   UNL     1      35.292 -19.889 -23.168  0.00  0.00    +0.003 C 
ATOM     29  C   UNL     1      35.133 -17.724 -24.227  0.00  0.00    +0.000 C 
ATOM     30  C   UNL     1      35.289 -19.107 -24.323  0.00  0.00    +0.000 C 
BRANCH  26  32
ATOM     31  N   UNL     1      34.495 -13.567 -23.990  0.00  0.00    -0.242 NA
ATOM     32  C   UNL     1      34.820 -15.690 -22.878  0.00  0.00    +0.019 C 
ATOM     33  C   UNL     1      34.829 -15.050 -21.644  0.00  0.00    +0.003 C 
ATOM     34  C   UNL     1      34.652 -14.909 -24.012  0.00  0.00    +0.099 C 
ATOM     35  C   UNL     1      34.671 -13.670 -21.581  0.00  0.00    +0.021 C 
ATOM     36  C   UNL     1      34.510 -12.981 -22.773  0.00  0.00    +0.099 C 
ENDBRANCH  26  32
ENDBRANCH   5  25
TORSDOF 8
ENDMDL
MODEL 3
REMARK VINA RESULT:     -11.6      3.577      6.082
REMARK  Name = 4369498
REMARK  8 active torsions:
REMARK  status: ('A' for Active; 'I' for Inactive)
REMARK    1  A    between atoms: N_2  and  C_11
REMARK    2  A    between atoms: C_5  and  C_25
REMARK    3  A    between atoms: C_8  and  S_14
REMARK    4  A    between atoms: C_13  and  O_23
REMARK    5  A    between atoms: S_14  and  N_17
REMARK    6  A    between atoms: N_17  and  C_19
REMARK    7  A    between atoms: C_19  and  C_20
REMARK    8  A    between atoms: C_26  and  C_32
REMARK                            x       y       z     vdW  Elec       q    Type
REMARK                         _______ _______ _______ _____ _____    ______ ____
ROOT
ATOM      1  O   UNL     1      34.374 -20.337 -20.551  0.00  0.00    -0.424 OA
ATOM      2  N   UNL     1      33.959 -21.596 -18.675  0.00  0.00    -0.265 N 
ATOM      3  N   UNL     1      36.135 -20.702 -19.180  0.00  0.00    -0.193 NA
ATOM      4  C   UNL     1      34.858 -20.904 -19.412  0.00  0.00    +0.293 C 
ATOM      5  C   UNL     1      35.464 -19.717 -21.086  0.00  0.00    +0.168 C 
ATOM      6  C   UNL     1      36.529 -19.942 -20.250  0.00  0.00    +0.141 C 
ATOM      7  H   UNL     1      33.047 -21.615 -19.045  0.00  0.00    +0.157 HD
ENDROOT
BRANCH   2  11
ATOM      8  C   UNL     1      35.576 -23.137 -15.709  0.00  0.00    +0.123 C 
ATOM      9  C   UNL     1      35.400 -22.444 -16.908  0.00  0.00    +0.038 C 
ATOM     10  C   UNL     1      34.474 -23.687 -15.054  0.00  0.00    +0.023 C 
ATOM     11  C   UNL     1      34.123 -22.303 -17.450  0.00  0.00    +0.087 C 
ATOM     12  C   UNL     1      33.197 -23.545 -15.597  0.00  0.00    +0.040 C 
ATOM     13  C   UNL     1      33.021 -22.852 -16.795  0.00  0.00    +0.152 C 
BRANCH   8  14
ATOM     14  S   UNL     1      37.175 -23.319 -15.031  0.00  0.00    +0.060 S 
ATOM     15  O   UNL     1      38.116 -22.554 -15.838  0.00  0.00    -0.153 OA
ATOM     16  O   UNL     1      37.083 -23.056 -13.601  0.00  0.00    -0.153 OA
BRANCH  14  17
ATOM     17  N   UNL     1      37.485 -24.984 -15.260  0.00  0.00    -0.179 NA
ATOM     18  H   UNL     1      38.086 -25.062 -16.080  0.00  0.00    +0.149 HD
BRANCH  17  19
ATOM     19  C   UNL     1      38.123 -25.764 -14.189  0.00  0.00    +0.091 C 
BRANCH  19  20
ATOM     20  C   UNL     1      39.497 -25.253 -13.910  0.00  0.00    +0.017 C 
ATOM     21  C   UNL     1      40.659 -26.202 -13.972  0.00  0.00    +0.001 C 
ATOM     22  C   UNL     1      40.486 -25.157 -15.035  0.00  0.00    +0.001 C 
ENDBRANCH  19  20
ENDBRANCH  17  19
ENDBRANCH  14  17
ENDBRANCH   8  14
BRANCH  13  23
ATOM     23  O   UNL     1      31.766 -22.726 -17.309  0.00  0.00    -0.470 OA
ATOM     24  C   UNL     1      30.679 -22.797 -16.388  0.00  0.00    +0.253 C 
ENDBRANCH  13  23
ENDBRANCH   2  11
BRANCH   5  25
ATOM     25  C   UNL     1      35.256 -19.014 -22.327  0.00  0.00    +0.036 C 
ATOM     26  C   UNL     1      34.846 -16.956 -23.526  0.00  0.00    +0.002 C 
ATOM     27  C   UNL     1      35.046 -17.635 -22.324  0.00  0.00    +0.003 C 
ATOM     28  C   UNL     1      35.266 -19.714 -23.535  0.00  0.00    +0.003 C 
ATOM     29  C   UNL     1      34.855 -17.657 -24.732  0.00  0.00    +0.000 C 
ATOM     30  C   UNL     1      35.066 -19.036 -24.737  0.00  0.00    +0.000 C 
BRANCH  26  32
ATOM     31  N   UNL     1      33.902 -13.545 -24.703  0.00  0.00    -0.242 NA
ATOM     32  C   UNL     1      34.627 -15.527 -23.521  0.00  0.00    +0.019 C 
ATOM     33  C   UNL     1      34.907 -14.761 -22.396  0.00  0.00    +0.003 C 
ATOM     34  C   UNL     1      34.130 -14.876 -24.640  0.00  0.00    +0.099 C 
ATOM     35  C   UNL     1      34.687 -13.389 -22.422  0.00  0.00    +0.021 C 
ATOM     36  C   UNL     1      34.187 -12.834 -23.590  0.00  0.00    +0.099 C 
ENDBRANCH  26  32
ENDBRANCH   5  25
TORSDOF 8
ENDMDL
MODEL 4
REMARK VINA RESULT:     -11.6      4.239      6.873
REMARK  Name = 4369498
REMARK  8 active torsions:
REMARK  status: ('A' for Active; 'I' for Inactive)
REMARK    1  A    between atoms: N_2  and  C_11
REMARK    2  A    between atoms: C_5  and  C_25
REMARK    3  A    between atoms: C_8  and  S_14
REMARK    4  A    between atoms: C_13  and  O_23
REMARK    5  A    between atoms: S_14  and  N_17
REMARK    6  A    between atoms: N_17  and  C_19
REMARK    7  A    between atoms: C_19  and  C_20
REMARK    8  A    between atoms: C_26  and  C_32
REMARK                            x       y       z     vdW  Elec       q    Type
REMARK                         _______ _______ _______ _____ _____    ______ ____
ROOT
ATOM      1  O   UNL     1      36.421 -20.876 -18.505  0.00  0.00    -0.424 OA
ATOM      2  N   UNL     1      36.282 -22.113 -16.573  0.00  0.00    -0.265 N 
ATOM      3  N   UNL     1      34.628 -22.243 -18.316  0.00  0.00    -0.193 NA
ATOM      4  C   UNL     1      35.734 -21.792 -17.767  0.00  0.00    +0.293 C 
ATOM      5  C   UNL     1      35.665 -20.742 -19.630  0.00  0.00    +0.168 C 
ATOM      6  C   UNL     1      34.579 -21.572 -19.511  0.00  0.00    +0.141 C 
ATOM      7  H   UNL     1      37.124 -21.646 -16.366  0.00  0.00    +0.157 HD
ENDROOT
BRANCH   2  11
ATOM      8  C   UNL     1      34.027 -23.948 -14.265  0.00  0.00    +0.123 C 
ATOM      9  C   UNL     1      34.479 -23.068 -15.250  0.00  0.00    +0.038 C 
ATOM     10  C   UNL     1      34.932 -24.776 -13.602  0.00  0.00    +0.023 C 
ATOM     11  C   UNL     1      35.835 -23.017 -15.569  0.00  0.00    +0.087 C 
ATOM     12  C   UNL     1      36.289 -24.725 -13.922  0.00  0.00    +0.040 C 
ATOM     13  C   UNL     1      36.740 -23.846 -14.906  0.00  0.00    +0.152 C 
BRANCH   8  14
ATOM     14  S   UNL     1      32.329 -24.010 -13.861  0.00  0.00    +0.060 S 
ATOM     15  O   UNL     1      31.904 -25.404 -13.836  0.00  0.00    -0.153 OA
ATOM     16  O   UNL     1      32.122 -23.180 -12.682  0.00  0.00    -0.153 OA
BRANCH  14  17
ATOM     17  N   UNL     1      31.603 -23.241 -15.203  0.00  0.00    -0.179 NA
ATOM     18  H   UNL     1      32.279 -23.276 -15.965  0.00  0.00    +0.149 HD
BRANCH  17  19
ATOM     19  C   UNL     1      30.332 -23.750 -15.739  0.00  0.00    +0.091 C 
BRANCH  19  20
ATOM     20  C   UNL     1      29.432 -22.624 -16.125  0.00  0.00    +0.017 C 
ATOM     21  C   UNL     1      28.152 -22.924 -16.850  0.00  0.00    +0.001 C 
ATOM     22  C   UNL     1      28.115 -22.464 -15.423  0.00  0.00    +0.001 C 
ENDBRANCH  19  20
ENDBRANCH  17  19
ENDBRANCH  14  17
ENDBRANCH   8  14
BRANCH  13  23
ATOM     23  O   UNL     1      38.070 -23.810 -15.203  0.00  0.00    -0.470 OA
ATOM     24  C   UNL     1      38.896 -24.801 -14.595  0.00  0.00    +0.253 C 
ENDBRANCH  13  23
ENDBRANCH   2  11
BRANCH   5  25
ATOM     25  C   UNL     1      36.151 -19.815 -20.622  0.00  0.00    +0.036 C 
ATOM     26  C   UNL     1      35.754 -18.404 -22.543  0.00  0.00    +0.002 C 
ATOM     27  C   UNL     1      35.283 -19.301 -21.585  0.00  0.00    +0.003 C 
ATOM     28  C   UNL     1      37.493 -19.430 -20.617  0.00  0.00    +0.003 C 
ATOM     29  C   UNL     1      37.096 -18.020 -22.538  0.00  0.00    +0.000 C 
ATOM     30  C   UNL     1      37.965 -18.533 -21.575  0.00  0.00    +0.000 C 
BRANCH  26  32
ATOM     31  N   UNL     1      33.090 -18.263 -25.150  0.00  0.00    -0.242 NA
ATOM     32  C   UNL     1      34.854 -17.873 -23.542  0.00  0.00    +0.019 C 
ATOM     33  C   UNL     1      34.859 -16.521 -23.867  0.00  0.00    +0.003 C 
ATOM     34  C   UNL     1      33.957 -18.695 -24.207  0.00  0.00    +0.099 C 
ATOM     35  C   UNL     1      33.982 -16.040 -24.832  0.00  0.00    +0.021 C 
ATOM     36  C   UNL     1      33.125 -16.944 -25.438  0.00  0.00    +0.099 C 
ENDBRANCH  26  32
ENDBRANCH   5  25
TORSDOF 8
ENDMDL
MODEL 5
REMARK VINA RESULT:     -11.3      3.212      5.911
REMARK  Name = 4369498
REMARK  8 active torsions:
REMARK  status: ('A' for Active; 'I' for Inactive)
REMARK    1  A    between atoms: N_2  and  C_11
REMARK    2  A    between atoms: C_5  and  C_25
REMARK    3  A    between atoms: C_8  and  S_14
REMARK    4  A    between atoms: C_13  and  O_23
REMARK    5  A    between atoms: S_14  and  N_17
REMARK    6  A    between atoms: N_17  and  C_19
REMARK    7  A    between atoms: C_19  and  C_20
REMARK    8  A    between atoms: C_26  and  C_32
REMARK                            x       y       z     vdW  Elec       q    Type
REMARK                         _______ _______ _______ _____ _____    ______ ____
ROOT
ATOM      1  O   UNL     1      33.488 -11.199 -22.725  0.00  0.00    -0.424 OA
ATOM      2  N   UNL     1      34.172 -13.229 -23.554  0.00  0.00    -0.265 N 
ATOM      3  N   UNL     1      32.368 -13.015 -21.977  0.00  0.00    -0.193 NA
ATOM      4  C   UNL     1      33.326 -12.550 -22.746  0.00  0.00    +0.293 C 
ATOM      5  C   UNL     1      32.531 -10.776 -21.852  0.00  0.00    +0.168 C 
ATOM      6  C   UNL     1      31.854 -11.882 -21.401  0.00  0.00    +0.141 C 
ATOM      7  H   UNL     1      34.817 -12.669 -24.043  0.00  0.00    +0.157 HD
ENDROOT
BRANCH   2  11
ATOM      8  C   UNL     1      35.065 -16.809 -23.135  0.00  0.00    +0.123 C 
ATOM      9  C   UNL     1      34.951 -15.438 -22.896  0.00  0.00    +0.038 C 
ATOM     10  C   UNL     1      34.506 -17.365 -24.286  0.00  0.00    +0.023 C 
ATOM     11  C   UNL     1      34.279 -14.626 -23.808  0.00  0.00    +0.087 C 
ATOM     12  C   UNL     1      33.834 -16.551 -25.198  0.00  0.00    +0.040 C 
ATOM     13  C   UNL     1      33.720 -15.182 -24.959  0.00  0.00    +0.152 C 
BRANCH   8  14
ATOM     14  S   UNL     1      35.909 -17.827 -21.995  0.00  0.00    +0.060 S 
ATOM     15  O   UNL     1      37.207 -18.182 -22.555  0.00  0.00    -0.153 OA
ATOM     16  O   UNL     1      35.847 -17.181 -20.691  0.00  0.00    -0.153 OA
BRANCH  14  17
ATOM     17  N   UNL     1      34.929 -19.227 -21.956  0.00  0.00    -0.179 NA
ATOM     18  H   UNL     1      35.432 -19.954 -22.466  0.00  0.00    +0.149 HD
BRANCH  17  19
ATOM     19  C   UNL     1      34.536 -19.810 -20.665  0.00  0.00    +0.091 C 
BRANCH  19  20
ATOM     20  C   UNL     1      35.410 -20.969 -20.319  0.00  0.00    +0.017 C 
ATOM     21  C   UNL     1      36.432 -20.817 -19.230  0.00  0.00    +0.001 C 
ATOM     22  C   UNL     1      35.216 -21.667 -19.005  0.00  0.00    +0.001 C 
ENDBRANCH  19  20
ENDBRANCH  17  19
ENDBRANCH  14  17
ENDBRANCH   8  14
BRANCH  13  23
ATOM     23  O   UNL     1      33.061 -14.404 -25.864  0.00  0.00    -0.470 OA
ATOM     24  C   UNL     1      33.794 -13.331 -26.451  0.00  0.00    +0.253 C 
ENDBRANCH  13  23
ENDBRANCH   2  11
BRANCH   5  25
ATOM     25  C   UNL     1      32.458  -9.355 -21.620  0.00  0.00    +0.036 C 
ATOM     26  C   UNL     1      32.715  -7.088 -22.415  0.00  0.00    +0.002 C 
ATOM     27  C   UNL     1      32.787  -8.462 -22.640  0.00  0.00    +0.003 C 
ATOM     28  C   UNL     1      32.055  -8.872 -20.375  0.00  0.00    +0.003 C 
ATOM     29  C   UNL     1      32.314  -6.606 -21.169  0.00  0.00    +0.000 C 
ATOM     30  C   UNL     1      31.983  -7.498 -20.149  0.00  0.00    +0.000 C 
BRANCH  26  32
ATOM     31  N   UNL     1      32.340  -4.502 -25.077  0.00  0.00    -0.242 NA
ATOM     32  C   UNL     1      33.058  -6.162 -23.472  0.00  0.00    +0.019 C 
ATOM     33  C   UNL     1      34.371  -6.024 -23.907  0.00  0.00    +0.003 C 
ATOM     34  C   UNL     1      32.088  -5.384 -24.085  0.00  0.00    +0.099 C 
ATOM     35  C   UNL     1      34.670  -5.126 -24.925  0.00  0.00    +0.021 C 
ATOM     36  C   UNL     1      33.627  -4.395 -25.472  0.00  0.00    +0.099 C 
ENDBRANCH  26  32
ENDBRANCH   5  25
TORSDOF 8
ENDMDL
MODEL 6
REMARK VINA RESULT:     -11.2      4.590     10.863
REMARK  Name = 4369498
REMARK  8 active torsions:
REMARK  status: ('A' for Active; 'I' for Inactive)
REMARK    1  A    between atoms: N_2  and  C_11
REMARK    2  A    between atoms: C_5  and  C_25
REMARK    3  A    between atoms: C_8  and  S_14
REMARK    4  A    between atoms: C_13  and  O_23
REMARK    5  A    between atoms: S_14  and  N_17
REMARK    6  A    between atoms: N_17  and  C_19
REMARK    7  A    between atoms: C_19  and  C_20
REMARK    8  A    between atoms: C_26  and  C_32
REMARK                            x       y       z     vdW  Elec       q    Type
REMARK                         _______ _______ _______ _____ _____    ______ ____
ROOT
ATOM      1  O   UNL     1      34.593 -13.682 -23.983  0.00  0.00    -0.424 OA
ATOM      2  N   UNL     1      34.398 -11.415 -24.303  0.00  0.00    -0.265 N 
ATOM      3  N   UNL     1      34.566 -12.405 -22.117  0.00  0.00    -0.193 NA
ATOM      4  C   UNL     1      34.516 -12.441 -23.429  0.00  0.00    +0.293 C 
ATOM      5  C   UNL     1      34.703 -14.506 -22.903  0.00  0.00    +0.168 C 
ATOM      6  C   UNL     1      34.685 -13.727 -21.774  0.00  0.00    +0.141 C 
ATOM      7  H   UNL     1      34.382 -11.680 -25.252  0.00  0.00    +0.157 HD
ENDROOT
BRANCH   2  11
ATOM      8  C   UNL     1      32.999  -8.125 -23.304  0.00  0.00    +0.123 C 
ATOM      9  C   UNL     1      33.115  -9.497 -23.535  0.00  0.00    +0.038 C 
ATOM     10  C   UNL     1      34.061  -7.274 -23.608  0.00  0.00    +0.023 C 
ATOM     11  C   UNL     1      34.294 -10.015 -24.070  0.00  0.00    +0.087 C 
ATOM     12  C   UNL     1      35.240  -7.793 -24.144  0.00  0.00    +0.040 C 
ATOM     13  C   UNL     1      35.356  -9.164 -24.375  0.00  0.00    +0.152 C 
BRANCH   8  14
ATOM     14  S   UNL     1      31.522  -7.474 -22.636  0.00  0.00    +0.060 S 
ATOM     15  O   UNL     1      31.254  -6.184 -23.260  0.00  0.00    -0.153 OA
ATOM     16  O   UNL     1      30.509  -8.519 -22.695  0.00  0.00    -0.153 OA
BRANCH  14  17
ATOM     17  N   UNL     1      31.942  -7.213 -21.000  0.00  0.00    -0.179 NA
ATOM     18  H   UNL     1      31.074  -7.021 -20.500  0.00  0.00    +0.149 HD
BRANCH  17  19
ATOM     19  C   UNL     1      32.641  -8.265 -20.248  0.00  0.00    +0.091 C 
BRANCH  19  20
ATOM     20  C   UNL     1      31.669  -9.238 -19.670  0.00  0.00    +0.017 C 
ATOM     21  C   UNL     1      31.682 -10.661 -20.150  0.00  0.00    +0.001 C 
ATOM     22  C   UNL     1      32.170 -10.330 -18.771  0.00  0.00    +0.001 C 
ENDBRANCH  19  20
ENDBRANCH  17  19
ENDBRANCH  14  17
ENDBRANCH   8  14
BRANCH  13  23
ATOM     23  O   UNL     1      36.516  -9.651 -24.900  0.00  0.00    -0.470 OA
ATOM     24  C   UNL     1      36.625  -9.668 -26.322  0.00  0.00    +0.253 C 
ENDBRANCH  13  23
ENDBRANCH   2  11
BRANCH   5  25
ATOM     25  C   UNL     1      34.804 -15.917 -23.182  0.00  0.00    +0.036 C 
ATOM     26  C   UNL     1      35.222 -18.175 -22.431  0.00  0.00    +0.002 C 
ATOM     27  C   UNL     1      35.125 -16.811 -22.161  0.00  0.00    +0.003 C 
ATOM     28  C   UNL     1      34.579 -16.390 -24.476  0.00  0.00    +0.003 C 
ATOM     29  C   UNL     1      34.998 -18.647 -23.725  0.00  0.00    +0.000 C 
ATOM     30  C   UNL     1      34.676 -17.754 -24.747  0.00  0.00    +0.000 C 
BRANCH  26  32
ATOM     31  N   UNL     1      37.213 -19.987 -19.848  0.00  0.00    -0.242 NA
ATOM     32  C   UNL     1      35.556 -19.102 -21.371  0.00  0.00    +0.019 C 
ATOM     33  C   UNL     1      34.606 -19.975 -20.855  0.00  0.00    +0.003 C 
ATOM     34  C   UNL     1      36.835 -19.147 -20.838  0.00  0.00    +0.099 C 
ATOM     35  C   UNL     1      34.957 -20.854 -19.837  0.00  0.00    +0.021 C 
ATOM     36  C   UNL     1      36.262 -20.820 -19.373  0.00  0.00    +0.099 C 
ENDBRANCH  26  32
ENDBRANCH   5  25
TORSDOF 8
ENDMDL
MODEL 7
REMARK VINA RESULT:     -11.1      4.375     11.885
REMARK  Name = 4369498
REMARK  8 active torsions:
REMARK  status: ('A' for Active; 'I' for Inactive)
REMARK    1  A    between atoms: N_2  and  C_11
REMARK    2  A    between atoms: C_5  and  C_25
REMARK    3  A    between atoms: C_8  and  S_14
REMARK    4  A    between atoms: C_13  and  O_23
REMARK    5  A    between atoms: S_14  and  N_17
REMARK    6  A    between atoms: N_17  and  C_19
REMARK    7  A    between atoms: C_19  and  C_20
REMARK    8  A    between atoms: C_26  and  C_32
REMARK                            x       y       z     vdW  Elec       q    Type
REMARK                         _______ _______ _______ _____ _____    ______ ____
ROOT
ATOM      1  O   UNL     1      34.741 -14.023 -23.828  0.00  0.00    -0.424 OA
ATOM      2  N   UNL     1      34.563 -11.755 -24.151  0.00  0.00    -0.265 N 
ATOM      3  N   UNL     1      34.485 -12.763 -21.968  0.00  0.00    -0.193 NA
ATOM      4  C   UNL     1      34.588 -12.787 -23.277  0.00  0.00    +0.293 C 
ATOM      5  C   UNL     1      34.732 -14.856 -22.750  0.00  0.00    +0.168 C 
ATOM      6  C   UNL     1      34.576 -14.087 -21.624  0.00  0.00    +0.141 C 
ATOM      7  H   UNL     1      34.660 -12.011 -25.097  0.00  0.00    +0.157 HD
ENDROOT
BRANCH   2  11
ATOM      8  C   UNL     1      33.158  -8.524 -22.980  0.00  0.00    +0.123 C 
ATOM      9  C   UNL     1      33.313  -9.892 -23.211  0.00  0.00    +0.038 C 
ATOM     10  C   UNL     1      34.111  -7.624 -23.459  0.00  0.00    +0.023 C 
ATOM     11  C   UNL     1      34.420 -10.358 -23.921  0.00  0.00    +0.087 C 
ATOM     12  C   UNL     1      35.217  -8.091 -24.169  0.00  0.00    +0.040 C 
ATOM     13  C   UNL     1      35.372  -9.458 -24.399  0.00  0.00    +0.152 C 
BRANCH   8  14
ATOM     14  S   UNL     1      31.772  -7.939 -22.095  0.00  0.00    +0.060 S 
ATOM     15  O   UNL     1      30.720  -7.597 -23.044  0.00  0.00    -0.153 OA
ATOM     16  O   UNL     1      31.490  -8.892 -21.030  0.00  0.00    -0.153 OA
BRANCH  14  17
ATOM     17  N   UNL     1      32.365  -6.497 -21.393  0.00  0.00    -0.179 NA
ATOM     18  H   UNL     1      33.323  -6.381 -21.724  0.00  0.00    +0.149 HD
BRANCH  17  19
ATOM     19  C   UNL     1      31.672  -5.224 -21.641  0.00  0.00    +0.091 C 
BRANCH  19  20
ATOM     20  C   UNL     1      32.428  -4.393 -22.623  0.00  0.00    +0.017 C 
ATOM     21  C   UNL     1      31.922  -4.283 -24.032  0.00  0.00    +0.001 C 
ATOM     22  C   UNL     1      31.829  -3.105 -23.108  0.00  0.00    +0.001 C 
ENDBRANCH  19  20
ENDBRANCH  17  19
ENDBRANCH  14  17
ENDBRANCH   8  14
BRANCH  13  23
ATOM     23  O   UNL     1      36.459  -9.893 -25.096  0.00  0.00    -0.470 OA
ATOM     24  C   UNL     1      36.467  -9.651 -26.501  0.00  0.00    +0.253 C 
ENDBRANCH  13  23
ENDBRANCH   2  11
BRANCH   5  25
ATOM     25  C   UNL     1      34.878 -16.264 -23.027  0.00  0.00    +0.036 C 
ATOM     26  C   UNL     1      35.136 -18.535 -22.245  0.00  0.00    +0.002 C 
ATOM     27  C   UNL     1      34.995 -17.174 -21.977  0.00  0.00    +0.003 C 
ATOM     28  C   UNL     1      34.901 -16.716 -24.347  0.00  0.00    +0.003 C 
ATOM     29  C   UNL     1      35.160 -18.986 -23.565  0.00  0.00    +0.000 C 
ATOM     30  C   UNL     1      35.042 -18.077 -24.616  0.00  0.00    +0.000 C 
BRANCH  26  32
ATOM     31  N   UNL     1      36.674 -20.618 -19.560  0.00  0.00    -0.242 NA
ATOM     32  C   UNL     1      35.259 -19.479 -21.156  0.00  0.00    +0.019 C 
ATOM     33  C   UNL     1      34.146 -20.144 -20.654  0.00  0.00    +0.003 C 
ATOM     34  C   UNL     1      36.490 -19.749 -20.579  0.00  0.00    +0.099 C 
ATOM     35  C   UNL     1      34.296 -21.046 -19.606  0.00  0.00    +0.021 C 
ATOM     36  C   UNL     1      35.570 -21.246 -19.099  0.00  0.00    +0.099 C 
ENDBRANCH  26  32
ENDBRANCH   5  25
TORSDOF 8
ENDMDL
MODEL 8
REMARK VINA RESULT:     -11.0      5.799     12.590
REMARK  Name = 4369498
REMARK  8 active torsions:
REMARK  status: ('A' for Active; 'I' for Inactive)
REMARK    1  A    between atoms: N_2  and  C_11
REMARK    2  A    between atoms: C_5  and  C_25
REMARK    3  A    between atoms: C_8  and  S_14
REMARK    4  A    between atoms: C_13  and  O_23
REMARK    5  A    between atoms: S_14  and  N_17
REMARK    6  A    between atoms: N_17  and  C_19
REMARK    7  A    between atoms: C_19  and  C_20
REMARK    8  A    between atoms: C_26  and  C_32
REMARK                            x       y       z     vdW  Elec       q    Type
REMARK                         _______ _______ _______ _____ _____    ______ ____
ROOT
ATOM      1  O   UNL     1      32.990 -11.479 -23.020  0.00  0.00    -0.424 OA
ATOM      2  N   UNL     1      32.405  -9.526 -21.959  0.00  0.00    -0.265 N 
ATOM      3  N   UNL     1      34.195  -9.643 -23.563  0.00  0.00    -0.193 NA
ATOM      4  C   UNL     1      33.216 -10.147 -22.846  0.00  0.00    +0.293 C 
ATOM      5  C   UNL     1      33.925 -11.843 -23.942  0.00  0.00    +0.168 C 
ATOM      6  C   UNL     1      34.653 -10.726 -24.268  0.00  0.00    +0.141 C 
ATOM      7  H   UNL     1      31.734 -10.108 -21.534  0.00  0.00    +0.157 HD
ENDROOT
BRANCH   2  11
ATOM      8  C   UNL     1      31.986  -5.839 -22.074  0.00  0.00    +0.123 C 
ATOM      9  C   UNL     1      32.024  -7.178 -22.467  0.00  0.00    +0.038 C 
ATOM     10  C   UNL     1      32.291  -5.490 -20.758  0.00  0.00    +0.023 C 
ATOM     11  C   UNL     1      32.367  -8.165 -21.544  0.00  0.00    +0.087 C 
ATOM     12  C   UNL     1      32.634  -6.479 -19.835  0.00  0.00    +0.040 C 
ATOM     13  C   UNL     1      32.672  -7.816 -20.228  0.00  0.00    +0.152 C 
BRANCH   8  14
ATOM     14  S   UNL     1      31.560  -4.601 -23.229  0.00  0.00    +0.060 S 
ATOM     15  O   UNL     1      30.975  -5.236 -24.403  0.00  0.00    -0.153 OA
ATOM     16  O   UNL     1      30.806  -3.574 -22.522  0.00  0.00    -0.153 OA
BRANCH  14  17
ATOM     17  N   UNL     1      33.085  -3.958 -23.658  0.00  0.00    -0.179 NA
ATOM     18  H   UNL     1      33.789  -4.557 -23.229  0.00  0.00    +0.149 HD
BRANCH  17  19
ATOM     19  C   UNL     1      33.449  -3.822 -25.076  0.00  0.00    +0.091 C 
BRANCH  19  20
ATOM     20  C   UNL     1      34.077  -5.078 -25.583  0.00  0.00    +0.017 C 
ATOM     21  C   UNL     1      35.529  -5.070 -25.965  0.00  0.00    +0.001 C 
ATOM     22  C   UNL     1      35.082  -5.792 -24.728  0.00  0.00    +0.001 C 
ENDBRANCH  19  20
ENDBRANCH  17  19
ENDBRANCH  14  17
ENDBRANCH   8  14
BRANCH  13  23
ATOM     23  O   UNL     1      33.011  -8.766 -19.312  0.00  0.00    -0.470 OA
ATOM     24  C   UNL     1      32.019  -9.741 -18.994  0.00  0.00    +0.253 C 
ENDBRANCH  13  23
ENDBRANCH   2  11
BRANCH   5  25
ATOM     25  C   UNL     1      33.931 -13.230 -24.335  0.00  0.00    +0.036 C 
ATOM     26  C   UNL     1      34.538 -15.528 -23.896  0.00  0.00    +0.002 C 
ATOM     27  C   UNL     1      34.533 -14.186 -23.516  0.00  0.00    +0.003 C 
ATOM     28  C   UNL     1      33.333 -13.618 -25.534  0.00  0.00    +0.003 C 
ATOM     29  C   UNL     1      33.940 -15.914 -25.096  0.00  0.00    +0.000 C 
ATOM     30  C   UNL     1      33.338 -14.959 -25.915  0.00  0.00    +0.000 C 
BRANCH  26  32
ATOM     31  N   UNL     1      35.801 -17.227 -20.825  0.00  0.00    -0.242 NA
ATOM     32  C   UNL     1      35.163 -16.518 -23.047  0.00  0.00    +0.019 C 
ATOM     33  C   UNL     1      35.713 -17.677 -23.582  0.00  0.00    +0.003 C 
ATOM     34  C   UNL     1      35.232 -16.342 -21.674  0.00  0.00    +0.099 C 
ATOM     35  C   UNL     1      36.307 -18.611 -22.741  0.00  0.00    +0.021 C 
ATOM     36  C   UNL     1      36.325 -18.341 -21.382  0.00  0.00    +0.099 C 
ENDBRANCH  26  32
ENDBRANCH   5  25
TORSDOF 8
ENDMDL
MODEL 9
REMARK VINA RESULT:     -10.7      2.833      5.051
REMARK  Name = 4369498
REMARK  8 active torsions:
REMARK  status: ('A' for Active; 'I' for Inactive)
REMARK    1  A    between atoms: N_2  and  C_11
REMARK    2  A    between atoms: C_5  and  C_25
REMARK    3  A    between atoms: C_8  and  S_14
REMARK    4  A    between atoms: C_13  and  O_23
REMARK    5  A    between atoms: S_14  and  N_17
REMARK    6  A    between atoms: N_17  and  C_19
REMARK    7  A    between atoms: C_19  and  C_20
REMARK    8  A    between atoms: C_26  and  C_32
REMARK                            x       y       z     vdW  Elec       q    Type
REMARK                         _______ _______ _______ _____ _____    ______ ____
ROOT
ATOM      1  O   UNL     1      34.762 -12.250 -24.062  0.00  0.00    -0.424 OA
ATOM      2  N   UNL     1      35.043 -14.527 -24.187  0.00  0.00    -0.265 N 
ATOM      3  N   UNL     1      33.469 -13.497 -22.687  0.00  0.00    -0.193 NA
ATOM      4  C   UNL     1      34.399 -13.484 -23.615  0.00  0.00    +0.293 C 
ATOM      5  C   UNL     1      33.977 -11.405 -23.336  0.00  0.00    +0.168 C 
ATOM      6  C   UNL     1      33.195 -12.166 -22.503  0.00  0.00    +0.141 C 
ATOM      7  H   UNL     1      35.708 -14.279 -24.869  0.00  0.00    +0.157 HD
ENDROOT
BRANCH   2  11
ATOM      8  C   UNL     1      35.532 -17.896 -22.707  0.00  0.00    +0.123 C 
ATOM      9  C   UNL     1      35.649 -16.525 -22.939  0.00  0.00    +0.038 C 
ATOM     10  C   UNL     1      34.677 -18.666 -23.495  0.00  0.00    +0.023 C 
ATOM     11  C   UNL     1      34.912 -15.926 -23.960  0.00  0.00    +0.087 C 
ATOM     12  C   UNL     1      33.940 -18.067 -24.516  0.00  0.00    +0.040 C 
ATOM     13  C   UNL     1      34.057 -16.696 -24.748  0.00  0.00    +0.152 C 
BRANCH   8  14
ATOM     14  S   UNL     1      36.458 -18.649 -21.431  0.00  0.00    +0.060 S 
ATOM     15  O   UNL     1      37.762 -19.029 -21.960  0.00  0.00    -0.153 OA
ATOM     16  O   UNL     1      36.387 -17.784 -20.261  0.00  0.00    -0.153 OA
BRANCH  14  17
ATOM     17  N   UNL     1      35.561 -20.069 -21.115  0.00  0.00    -0.179 NA
ATOM     18  H   UNL     1      35.734 -20.707 -21.891  0.00  0.00    +0.149 HD
BRANCH  17  19
ATOM     19  C   UNL     1      35.805 -20.828 -19.879  0.00  0.00    +0.091 C 
BRANCH  19  20
ATOM     20  C   UNL     1      34.734 -21.844 -19.663  0.00  0.00    +0.017 C 
ATOM     21  C   UNL     1      34.298 -22.164 -18.262  0.00  0.00    +0.001 C 
ATOM     22  C   UNL     1      33.387 -21.397 -19.174  0.00  0.00    +0.001 C 
ENDBRANCH  19  20
ENDBRANCH  17  19
ENDBRANCH  14  17
ENDBRANCH   8  14
BRANCH  13  23
ATOM     23  O   UNL     1      33.329 -16.130 -25.751  0.00  0.00    -0.470 OA
ATOM     24  C   UNL     1      32.148 -16.817 -26.162  0.00  0.00    +0.253 C 
ENDBRANCH  13  23
ENDBRANCH   2  11
BRANCH   5  25
ATOM     25  C   UNL     1      34.142  -9.996 -23.595  0.00  0.00    +0.036 C 
ATOM     26  C   UNL     1      33.453  -7.708 -23.241  0.00  0.00    +0.002 C 
ATOM     27  C   UNL     1      33.293  -9.070 -22.990  0.00  0.00    +0.003 C 
ATOM     28  C   UNL     1      35.153  -9.559 -24.451  0.00  0.00    +0.003 C 
ATOM     29  C   UNL     1      34.464  -7.271 -24.097  0.00  0.00    +0.000 C 
ATOM     30  C   UNL     1      35.315  -8.197 -24.702  0.00  0.00    +0.000 C 
BRANCH  26  32
ATOM     31  N   UNL     1      30.908  -5.009 -22.851  0.00  0.00    -0.242 NA
ATOM     32  C   UNL     1      32.572  -6.747 -22.614  0.00  0.00    +0.019 C 
ATOM     33  C   UNL     1      32.518  -6.619 -21.231  0.00  0.00    +0.003 C 
ATOM     34  C   UNL     1      31.753  -5.925 -23.373  0.00  0.00    +0.099 C 
ATOM     35  C   UNL     1      31.661  -5.686 -20.657  0.00  0.00    +0.021 C 
ATOM     36  C   UNL     1      30.884  -4.913 -21.504  0.00  0.00    +0.099 C 
ENDBRANCH  26  32
ENDBRANCH   5  25
TORSDOF 8
ENDMDL
