MODEL 1
REMARK VINA RESULT:     -11.4      0.000      0.000
REMARK  Name = 447656
REMARK  5 active torsions:
REMARK  status: ('A' for Active; 'I' for Inactive)
REMARK    1  A    between atoms: N_5  and  C_14
REMARK    2  A    between atoms: C_6  and  O_25
REMARK    3  A    between atoms: C_17  and  C_22
REMARK    4  A    between atoms: O_25  and  C_26
REMARK    5  A    between atoms: C_26  and  C_27
REMARK                            x       y       z     vdW  Elec       q    Type
REMARK                         _______ _______ _______ _____ _____    ______ ____
ROOT
ATOM      1  N   UNL     1      33.636 -23.426 -15.905  0.00  0.00    -0.293 NA
ATOM      2  N   UNL     1      30.229 -22.344 -16.767  0.00  0.00    -0.266 NA
ATOM      3  N   UNL     1      31.970 -23.921 -14.194  0.00  0.00    -0.316 NA
ATOM      4  N   UNL     1      29.721 -23.202 -14.773  0.00  0.00    -0.296 N 
ATOM      5  N   UNL     1      34.219 -24.500 -13.907  0.00  0.00    -0.238 N 
ATOM      6  C   UNL     1      32.708 -22.860 -16.706  0.00  0.00    +0.288 C 
ATOM      7  C   UNL     1      31.404 -22.819 -16.258  0.00  0.00    +0.215 C 
ATOM      8  C   UNL     1      31.062 -23.347 -15.020  0.00  0.00    +0.196 C 
ATOM      9  C   UNL     1      33.216 -23.916 -14.715  0.00  0.00    +0.207 C 
ATOM     10  C   UNL     1      29.250 -22.596 -15.842  0.00  0.00    +0.164 C 
ATOM     11  H   UNL     1      30.108 -21.901 -17.638  0.00  0.00    +0.126 HD
ATOM     12  H   UNL     1      29.221 -23.488 -13.974  0.00  0.00    +0.150 HD
ATOM     13  H   UNL     1      33.885 -24.847 -13.049  0.00  0.00    +0.166 HD
ENDROOT
BRANCH   5  14
ATOM     14  C   UNL     1      35.601 -24.682 -14.091  0.00  0.00    +0.058 C 
ATOM     15  C   UNL     1      36.076 -25.802 -14.778  0.00  0.00    +0.015 C 
ATOM     16  C   UNL     1      36.505 -23.744 -13.588  0.00  0.00    +0.015 C 
ATOM     17  C   UNL     1      38.347 -25.044 -14.457  0.00  0.00    +0.053 C 
ATOM     18  C   UNL     1      37.447 -25.983 -14.961  0.00  0.00    +0.006 C 
ATOM     19  C   UNL     1      37.877 -23.924 -13.771  0.00  0.00    +0.006 C 
BRANCH  17  22
ATOM     20  O   UNL     1      40.607 -24.717 -13.878  0.00  0.00    -0.270 OA
ATOM     21  N   UNL     1      40.188 -26.028 -15.713  0.00  0.00    -0.325 N 
ATOM     22  C   UNL     1      39.776 -25.232 -14.648  0.00  0.00    +0.243 C 
ATOM     23  H   UNL     1      41.148 -26.177 -15.874  0.00  0.00    +0.145 HD
ATOM     24  H   UNL     1      39.520 -26.440 -16.308  0.00  0.00    +0.145 HD
ENDBRANCH  17  22
ENDBRANCH   5  14
BRANCH   6  25
ATOM     25  O   UNL     1      33.101 -22.352 -17.921  0.00  0.00    -0.453 OA
BRANCH  25  26
ATOM     26  C   UNL     1      34.488 -22.361 -18.203  0.00  0.00    +0.208 C 
BRANCH  26  27
ATOM     27  C   UNL     1      34.723 -21.587 -19.498  0.00  0.00    +0.044 C 
ATOM     28  C   UNL     1      33.545 -20.648 -19.790  0.00  0.00    +0.004 C 
ATOM     29  C   UNL     1      36.041 -20.804 -19.431  0.00  0.00    +0.004 C 
ATOM     30  C   UNL     1      33.781 -19.823 -21.054  0.00  0.00    +0.000 C 
ATOM     31  C   UNL     1      36.272 -19.979 -20.694  0.00  0.00    +0.000 C 
ATOM     32  C   UNL     1      35.095 -19.054 -20.987  0.00  0.00    +0.000 C 
ENDBRANCH  26  27
ENDBRANCH  25  26
ENDBRANCH   6  25
TORSDOF 5
ENDMDL
MODEL 2
REMARK VINA RESULT:     -11.3      2.226      6.598
REMARK  Name = 447656
REMARK  5 active torsions:
REMARK  status: ('A' for Active; 'I' for Inactive)
REMARK    1  A    between atoms: N_5  and  C_14
REMARK    2  A    between atoms: C_6  and  O_25
REMARK    3  A    between atoms: C_17  and  C_22
REMARK    4  A    between atoms: O_25  and  C_26
REMARK    5  A    between atoms: C_26  and  C_27
REMARK                            x       y       z     vdW  Elec       q    Type
REMARK                         _______ _______ _______ _____ _____    ______ ____
ROOT
ATOM      1  N   UNL     1      34.587 -23.821 -14.305  0.00  0.00    -0.293 NA
ATOM      2  N   UNL     1      38.092 -23.934 -13.198  0.00  0.00    -0.266 NA
ATOM      3  N   UNL     1      34.864 -24.121 -11.900  0.00  0.00    -0.316 NA
ATOM      4  N   UNL     1      37.184 -24.195 -11.179  0.00  0.00    -0.296 N 
ATOM      5  N   UNL     1      32.740 -24.013 -12.877  0.00  0.00    -0.238 N 
ATOM      6  C   UNL     1      35.923 -23.786 -14.498  0.00  0.00    +0.288 C 
ATOM      7  C   UNL     1      36.740 -23.919 -13.395  0.00  0.00    +0.215 C 
ATOM      8  C   UNL     1      36.199 -24.082 -12.126  0.00  0.00    +0.196 C 
ATOM      9  C   UNL     1      34.145 -23.983 -13.035  0.00  0.00    +0.207 C 
ATOM     10  C   UNL     1      38.309 -24.102 -11.856  0.00  0.00    +0.164 C 
ATOM     11  H   UNL     1      38.783 -23.842 -13.894  0.00  0.00    +0.126 HD
ATOM     12  H   UNL     1      37.075 -24.317 -10.208  0.00  0.00    +0.150 HD
ATOM     13  H   UNL     1      32.449 -24.132 -11.945  0.00  0.00    +0.166 HD
ENDROOT
BRANCH   5  14
ATOM     14  C   UNL     1      31.678 -23.907 -13.792  0.00  0.00    +0.058 C 
ATOM     15  C   UNL     1      31.301 -22.655 -14.287  0.00  0.00    +0.015 C 
ATOM     16  C   UNL     1      30.995 -25.051 -14.211  0.00  0.00    +0.015 C 
ATOM     17  C   UNL     1      29.568 -23.694 -15.611  0.00  0.00    +0.053 C 
ATOM     18  C   UNL     1      30.248 -22.549 -15.195  0.00  0.00    +0.006 C 
ATOM     19  C   UNL     1      29.942 -24.945 -15.120  0.00  0.00    +0.006 C 
BRANCH  17  22
ATOM     20  O   UNL     1      28.010 -24.584 -17.137  0.00  0.00    -0.270 OA
ATOM     21  N   UNL     1      27.935 -22.319 -16.785  0.00  0.00    -0.325 N 
ATOM     22  C   UNL     1      28.471 -23.583 -16.558  0.00  0.00    +0.243 C 
ATOM     23  H   UNL     1      27.191 -22.205 -17.420  0.00  0.00    +0.145 HD
ATOM     24  H   UNL     1      28.301 -21.537 -16.311  0.00  0.00    +0.145 HD
ENDBRANCH  17  22
ENDBRANCH   5  14
BRANCH   6  25
ATOM     25  O   UNL     1      36.404 -23.624 -15.774  0.00  0.00    -0.453 OA
BRANCH  25  26
ATOM     26  C   UNL     1      36.540 -22.296 -16.245  0.00  0.00    +0.208 C 
BRANCH  26  27
ATOM     27  C   UNL     1      36.005 -22.233 -17.675  0.00  0.00    +0.044 C 
ATOM     28  C   UNL     1      34.471 -22.185 -17.678  0.00  0.00    +0.004 C 
ATOM     29  C   UNL     1      36.590 -21.026 -18.420  0.00  0.00    +0.004 C 
ATOM     30  C   UNL     1      33.913 -22.068 -19.095  0.00  0.00    +0.000 C 
ATOM     31  C   UNL     1      36.029 -20.911 -19.835  0.00  0.00    +0.000 C 
ATOM     32  C   UNL     1      34.504 -20.873 -19.835  0.00  0.00    +0.000 C 
ENDBRANCH  26  27
ENDBRANCH  25  26
ENDBRANCH   6  25
TORSDOF 5
ENDMDL
MODEL 3
REMARK VINA RESULT:     -11.2      2.009      6.586
REMARK  Name = 447656
REMARK  5 active torsions:
REMARK  status: ('A' for Active; 'I' for Inactive)
REMARK    1  A    between atoms: N_5  and  C_14
REMARK    2  A    between atoms: C_6  and  O_25
REMARK    3  A    between atoms: C_17  and  C_22
REMARK    4  A    between atoms: O_25  and  C_26
REMARK    5  A    between atoms: C_26  and  C_27
REMARK                            x       y       z     vdW  Elec       q    Type
REMARK                         _______ _______ _______ _____ _____    ______ ____
ROOT
ATOM      1  N   UNL     1      34.009 -23.393 -15.571  0.00  0.00    -0.293 NA
ATOM      2  N   UNL     1      37.667 -23.760 -15.487  0.00  0.00    -0.266 NA
ATOM      3  N   UNL     1      34.843 -24.629 -13.639  0.00  0.00    -0.316 NA
ATOM      4  N   UNL     1      37.262 -24.865 -13.594  0.00  0.00    -0.296 N 
ATOM      5  N   UNL     1      32.555 -24.247 -13.945  0.00  0.00    -0.238 N 
ATOM      6  C   UNL     1      35.258 -23.213 -16.049  0.00  0.00    +0.288 C 
ATOM      7  C   UNL     1      36.311 -23.738 -15.328  0.00  0.00    +0.215 C 
ATOM      8  C   UNL     1      36.085 -24.431 -14.146  0.00  0.00    +0.196 C 
ATOM      9  C   UNL     1      33.880 -24.080 -14.411  0.00  0.00    +0.207 C 
ATOM     10  C   UNL     1      38.193 -24.446 -14.425  0.00  0.00    +0.164 C 
ATOM     11  H   UNL     1      38.173 -23.357 -16.230  0.00  0.00    +0.126 HD
ATOM     12  H   UNL     1      37.385 -25.377 -12.762  0.00  0.00    +0.150 HD
ATOM     13  H   UNL     1      32.492 -24.749 -13.100  0.00  0.00    +0.166 HD
ENDROOT
BRANCH   5  14
ATOM     14  C   UNL     1      31.310 -23.834 -14.452  0.00  0.00    +0.058 C 
ATOM     15  C   UNL     1      30.903 -22.505 -14.316  0.00  0.00    +0.015 C 
ATOM     16  C   UNL     1      30.475 -24.752 -15.093  0.00  0.00    +0.015 C 
ATOM     17  C   UNL     1      28.836 -23.014 -15.459  0.00  0.00    +0.053 C 
ATOM     18  C   UNL     1      29.668 -22.095 -14.819  0.00  0.00    +0.006 C 
ATOM     19  C   UNL     1      29.240 -24.343 -15.596  0.00  0.00    +0.006 C 
BRANCH  17  22
ATOM     20  O   UNL     1      26.604 -22.299 -15.228  0.00  0.00    -0.270 OA
ATOM     21  N   UNL     1      27.414 -22.491 -17.366  0.00  0.00    -0.325 N 
ATOM     22  C   UNL     1      27.550 -22.587 -15.984  0.00  0.00    +0.243 C 
ATOM     23  H   UNL     1      26.556 -22.206 -17.757  0.00  0.00    +0.145 HD
ATOM     24  H   UNL     1      28.174 -22.710 -17.952  0.00  0.00    +0.145 HD
ENDBRANCH  17  22
ENDBRANCH   5  14
BRANCH   6  25
ATOM     25  O   UNL     1      35.425 -22.521 -17.224  0.00  0.00    -0.453 OA
BRANCH  25  26
ATOM     26  C   UNL     1      34.290 -22.393 -18.061  0.00  0.00    +0.208 C 
BRANCH  26  27
ATOM     27  C   UNL     1      34.714 -21.681 -19.345  0.00  0.00    +0.044 C 
ATOM     28  C   UNL     1      33.662 -20.644 -19.761  0.00  0.00    +0.004 C 
ATOM     29  C   UNL     1      36.089 -21.024 -19.172  0.00  0.00    +0.004 C 
ATOM     30  C   UNL     1      34.087 -19.881 -21.014  0.00  0.00    +0.000 C 
ATOM     31  C   UNL     1      36.510 -20.260 -20.425  0.00  0.00    +0.000 C 
ATOM     32  C   UNL     1      35.459 -19.237 -20.841  0.00  0.00    +0.000 C 
ENDBRANCH  26  27
ENDBRANCH  25  26
ENDBRANCH   6  25
TORSDOF 5
ENDMDL
MODEL 4
REMARK VINA RESULT:     -11.2      2.468      6.894
REMARK  Name = 447656
REMARK  5 active torsions:
REMARK  status: ('A' for Active; 'I' for Inactive)
REMARK    1  A    between atoms: N_5  and  C_14
REMARK    2  A    between atoms: C_6  and  O_25
REMARK    3  A    between atoms: C_17  and  C_22
REMARK    4  A    between atoms: O_25  and  C_26
REMARK    5  A    between atoms: C_26  and  C_27
REMARK                            x       y       z     vdW  Elec       q    Type
REMARK                         _______ _______ _______ _____ _____    ______ ____
ROOT
ATOM      1  N   UNL     1      33.990 -22.633 -16.244  0.00  0.00    -0.293 NA
ATOM      2  N   UNL     1      32.860 -24.512 -13.291  0.00  0.00    -0.266 NA
ATOM      3  N   UNL     1      31.740 -23.555 -16.449  0.00  0.00    -0.316 NA
ATOM      4  N   UNL     1      31.004 -24.795 -14.492  0.00  0.00    -0.296 N 
ATOM      5  N   UNL     1      32.711 -22.314 -18.180  0.00  0.00    -0.238 N 
ATOM      6  C   UNL     1      34.132 -23.144 -15.002  0.00  0.00    +0.288 C 
ATOM      7  C   UNL     1      33.081 -23.864 -14.473  0.00  0.00    +0.215 C 
ATOM      8  C   UNL     1      31.914 -24.054 -15.201  0.00  0.00    +0.196 C 
ATOM      9  C   UNL     1      32.819 -22.866 -16.882  0.00  0.00    +0.207 C 
ATOM     10  C   UNL     1      31.603 -25.053 -13.350  0.00  0.00    +0.164 C 
ATOM     11  H   UNL     1      33.489 -24.578 -12.537  0.00  0.00    +0.126 HD
ATOM     12  H   UNL     1      30.102 -25.071 -14.774  0.00  0.00    +0.150 HD
ATOM     13  H   UNL     1      31.849 -22.499 -18.619  0.00  0.00    +0.166 HD
ENDROOT
BRANCH   5  14
ATOM     14  C   UNL     1      33.593 -21.552 -18.965  0.00  0.00    +0.058 C 
ATOM     15  C   UNL     1      33.096 -20.587 -19.845  0.00  0.00    +0.015 C 
ATOM     16  C   UNL     1      34.972 -21.756 -18.869  0.00  0.00    +0.015 C 
ATOM     17  C   UNL     1      35.347 -20.037 -20.526  0.00  0.00    +0.053 C 
ATOM     18  C   UNL     1      33.971 -19.831 -20.624  0.00  0.00    +0.006 C 
ATOM     19  C   UNL     1      35.848 -20.999 -19.648  0.00  0.00    +0.006 C 
BRANCH  17  22
ATOM     20  O   UNL     1      36.013 -18.993 -22.529  0.00  0.00    -0.270 OA
ATOM     21  N   UNL     1      37.416 -18.767 -20.729  0.00  0.00    -0.325 N 
ATOM     22  C   UNL     1      36.260 -19.248 -21.337  0.00  0.00    +0.243 C 
ATOM     23  H   UNL     1      38.058 -18.230 -21.248  0.00  0.00    +0.145 HD
ATOM     24  H   UNL     1      37.594 -18.966 -19.781  0.00  0.00    +0.145 HD
ENDBRANCH  17  22
ENDBRANCH   5  14
BRANCH   6  25
ATOM     25  O   UNL     1      35.308 -22.927 -14.327  0.00  0.00    -0.453 OA
BRANCH  25  26
ATOM     26  C   UNL     1      36.509 -23.071 -15.063  0.00  0.00    +0.208 C 
BRANCH  26  27
ATOM     27  C   UNL     1      37.491 -23.893 -14.231  0.00  0.00    +0.044 C 
ATOM     28  C   UNL     1      37.349 -23.560 -12.739  0.00  0.00    +0.004 C 
ATOM     29  C   UNL     1      37.287 -25.394 -14.476  0.00  0.00    +0.004 C 
ATOM     30  C   UNL     1      38.285 -24.408 -11.880  0.00  0.00    +0.000 C 
ATOM     31  C   UNL     1      38.222 -26.238 -13.614  0.00  0.00    +0.000 C 
ATOM     32  C   UNL     1      38.086 -25.898 -12.134  0.00  0.00    +0.000 C 
ENDBRANCH  26  27
ENDBRANCH  25  26
ENDBRANCH   6  25
TORSDOF 5
ENDMDL
MODEL 5
REMARK VINA RESULT:     -10.7      2.659      7.298
REMARK  Name = 447656
REMARK  5 active torsions:
REMARK  status: ('A' for Active; 'I' for Inactive)
REMARK    1  A    between atoms: N_5  and  C_14
REMARK    2  A    between atoms: C_6  and  O_25
REMARK    3  A    between atoms: C_17  and  C_22
REMARK    4  A    between atoms: O_25  and  C_26
REMARK    5  A    between atoms: C_26  and  C_27
REMARK                            x       y       z     vdW  Elec       q    Type
REMARK                         _______ _______ _______ _____ _____    ______ ____
ROOT
ATOM      1  N   UNL     1      35.651 -23.542 -15.476  0.00  0.00    -0.293 NA
ATOM      2  N   UNL     1      36.525 -25.479 -12.475  0.00  0.00    -0.266 NA
ATOM      3  N   UNL     1      38.032 -23.541 -14.947  0.00  0.00    -0.316 NA
ATOM      4  N   UNL     1      38.599 -24.823 -12.961  0.00  0.00    -0.296 N 
ATOM      5  N   UNL     1      37.197 -22.388 -16.804  0.00  0.00    -0.238 N 
ATOM      6  C   UNL     1      35.371 -24.322 -14.410  0.00  0.00    +0.288 C 
ATOM      7  C   UNL     1      36.418 -24.717 -13.603  0.00  0.00    +0.215 C 
ATOM      8  C   UNL     1      37.719 -24.322 -13.885  0.00  0.00    +0.196 C 
ATOM      9  C   UNL     1      36.947 -23.204 -15.677  0.00  0.00    +0.207 C 
ATOM     10  C   UNL     1      37.849 -25.513 -12.129  0.00  0.00    +0.164 C 
ATOM     11  H   UNL     1      35.785 -25.921 -11.998  0.00  0.00    +0.126 HD
ATOM     12  H   UNL     1      39.575 -24.696 -12.929  0.00  0.00    +0.150 HD
ATOM     13  H   UNL     1      38.146 -22.159 -16.925  0.00  0.00    +0.166 HD
ENDROOT
BRANCH   5  14
ATOM     14  C   UNL     1      36.353 -21.839 -17.786  0.00  0.00    +0.058 C 
ATOM     15  C   UNL     1      34.986 -22.128 -17.779  0.00  0.00    +0.015 C 
ATOM     16  C   UNL     1      36.878 -21.004 -18.775  0.00  0.00    +0.015 C 
ATOM     17  C   UNL     1      34.677 -20.750 -19.738  0.00  0.00    +0.053 C 
ATOM     18  C   UNL     1      34.149 -21.584 -18.752  0.00  0.00    +0.006 C 
ATOM     19  C   UNL     1      36.041 -20.459 -19.749  0.00  0.00    +0.006 C 
BRANCH  17  22
ATOM     20  O   UNL     1      32.568 -20.305 -20.688  0.00  0.00    -0.270 OA
ATOM     21  N   UNL     1      34.397 -19.475 -21.795  0.00  0.00    -0.325 N 
ATOM     22  C   UNL     1      33.804 -20.182 -20.753  0.00  0.00    +0.243 C 
ATOM     23  H   UNL     1      33.838 -19.077 -22.501  0.00  0.00    +0.145 HD
ATOM     24  H   UNL     1      35.376 -19.374 -21.827  0.00  0.00    +0.145 HD
ENDBRANCH  17  22
ENDBRANCH   5  14
BRANCH   6  25
ATOM     25  O   UNL     1      34.066 -24.683 -14.177  0.00  0.00    -0.453 OA
BRANCH  25  26
ATOM     26  C   UNL     1      33.347 -23.916 -13.228  0.00  0.00    +0.208 C 
BRANCH  26  27
ATOM     27  C   UNL     1      31.920 -23.727 -13.740  0.00  0.00    +0.044 C 
ATOM     28  C   UNL     1      31.921 -23.013 -15.098  0.00  0.00    +0.004 C 
ATOM     29  C   UNL     1      31.194 -25.076 -13.833  0.00  0.00    +0.004 C 
ATOM     30  C   UNL     1      30.508 -22.859 -15.656  0.00  0.00    +0.000 C 
ATOM     31  C   UNL     1      29.783 -24.919 -14.394  0.00  0.00    +0.000 C 
ATOM     32  C   UNL     1      29.787 -24.200 -15.739  0.00  0.00    +0.000 C 
ENDBRANCH  26  27
ENDBRANCH  25  26
ENDBRANCH   6  25
TORSDOF 5
ENDMDL
MODEL 6
REMARK VINA RESULT:     -10.4      2.566      5.495
REMARK  Name = 447656
REMARK  5 active torsions:
REMARK  status: ('A' for Active; 'I' for Inactive)
REMARK    1  A    between atoms: N_5  and  C_14
REMARK    2  A    between atoms: C_6  and  O_25
REMARK    3  A    between atoms: C_17  and  C_22
REMARK    4  A    between atoms: O_25  and  C_26
REMARK    5  A    between atoms: C_26  and  C_27
REMARK                            x       y       z     vdW  Elec       q    Type
REMARK                         _______ _______ _______ _____ _____    ______ ____
ROOT
ATOM      1  N   UNL     1      35.284 -22.344 -17.417  0.00  0.00    -0.293 NA
ATOM      2  N   UNL     1      33.794 -20.801 -20.404  0.00  0.00    -0.266 NA
ATOM      3  N   UNL     1      36.770 -20.807 -18.592  0.00  0.00    -0.316 NA
ATOM      4  N   UNL     1      35.775 -19.793 -20.564  0.00  0.00    -0.296 N 
ATOM      5  N   UNL     1      37.461 -21.929 -16.659  0.00  0.00    -0.238 N 
ATOM      6  C   UNL     1      34.291 -22.131 -18.306  0.00  0.00    +0.288 C 
ATOM      7  C   UNL     1      34.528 -21.255 -19.345  0.00  0.00    +0.215 C 
ATOM      8  C   UNL     1      35.753 -20.614 -19.467  0.00  0.00    +0.196 C 
ATOM      9  C   UNL     1      36.447 -21.678 -17.612  0.00  0.00    +0.207 C 
ATOM     10  C   UNL     1      34.582 -19.928 -21.104  0.00  0.00    +0.164 C 
ATOM     11  H   UNL     1      32.868 -21.055 -20.623  0.00  0.00    +0.126 HD
ATOM     12  H   UNL     1      36.517 -19.226 -20.878  0.00  0.00    +0.150 HD
ATOM     13  H   UNL     1      38.293 -21.431 -16.825  0.00  0.00    +0.166 HD
ENDROOT
BRANCH   5  14
ATOM     14  C   UNL     1      37.511 -22.751 -15.519  0.00  0.00    +0.058 C 
ATOM     15  C   UNL     1      38.479 -23.755 -15.420  0.00  0.00    +0.015 C 
ATOM     16  C   UNL     1      36.595 -22.569 -14.481  0.00  0.00    +0.015 C 
ATOM     17  C   UNL     1      37.613 -24.386 -13.255  0.00  0.00    +0.053 C 
ATOM     18  C   UNL     1      38.530 -24.571 -14.290  0.00  0.00    +0.006 C 
ATOM     19  C   UNL     1      36.646 -23.385 -13.350  0.00  0.00    +0.006 C 
BRANCH  17  22
ATOM     20  O   UNL     1      38.002 -24.784 -10.966  0.00  0.00    -0.270 OA
ATOM     21  N   UNL     1      37.309 -26.572 -12.225  0.00  0.00    -0.325 N 
ATOM     22  C   UNL     1      37.667 -25.235 -12.077  0.00  0.00    +0.243 C 
ATOM     23  H   UNL     1      37.334 -27.178 -11.449  0.00  0.00    +0.145 HD
ATOM     24  H   UNL     1      37.034 -26.914 -13.107  0.00  0.00    +0.145 HD
ENDBRANCH  17  22
ENDBRANCH   5  14
BRANCH   6  25
ATOM     25  O   UNL     1      33.098 -22.792 -18.139  0.00  0.00    -0.453 OA
BRANCH  25  26
ATOM     26  C   UNL     1      32.276 -22.372 -17.066  0.00  0.00    +0.208 C 
BRANCH  26  27
ATOM     27  C   UNL     1      32.144 -23.528 -16.075  0.00  0.00    +0.044 C 
ATOM     28  C   UNL     1      32.992 -23.268 -14.823  0.00  0.00    +0.004 C 
ATOM     29  C   UNL     1      30.674 -23.757 -15.701  0.00  0.00    +0.004 C 
ATOM     30  C   UNL     1      32.836 -24.386 -13.794  0.00  0.00    +0.000 C 
ATOM     31  C   UNL     1      30.522 -24.873 -14.671  0.00  0.00    +0.000 C 
ATOM     32  C   UNL     1      31.373 -24.616 -13.432  0.00  0.00    +0.000 C 
ENDBRANCH  26  27
ENDBRANCH  25  26
ENDBRANCH   6  25
TORSDOF 5
ENDMDL
MODEL 7
REMARK VINA RESULT:     -10.2      3.428      8.298
REMARK  Name = 447656
REMARK  5 active torsions:
REMARK  status: ('A' for Active; 'I' for Inactive)
REMARK    1  A    between atoms: N_5  and  C_14
REMARK    2  A    between atoms: C_6  and  O_25
REMARK    3  A    between atoms: C_17  and  C_22
REMARK    4  A    between atoms: O_25  and  C_26
REMARK    5  A    between atoms: C_26  and  C_27
REMARK                            x       y       z     vdW  Elec       q    Type
REMARK                         _______ _______ _______ _____ _____    ______ ____
ROOT
ATOM      1  N   UNL     1      35.308 -21.561 -18.633  0.00  0.00    -0.293 NA
ATOM      2  N   UNL     1      35.581 -23.597 -15.583  0.00  0.00    -0.266 NA
ATOM      3  N   UNL     1      37.400 -21.257 -17.416  0.00  0.00    -0.316 NA
ATOM      4  N   UNL     1      37.569 -22.607 -15.401  0.00  0.00    -0.296 N 
ATOM      5  N   UNL     1      36.961 -20.085 -19.393  0.00  0.00    -0.238 N 
ATOM      6  C   UNL     1      34.863 -22.460 -17.731  0.00  0.00    +0.288 C 
ATOM      7  C   UNL     1      35.681 -22.766 -16.663  0.00  0.00    +0.215 C 
ATOM      8  C   UNL     1      36.925 -22.163 -16.527  0.00  0.00    +0.196 C 
ATOM      9  C   UNL     1      36.533 -21.022 -18.424  0.00  0.00    +0.207 C 
ATOM     10  C   UNL     1      36.735 -23.467 -14.858  0.00  0.00    +0.164 C 
ATOM     11  H   UNL     1      34.818 -24.181 -15.367  0.00  0.00    +0.126 HD
ATOM     12  H   UNL     1      38.459 -22.343 -15.073  0.00  0.00    +0.150 HD
ATOM     13  H   UNL     1      37.854 -19.711 -19.215  0.00  0.00    +0.166 HD
ENDROOT
BRANCH   5  14
ATOM     14  C   UNL     1      36.360 -19.584 -20.561  0.00  0.00    +0.058 C 
ATOM     15  C   UNL     1      37.109 -18.827 -21.466  0.00  0.00    +0.015 C 
ATOM     16  C   UNL     1      35.012 -19.839 -20.822  0.00  0.00    +0.015 C 
ATOM     17  C   UNL     1      35.167 -18.587 -22.883  0.00  0.00    +0.053 C 
ATOM     18  C   UNL     1      36.514 -18.330 -22.626  0.00  0.00    +0.006 C 
ATOM     19  C   UNL     1      34.416 -19.342 -21.982  0.00  0.00    +0.006 C 
BRANCH  17  22
ATOM     20  O   UNL     1      33.524 -18.592 -24.570  0.00  0.00    -0.270 OA
ATOM     21  N   UNL     1      35.125 -16.954 -24.690  0.00  0.00    -0.325 N 
ATOM     22  C   UNL     1      34.547 -18.070 -24.091  0.00  0.00    +0.243 C 
ATOM     23  H   UNL     1      34.732 -16.576 -25.510  0.00  0.00    +0.145 HD
ATOM     24  H   UNL     1      35.927 -16.543 -24.294  0.00  0.00    +0.145 HD
ENDBRANCH  17  22
ENDBRANCH   5  14
BRANCH   6  25
ATOM     25  O   UNL     1      33.624 -23.025 -17.913  0.00  0.00    -0.453 OA
BRANCH  25  26
ATOM     26  C   UNL     1      32.525 -22.375 -17.302  0.00  0.00    +0.208 C 
BRANCH  26  27
ATOM     27  C   UNL     1      32.046 -23.230 -16.131  0.00  0.00    +0.044 C 
ATOM     28  C   UNL     1      32.454 -22.596 -14.794  0.00  0.00    +0.004 C 
ATOM     29  C   UNL     1      30.527 -23.437 -16.196  0.00  0.00    +0.004 C 
ATOM     30  C   UNL     1      31.940 -23.406 -13.606  0.00  0.00    +0.000 C 
ATOM     31  C   UNL     1      30.016 -24.245 -15.005  0.00  0.00    +0.000 C 
ATOM     32  C   UNL     1      30.432 -23.617 -13.679  0.00  0.00    +0.000 C 
ENDBRANCH  26  27
ENDBRANCH  25  26
ENDBRANCH   6  25
TORSDOF 5
ENDMDL
MODEL 8
REMARK VINA RESULT:      -9.9      7.745     11.151
REMARK  Name = 447656
REMARK  5 active torsions:
REMARK  status: ('A' for Active; 'I' for Inactive)
REMARK    1  A    between atoms: N_5  and  C_14
REMARK    2  A    between atoms: C_6  and  O_25
REMARK    3  A    between atoms: C_17  and  C_22
REMARK    4  A    between atoms: O_25  and  C_26
REMARK    5  A    between atoms: C_26  and  C_27
REMARK                            x       y       z     vdW  Elec       q    Type
REMARK                         _______ _______ _______ _____ _____    ______ ____
ROOT
ATOM      1  N   UNL     1      34.529 -15.203 -23.009  0.00  0.00    -0.293 NA
ATOM      2  N   UNL     1      33.554 -12.125 -24.769  0.00  0.00    -0.266 NA
ATOM      3  N   UNL     1      34.326 -15.458 -25.427  0.00  0.00    -0.316 NA
ATOM      4  N   UNL     1      33.681 -13.418 -26.580  0.00  0.00    -0.296 N 
ATOM      5  N   UNL     1      34.934 -17.257 -24.059  0.00  0.00    -0.238 N 
ATOM      6  C   UNL     1      34.192 -13.898 -23.075  0.00  0.00    +0.288 C 
ATOM      7  C   UNL     1      33.918 -13.361 -24.317  0.00  0.00    +0.215 C 
ATOM      8  C   UNL     1      33.990 -14.146 -25.460  0.00  0.00    +0.196 C 
ATOM      9  C   UNL     1      34.576 -15.894 -24.173  0.00  0.00    +0.207 C 
ATOM     10  C   UNL     1      33.424 -12.208 -26.130  0.00  0.00    +0.164 C 
ATOM     11  H   UNL     1      33.411 -11.322 -24.218  0.00  0.00    +0.126 HD
ATOM     12  H   UNL     1      33.657 -13.730 -27.514  0.00  0.00    +0.150 HD
ATOM     13  H   UNL     1      34.960 -17.733 -24.920  0.00  0.00    +0.166 HD
ENDROOT
BRANCH   5  14
ATOM     14  C   UNL     1      35.261 -18.065 -22.956  0.00  0.00    +0.058 C 
ATOM     15  C   UNL     1      34.330 -18.981 -22.457  0.00  0.00    +0.015 C 
ATOM     16  C   UNL     1      36.516 -17.957 -22.354  0.00  0.00    +0.015 C 
ATOM     17  C   UNL     1      35.909 -19.672 -20.764  0.00  0.00    +0.053 C 
ATOM     18  C   UNL     1      34.654 -19.783 -21.363  0.00  0.00    +0.006 C 
ATOM     19  C   UNL     1      36.840 -18.759 -21.259  0.00  0.00    +0.006 C 
BRANCH  17  22
ATOM     20  O   UNL     1      37.081 -20.143 -18.776  0.00  0.00    -0.270 OA
ATOM     21  N   UNL     1      35.589 -21.729 -19.499  0.00  0.00    -0.325 N 
ATOM     22  C   UNL     1      36.247 -20.508 -19.624  0.00  0.00    +0.243 C 
ATOM     23  H   UNL     1      35.793 -22.322 -18.739  0.00  0.00    +0.145 HD
ATOM     24  H   UNL     1      34.922 -22.001 -20.170  0.00  0.00    +0.145 HD
ENDBRANCH  17  22
ENDBRANCH   5  14
BRANCH   6  25
ATOM     25  O   UNL     1      34.134 -13.168 -21.913  0.00  0.00    -0.453 OA
BRANCH  25  26
ATOM     26  C   UNL     1      33.035 -13.411 -21.055  0.00  0.00    +0.208 C 
BRANCH  26  27
ATOM     27  C   UNL     1      32.182 -12.146 -20.989  0.00  0.00    +0.044 C 
ATOM     28  C   UNL     1      32.256 -11.514 -19.593  0.00  0.00    +0.004 C 
ATOM     29  C   UNL     1      32.616 -11.144 -22.066  0.00  0.00    +0.004 C 
ATOM     30  C   UNL     1      31.452 -10.217 -19.518  0.00  0.00    +0.000 C 
ATOM     31  C   UNL     1      31.812  -9.848 -21.987  0.00  0.00    +0.000 C 
ATOM     32  C   UNL     1      31.880  -9.227 -20.595  0.00  0.00    +0.000 C 
ENDBRANCH  26  27
ENDBRANCH  25  26
ENDBRANCH   6  25
TORSDOF 5
ENDMDL
MODEL 9
REMARK VINA RESULT:      -9.2     13.189     17.612
REMARK  Name = 447656
REMARK  5 active torsions:
REMARK  status: ('A' for Active; 'I' for Inactive)
REMARK    1  A    between atoms: N_5  and  C_14
REMARK    2  A    between atoms: C_6  and  O_25
REMARK    3  A    between atoms: C_17  and  C_22
REMARK    4  A    between atoms: O_25  and  C_26
REMARK    5  A    between atoms: C_26  and  C_27
REMARK                            x       y       z     vdW  Elec       q    Type
REMARK                         _______ _______ _______ _____ _____    ______ ____
ROOT
ATOM      1  N   UNL     1      33.086  -8.173 -22.962  0.00  0.00    -0.293 NA
ATOM      2  N   UNL     1      31.962 -10.576 -20.415  0.00  0.00    -0.266 NA
ATOM      3  N   UNL     1      32.817  -7.213 -20.735  0.00  0.00    -0.316 NA
ATOM      4  N   UNL     1      32.074  -8.810 -19.059  0.00  0.00    -0.296 N 
ATOM      5  N   UNL     1      33.522  -5.910 -22.546  0.00  0.00    -0.238 N 
ATOM      6  C   UNL     1      32.706  -9.394 -22.528  0.00  0.00    +0.288 C 
ATOM      7  C   UNL     1      32.378  -9.535 -21.196  0.00  0.00    +0.215 C 
ATOM      8  C   UNL     1      32.440  -8.450 -20.331  0.00  0.00    +0.196 C 
ATOM      9  C   UNL     1      33.119  -7.171 -22.051  0.00  0.00    +0.207 C 
ATOM     10  C   UNL     1      31.793 -10.093 -19.145  0.00  0.00    +0.164 C 
ATOM     11  H   UNL     1      31.811 -11.503 -20.711  0.00  0.00    +0.126 HD
ATOM     12  H   UNL     1      32.031  -8.236 -18.260  0.00  0.00    +0.150 HD
ATOM     13  H   UNL     1      33.537  -5.202 -21.862  0.00  0.00    +0.166 HD
ENDROOT
BRANCH   5  14
ATOM     14  C   UNL     1      33.907  -5.469 -23.824  0.00  0.00    +0.058 C 
ATOM     15  C   UNL     1      35.103  -5.918 -24.391  0.00  0.00    +0.015 C 
ATOM     16  C   UNL     1      33.097  -4.579 -24.533  0.00  0.00    +0.015 C 
ATOM     17  C   UNL     1      34.674  -4.594 -26.365  0.00  0.00    +0.053 C 
ATOM     18  C   UNL     1      35.486  -5.482 -25.659  0.00  0.00    +0.006 C 
ATOM     19  C   UNL     1      33.479  -4.143 -25.802  0.00  0.00    +0.006 C 
BRANCH  17  22
ATOM     20  O   UNL     1      36.226  -4.318 -28.114  0.00  0.00    -0.270 OA
ATOM     21  N   UNL     1      34.110  -3.512 -28.473  0.00  0.00    -0.325 N 
ATOM     22  C   UNL     1      35.072  -4.139 -27.687  0.00  0.00    +0.243 C 
ATOM     23  H   UNL     1      34.343  -3.190 -29.374  0.00  0.00    +0.145 HD
ATOM     24  H   UNL     1      33.196  -3.387 -28.128  0.00  0.00    +0.145 HD
ENDBRANCH  17  22
ENDBRANCH   5  14
BRANCH   6  25
ATOM     25  O   UNL     1      32.662 -10.432 -23.426  0.00  0.00    -0.453 OA
BRANCH  25  26
ATOM     26  C   UNL     1      33.891 -11.055 -23.749  0.00  0.00    +0.208 C 
BRANCH  26  27
ATOM     27  C   UNL     1      33.706 -12.569 -23.655  0.00  0.00    +0.044 C 
ATOM     28  C   UNL     1      33.861 -13.221 -25.036  0.00  0.00    +0.004 C 
ATOM     29  C   UNL     1      34.696 -13.174 -22.652  0.00  0.00    +0.004 C 
ATOM     30  C   UNL     1      33.733 -14.741 -24.959  0.00  0.00    +0.000 C 
ATOM     31  C   UNL     1      34.567 -14.694 -22.580  0.00  0.00    +0.000 C 
ATOM     32  C   UNL     1      34.712 -15.338 -23.955  0.00  0.00    +0.000 C 
ENDBRANCH  26  27
ENDBRANCH  25  26
ENDBRANCH   6  25
TORSDOF 5
ENDMDL
