MODEL 1
REMARK VINA RESULT:     -12.3      0.000      0.000
REMARK  Name = 448605
REMARK  6 active torsions:
REMARK  status: ('A' for Active; 'I' for Inactive)
REMARK    1  A    between atoms: C_3  and  N_11
REMARK    2  A    between atoms: C_4  and  C_27
REMARK    3  A    between atoms: C_9  and  C_21
REMARK    4  A    between atoms: N_26  and  C_29
REMARK    5  A    between atoms: C_30  and  C_35
REMARK    6  A    between atoms: C_35  and  N_36
REMARK                            x       y       z     vdW  Elec       q    Type
REMARK                         _______ _______ _______ _____ _____    ______ ____
ROOT
ATOM      1  C   UNL     1      34.332 -22.910 -16.081  0.00  0.00    +0.014 C 
ATOM      2  C   UNL     1      33.394 -22.631 -17.104  0.00  0.00    +0.001 C 
ATOM      3  C   UNL     1      35.671 -22.530 -16.255  0.00  0.00    +0.057 C 
ATOM      4  C   UNL     1      35.162 -21.610 -18.428  0.00  0.00    +0.055 C 
ATOM      5  C   UNL     1      33.825 -21.980 -18.272  0.00  0.00    +0.005 C 
ATOM      6  C   UNL     1      36.083 -21.884 -17.421  0.00  0.00    +0.020 C 
ATOM      7  C   UNL     1      33.900 -23.560 -14.913  0.00  0.00    +0.004 C 
ATOM      8  C   UNL     1      32.054 -23.012 -16.930  0.00  0.00    +0.000 C 
ATOM      9  C   UNL     1      32.563 -23.931 -14.757  0.00  0.00    +0.031 C 
ATOM     10  C   UNL     1      31.642 -23.657 -15.763  0.00  0.00    +0.003 C 
ENDROOT
BRANCH   3  11
ATOM     11  N   UNL     1      36.650 -22.784 -15.262  0.00  0.00    -0.257 N 
ATOM     12  N   UNL     1      36.757 -25.128 -15.298  0.00  0.00    -0.180 NA
ATOM     13  N   UNL     1      38.139 -23.849 -13.793  0.00  0.00    -0.203 NA
ATOM     14  C   UNL     1      37.207 -23.973 -14.763  0.00  0.00    +0.091 C 
ATOM     15  C   UNL     1      37.313 -26.249 -14.794  0.00  0.00    +0.108 C 
ATOM     16  C   UNL     1      38.652 -25.010 -13.336  0.00  0.00    +0.165 C 
ATOM     17  C   UNL     1      38.274 -26.252 -13.804  0.00  0.00    +0.022 C 
ATOM     18  H   UNL     1      37.009 -21.970 -14.842  0.00  0.00    +0.164 HD
ENDBRANCH   3  11
BRANCH   9  21
ATOM     19  N   UNL     1      30.785 -24.858 -13.293  0.00  0.00    -0.343 N 
ATOM     20  N   UNL     1      33.027 -24.982 -12.646  0.00  0.00    -0.285 NA
ATOM     21  C   UNL     1      32.132 -24.604 -13.542  0.00  0.00    +0.117 C 
ATOM     22  H   UNL     1      30.515 -25.314 -12.464  0.00  0.00    +0.144 HD
ATOM     23  H   UNL     1      30.102 -24.581 -13.947  0.00  0.00    +0.144 HD
ATOM     24  H   UNL     1      32.736 -25.438 -11.823  0.00  0.00    +0.188 HD
ENDBRANCH   9  21
BRANCH   4  27
ATOM     25  O   UNL     1      36.644 -21.299 -20.194  0.00  0.00    -0.270 OA
ATOM     26  N   UNL     1      34.745 -19.923 -20.112  0.00  0.00    -0.280 N 
ATOM     27  C   UNL     1      35.592 -20.937 -19.643  0.00  0.00    +0.250 C 
ATOM     28  H   UNL     1      33.946 -19.746 -19.567  0.00  0.00    +0.155 HD
BRANCH  26  29
ATOM     29  C   UNL     1      34.890 -19.118 -21.270  0.00  0.00    +0.051 C 
ATOM     30  C   UNL     1      35.173 -17.546 -23.531  0.00  0.00    -0.044 C 
ATOM     31  C   UNL     1      34.255 -19.497 -22.440  0.00  0.00    +0.014 C 
ATOM     32  C   UNL     1      35.664 -17.972 -21.204  0.00  0.00    +0.014 C 
ATOM     33  C   UNL     1      34.398 -18.705 -23.579  0.00  0.00    -0.005 C 
ATOM     34  C   UNL     1      35.805 -17.180 -22.343  0.00  0.00    -0.005 C 
BRANCH  30  35
ATOM     35  C   UNL     1      35.324 -16.700 -24.749  0.00  0.00    -0.059 C 
BRANCH  35  36
ATOM     36  N   UNL     1      34.395 -15.600 -24.771  0.00  0.00    +0.383 N 
ATOM     37  H   UNL     1      34.907 -14.719 -24.729  0.00  0.00    -0.089 HD
ATOM     38  H   UNL     1      33.768 -15.667 -23.969  0.00  0.00    -0.089 HD
ATOM     39  H   UNL     1      33.849 -15.634 -25.632  0.00  0.00    -0.089 HD
ENDBRANCH  35  36
ENDBRANCH  30  35
ENDBRANCH  26  29
ENDBRANCH   4  27
TORSDOF 6
ENDMDL
MODEL 2
REMARK VINA RESULT:     -11.9      1.757      4.659
REMARK  Name = 448605
REMARK  6 active torsions:
REMARK  status: ('A' for Active; 'I' for Inactive)
REMARK    1  A    between atoms: C_3  and  N_11
REMARK    2  A    between atoms: C_4  and  C_27
REMARK    3  A    between atoms: C_9  and  C_21
REMARK    4  A    between atoms: N_26  and  C_29
REMARK    5  A    between atoms: C_30  and  C_35
REMARK    6  A    between atoms: C_35  and  N_36
REMARK                            x       y       z     vdW  Elec       q    Type
REMARK                         _______ _______ _______ _____ _____    ______ ____
ROOT
ATOM      1  C   UNL     1      34.966 -23.188 -16.091  0.00  0.00    +0.014 C 
ATOM      2  C   UNL     1      35.986 -22.433 -16.719  0.00  0.00    +0.001 C 
ATOM      3  C   UNL     1      33.675 -23.192 -16.642  0.00  0.00    +0.057 C 
ATOM      4  C   UNL     1      34.393 -21.718 -18.414  0.00  0.00    +0.055 C 
ATOM      5  C   UNL     1      35.682 -21.703 -17.881  0.00  0.00    +0.005 C 
ATOM      6  C   UNL     1      33.391 -22.461 -17.796  0.00  0.00    +0.020 C 
ATOM      7  C   UNL     1      35.269 -23.918 -14.930  0.00  0.00    +0.004 C 
ATOM      8  C   UNL     1      37.277 -22.429 -16.168  0.00  0.00    +0.000 C 
ATOM      9  C   UNL     1      36.559 -23.903 -14.396  0.00  0.00    +0.031 C 
ATOM     10  C   UNL     1      37.561 -23.160 -15.014  0.00  0.00    +0.003 C 
ENDROOT
BRANCH   3  11
ATOM     11  N   UNL     1      32.619 -23.930 -16.054  0.00  0.00    -0.257 N 
ATOM     12  N   UNL     1      30.774 -22.554 -16.506  0.00  0.00    -0.180 NA
ATOM     13  N   UNL     1      30.506 -24.627 -15.308  0.00  0.00    -0.203 NA
ATOM     14  C   UNL     1      31.239 -23.693 -15.952  0.00  0.00    +0.091 C 
ATOM     15  C   UNL     1      29.444 -22.358 -16.390  0.00  0.00    +0.108 C 
ATOM     16  C   UNL     1      29.184 -24.367 -15.228  0.00  0.00    +0.165 C 
ATOM     17  C   UNL     1      28.592 -23.239 -15.756  0.00  0.00    +0.022 C 
ATOM     18  H   UNL     1      32.909 -24.772 -15.635  0.00  0.00    +0.164 HD
ENDBRANCH   3  11
BRANCH   9  21
ATOM     19  N   UNL     1      38.167 -24.997 -12.853  0.00  0.00    -0.343 N 
ATOM     20  N   UNL     1      35.875 -25.057 -12.402  0.00  0.00    -0.285 NA
ATOM     21  C   UNL     1      36.857 -24.664 -13.193  0.00  0.00    +0.117 C 
ATOM     22  H   UNL     1      38.346 -25.513 -12.034  0.00  0.00    +0.144 HD
ATOM     23  H   UNL     1      38.913 -24.716 -13.431  0.00  0.00    +0.144 HD
ATOM     24  H   UNL     1      36.075 -25.572 -11.588  0.00  0.00    +0.188 HD
ENDBRANCH   9  21
BRANCH   4  27
ATOM     25  O   UNL     1      32.960 -21.032 -20.113  0.00  0.00    -0.270 OA
ATOM     26  N   UNL     1      35.141 -20.166 -20.114  0.00  0.00    -0.280 N 
ATOM     27  C   UNL     1      34.095 -20.957 -19.618  0.00  0.00    +0.250 C 
ATOM     28  H   UNL     1      35.987 -20.211 -19.614  0.00  0.00    +0.155 HD
BRANCH  26  29
ATOM     29  C   UNL     1      35.139 -19.309 -21.243  0.00  0.00    +0.051 C 
ATOM     30  C   UNL     1      35.135 -17.636 -23.448  0.00  0.00    -0.044 C 
ATOM     31  C   UNL     1      35.606 -18.014 -21.109  0.00  0.00    +0.014 C 
ATOM     32  C   UNL     1      34.668 -19.788 -22.454  0.00  0.00    +0.014 C 
ATOM     33  C   UNL     1      35.604 -17.170 -22.220  0.00  0.00    -0.005 C 
ATOM     34  C   UNL     1      34.667 -18.944 -23.565  0.00  0.00    -0.005 C 
BRANCH  30  35
ATOM     35  C   UNL     1      35.133 -16.734 -24.636  0.00  0.00    -0.059 C 
BRANCH  35  36
ATOM     36  N   UNL     1      35.584 -15.404 -24.314  0.00  0.00    +0.383 N 
ATOM     37  H   UNL     1      35.630 -15.295 -23.301  0.00  0.00    -0.089 HD
ATOM     38  H   UNL     1      34.931 -14.721 -24.700  0.00  0.00    -0.089 HD
ATOM     39  H   UNL     1      36.510 -15.253 -24.715  0.00  0.00    -0.089 HD
ENDBRANCH  35  36
ENDBRANCH  30  35
ENDBRANCH  26  29
ENDBRANCH   4  27
TORSDOF 6
ENDMDL
MODEL 3
REMARK VINA RESULT:     -11.0      3.058      8.249
REMARK  Name = 448605
REMARK  6 active torsions:
REMARK  status: ('A' for Active; 'I' for Inactive)
REMARK    1  A    between atoms: C_3  and  N_11
REMARK    2  A    between atoms: C_4  and  C_27
REMARK    3  A    between atoms: C_9  and  C_21
REMARK    4  A    between atoms: N_26  and  C_29
REMARK    5  A    between atoms: C_30  and  C_35
REMARK    6  A    between atoms: C_35  and  N_36
REMARK                            x       y       z     vdW  Elec       q    Type
REMARK                         _______ _______ _______ _____ _____    ______ ____
ROOT
ATOM      1  C   UNL     1      30.963 -22.925 -16.088  0.00  0.00    +0.014 C 
ATOM      2  C   UNL     1      30.957 -23.655 -14.875  0.00  0.00    +0.001 C 
ATOM      3  C   UNL     1      32.188 -22.639 -16.711  0.00  0.00    +0.057 C 
ATOM      4  C   UNL     1      33.386 -23.782 -14.954  0.00  0.00    +0.055 C 
ATOM      5  C   UNL     1      32.178 -24.077 -14.321  0.00  0.00    +0.005 C 
ATOM      6  C   UNL     1      33.391 -23.065 -16.147  0.00  0.00    +0.020 C 
ATOM      7  C   UNL     1      29.743 -22.505 -16.642  0.00  0.00    +0.004 C 
ATOM      8  C   UNL     1      29.732 -23.941 -14.251  0.00  0.00    +0.000 C 
ATOM      9  C   UNL     1      28.534 -22.799 -16.009  0.00  0.00    +0.031 C 
ATOM     10  C   UNL     1      28.529 -23.516 -14.816  0.00  0.00    +0.003 C 
ENDROOT
BRANCH   3  11
ATOM     11  N   UNL     1      32.251 -21.913 -17.926  0.00  0.00    -0.257 N 
ATOM     12  N   UNL     1      34.566 -21.813 -18.295  0.00  0.00    -0.180 NA
ATOM     13  N   UNL     1      33.022 -20.801 -19.843  0.00  0.00    -0.203 NA
ATOM     14  C   UNL     1      33.327 -21.491 -18.723  0.00  0.00    +0.091 C 
ATOM     15  C   UNL     1      35.576 -21.392 -19.084  0.00  0.00    +0.108 C 
ATOM     16  C   UNL     1      34.080 -20.410 -20.585  0.00  0.00    +0.165 C 
ATOM     17  C   UNL     1      35.391 -20.680 -20.251  0.00  0.00    +0.022 C 
ATOM     18  H   UNL     1      31.370 -21.654 -18.280  0.00  0.00    +0.164 HD
ENDBRANCH   3  11
BRANCH   9  21
ATOM     19  N   UNL     1      27.130 -22.228 -17.975  0.00  0.00    -0.343 N 
ATOM     20  N   UNL     1      26.255 -22.063 -15.814  0.00  0.00    -0.285 NA
ATOM     21  C   UNL     1      27.279 -22.356 -16.595  0.00  0.00    +0.117 C 
ATOM     22  H   UNL     1      26.272 -21.926 -18.351  0.00  0.00    +0.144 HD
ATOM     23  H   UNL     1      27.883 -22.438 -18.574  0.00  0.00    +0.144 HD
ATOM     24  H   UNL     1      25.405 -21.763 -16.210  0.00  0.00    +0.188 HD
ENDBRANCH   9  21
BRANCH   4  27
ATOM     25  O   UNL     1      34.725 -24.332 -13.134  0.00  0.00    -0.270 OA
ATOM     26  N   UNL     1      35.667 -24.525 -15.274  0.00  0.00    -0.280 N 
ATOM     27  C   UNL     1      34.641 -24.226 -14.367  0.00  0.00    +0.250 C 
ATOM     28  H   UNL     1      35.452 -24.390 -16.225  0.00  0.00    +0.155 HD
BRANCH  26  29
ATOM     29  C   UNL     1      36.975 -24.996 -15.001  0.00  0.00    +0.051 C 
ATOM     30  C   UNL     1      39.530 -25.918 -14.467  0.00  0.00    -0.044 C 
ATOM     31  C   UNL     1      37.983 -24.083 -14.743  0.00  0.00    +0.014 C 
ATOM     32  C   UNL     1      37.216 -26.360 -14.998  0.00  0.00    +0.014 C 
ATOM     33  C   UNL     1      39.270 -24.547 -14.474  0.00  0.00    -0.005 C 
ATOM     34  C   UNL     1      38.503 -26.823 -14.729  0.00  0.00    -0.005 C 
BRANCH  30  35
ATOM     35  C   UNL     1      40.907 -26.413 -14.179  0.00  0.00    -0.059 C 
BRANCH  35  36
ATOM     36  N   UNL     1      41.173 -27.684 -14.802  0.00  0.00    +0.383 N 
ATOM     37  H   UNL     1      40.296 -28.106 -15.106  0.00  0.00    -0.089 HD
ATOM     38  H   UNL     1      41.633 -28.302 -14.133  0.00  0.00    -0.089 HD
ATOM     39  H   UNL     1      41.782 -27.546 -15.609  0.00  0.00    -0.089 HD
ENDBRANCH  35  36
ENDBRANCH  30  35
ENDBRANCH  26  29
ENDBRANCH   4  27
TORSDOF 6
ENDMDL
MODEL 4
REMARK VINA RESULT:      -9.6      1.897      4.514
REMARK  Name = 448605
REMARK  6 active torsions:
REMARK  status: ('A' for Active; 'I' for Inactive)
REMARK    1  A    between atoms: C_3  and  N_11
REMARK    2  A    between atoms: C_4  and  C_27
REMARK    3  A    between atoms: C_9  and  C_21
REMARK    4  A    between atoms: N_26  and  C_29
REMARK    5  A    between atoms: C_30  and  C_35
REMARK    6  A    between atoms: C_35  and  N_36
REMARK                            x       y       z     vdW  Elec       q    Type
REMARK                         _______ _______ _______ _____ _____    ______ ____
ROOT
ATOM      1  C   UNL     1      35.402 -23.048 -14.828  0.00  0.00    +0.014 C 
ATOM      2  C   UNL     1      36.458 -22.853 -15.751  0.00  0.00    +0.001 C 
ATOM      3  C   UNL     1      34.080 -22.810 -15.237  0.00  0.00    +0.057 C 
ATOM      4  C   UNL     1      34.840 -22.192 -17.443  0.00  0.00    +0.055 C 
ATOM      5  C   UNL     1      36.159 -22.425 -17.055  0.00  0.00    +0.005 C 
ATOM      6  C   UNL     1      33.802 -22.385 -16.536  0.00  0.00    +0.020 C 
ATOM      7  C   UNL     1      35.700 -23.477 -13.525  0.00  0.00    +0.004 C 
ATOM      8  C   UNL     1      37.780 -23.091 -15.342  0.00  0.00    +0.000 C 
ATOM      9  C   UNL     1      37.020 -23.710 -13.136  0.00  0.00    +0.031 C 
ATOM     10  C   UNL     1      38.058 -23.518 -14.043  0.00  0.00    +0.003 C 
ENDROOT
BRANCH   3  11
ATOM     11  N   UNL     1      32.986 -22.990 -14.354  0.00  0.00    -0.257 N 
ATOM     12  N   UNL     1      31.492 -24.199 -15.700  0.00  0.00    -0.180 NA
ATOM     13  N   UNL     1      30.919 -23.611 -13.434  0.00  0.00    -0.203 NA
ATOM     14  C   UNL     1      31.744 -23.629 -14.503  0.00  0.00    +0.091 C 
ATOM     15  C   UNL     1      30.290 -24.802 -15.807  0.00  0.00    +0.108 C 
ATOM     16  C   UNL     1      29.734 -24.232 -13.611  0.00  0.00    +0.165 C 
ATOM     17  C   UNL     1      29.362 -24.852 -14.787  0.00  0.00    +0.022 C 
ATOM     18  H   UNL     1      33.124 -22.590 -13.466  0.00  0.00    +0.164 HD
ENDBRANCH   3  11
BRANCH   9  21
ATOM     19  N   UNL     1      36.357 -24.820 -11.016  0.00  0.00    -0.343 N 
ATOM     20  N   UNL     1      38.502 -23.924 -11.256  0.00  0.00    -0.285 NA
ATOM     21  C   UNL     1      37.312 -24.154 -11.782  0.00  0.00    +0.117 C 
ATOM     22  H   UNL     1      36.576 -25.112 -10.102  0.00  0.00    +0.144 HD
ATOM     23  H   UNL     1      35.463 -24.999 -11.389  0.00  0.00    +0.144 HD
ATOM     24  H   UNL     1      38.701 -24.224 -10.340  0.00  0.00    +0.188 HD
ENDBRANCH   9  21
BRANCH   4  27
ATOM     25  O   UNL     1      33.662 -22.328 -19.444  0.00  0.00    -0.270 OA
ATOM     26  N   UNL     1      35.300 -20.659 -19.259  0.00  0.00    -0.280 N 
ATOM     27  C   UNL     1      34.548 -21.748 -18.798  0.00  0.00    +0.250 C 
ATOM     28  H   UNL     1      35.969 -20.304 -18.631  0.00  0.00    +0.155 HD
BRANCH  26  29
ATOM     29  C   UNL     1      35.222 -20.001 -20.511  0.00  0.00    +0.051 C 
ATOM     30  C   UNL     1      35.069 -18.716 -22.959  0.00  0.00    -0.044 C 
ATOM     31  C   UNL     1      36.361 -19.422 -21.043  0.00  0.00    +0.014 C 
ATOM     32  C   UNL     1      34.007 -19.952 -21.175  0.00  0.00    +0.014 C 
ATOM     33  C   UNL     1      36.284 -18.774 -22.276  0.00  0.00    -0.005 C 
ATOM     34  C   UNL     1      33.931 -19.305 -22.408  0.00  0.00    -0.005 C 
BRANCH  30  35
ATOM     35  C   UNL     1      34.987 -18.024 -24.277  0.00  0.00    -0.059 C 
BRANCH  35  36
ATOM     36  N   UNL     1      33.636 -17.944 -24.771  0.00  0.00    +0.383 N 
ATOM     37  H   UNL     1      33.201 -17.085 -24.436  0.00  0.00    -0.089 HD
ATOM     38  H   UNL     1      33.103 -18.747 -24.437  0.00  0.00    -0.089 HD
ATOM     39  H   UNL     1      33.647 -17.945 -25.791  0.00  0.00    -0.089 HD
ENDBRANCH  35  36
ENDBRANCH  30  35
ENDBRANCH  26  29
ENDBRANCH   4  27
TORSDOF 6
ENDMDL
MODEL 5
REMARK VINA RESULT:      -9.6      1.000      1.280
REMARK  Name = 448605
REMARK  6 active torsions:
REMARK  status: ('A' for Active; 'I' for Inactive)
REMARK    1  A    between atoms: C_3  and  N_11
REMARK    2  A    between atoms: C_4  and  C_27
REMARK    3  A    between atoms: C_9  and  C_21
REMARK    4  A    between atoms: N_26  and  C_29
REMARK    5  A    between atoms: C_30  and  C_35
REMARK    6  A    between atoms: C_35  and  N_36
REMARK                            x       y       z     vdW  Elec       q    Type
REMARK                         _______ _______ _______ _____ _____    ______ ____
ROOT
ATOM      1  C   UNL     1      33.984 -23.042 -16.450  0.00  0.00    +0.014 C 
ATOM      2  C   UNL     1      33.062 -22.426 -17.331  0.00  0.00    +0.001 C 
ATOM      3  C   UNL     1      35.360 -22.925 -16.703  0.00  0.00    +0.057 C 
ATOM      4  C   UNL     1      34.917 -21.605 -18.676  0.00  0.00    +0.055 C 
ATOM      5  C   UNL     1      33.546 -21.710 -18.439  0.00  0.00    +0.005 C 
ATOM      6  C   UNL     1      35.823 -22.211 -17.809  0.00  0.00    +0.020 C 
ATOM      7  C   UNL     1      33.501 -23.757 -15.342  0.00  0.00    +0.004 C 
ATOM      8  C   UNL     1      31.687 -22.543 -17.078  0.00  0.00    +0.000 C 
ATOM      9  C   UNL     1      32.129 -23.863 -15.106  0.00  0.00    +0.031 C 
ATOM     10  C   UNL     1      31.224 -23.256 -15.972  0.00  0.00    +0.003 C 
ENDROOT
BRANCH   3  11
ATOM     11  N   UNL     1      36.324 -23.522 -15.854  0.00  0.00    -0.257 N 
ATOM     12  N   UNL     1      35.479 -22.985 -13.732  0.00  0.00    -0.180 NA
ATOM     13  N   UNL     1      37.515 -24.252 -13.969  0.00  0.00    -0.203 NA
ATOM     14  C   UNL     1      36.444 -23.589 -14.457  0.00  0.00    +0.091 C 
ATOM     15  C   UNL     1      35.626 -23.069 -12.394  0.00  0.00    +0.108 C 
ATOM     16  C   UNL     1      37.600 -24.297 -12.622  0.00  0.00    +0.165 C 
ATOM     17  C   UNL     1      36.675 -23.719 -11.777  0.00  0.00    +0.022 C 
ATOM     18  H   UNL     1      37.051 -23.976 -16.338  0.00  0.00    +0.164 HD
ENDBRANCH   3  11
BRANCH   9  21
ATOM     19  N   UNL     1      30.332 -24.474 -13.505  0.00  0.00    -0.343 N 
ATOM     20  N   UNL     1      32.458 -25.423 -13.308  0.00  0.00    -0.285 NA
ATOM     21  C   UNL     1      31.645 -24.606 -13.953  0.00  0.00    +0.117 C 
ATOM     22  H   UNL     1      30.025 -24.986 -12.723  0.00  0.00    +0.144 HD
ATOM     23  H   UNL     1      29.711 -23.867 -13.971  0.00  0.00    +0.144 HD
ATOM     24  H   UNL     1      32.132 -25.927 -12.527  0.00  0.00    +0.188 HD
ENDBRANCH   9  21
BRANCH   4  27
ATOM     25  O   UNL     1      36.482 -21.184 -20.345  0.00  0.00    -0.270 OA
ATOM     26  N   UNL     1      34.569 -19.827 -20.280  0.00  0.00    -0.280 N 
ATOM     27  C   UNL     1      35.401 -20.860 -19.828  0.00  0.00    +0.250 C 
ATOM     28  H   UNL     1      33.742 -19.687 -19.767  0.00  0.00    +0.155 HD
BRANCH  26  29
ATOM     29  C   UNL     1      34.764 -18.957 -21.382  0.00  0.00    +0.051 C 
ATOM     30  C   UNL     1      35.143 -17.257 -23.533  0.00  0.00    -0.044 C 
ATOM     31  C   UNL     1      34.280 -19.323 -22.626  0.00  0.00    +0.014 C 
ATOM     32  C   UNL     1      35.433 -17.760 -21.189  0.00  0.00    +0.014 C 
ATOM     33  C   UNL     1      34.472 -18.467 -23.710  0.00  0.00    -0.005 C 
ATOM     34  C   UNL     1      35.623 -16.904 -22.272  0.00  0.00    -0.005 C 
BRANCH  30  35
ATOM     35  C   UNL     1      35.347 -16.342 -24.693  0.00  0.00    -0.059 C 
BRANCH  35  36
ATOM     36  N   UNL     1      34.500 -15.178 -24.628  0.00  0.00    +0.383 N 
ATOM     37  H   UNL     1      34.199 -14.923 -25.569  0.00  0.00    -0.089 HD
ATOM     38  H   UNL     1      35.018 -14.403 -24.215  0.00  0.00    -0.089 HD
ATOM     39  H   UNL     1      33.683 -15.385 -24.054  0.00  0.00    -0.089 HD
ENDBRANCH  35  36
ENDBRANCH  30  35
ENDBRANCH  26  29
ENDBRANCH   4  27
TORSDOF 6
ENDMDL
