MODEL 1
REMARK VINA RESULT:     -12.3      0.000      0.000
REMARK  Name = 448889
REMARK  5 active torsions:
REMARK  status: ('A' for Active; 'I' for Inactive)
REMARK    1  A    between atoms: C_1  and  N_2
REMARK    2  A    between atoms: C_1  and  C_16
REMARK    3  A    between atoms: C_6  and  C_10
REMARK    4  A    between atoms: C_16  and  C_17
REMARK    5  A    between atoms: C_17  and  C_21
REMARK                            x       y       z     vdW  Elec       q    Type
REMARK                         _______ _______ _______ _____ _____    ______ ____
ROOT
ATOM      1  C   UNL     1      35.235 -16.013 -24.572  0.00  0.00    -0.076 C 
ENDROOT
BRANCH   1   2
ATOM      2  N   UNL     1      34.914 -16.887 -23.447  0.00  0.00    +0.390 N 
ATOM      3  C   UNL     1      36.046 -16.996 -22.522  0.00  0.00    -0.072 C 
ATOM      4  C   UNL     1      35.624 -17.782 -21.271  0.00  0.00    +0.003 C 
ATOM      5  C   UNL     1      34.501 -18.217 -23.922  0.00  0.00    -0.051 C 
ATOM      6  C   UNL     1      34.893 -19.065 -21.598  0.00  0.00    -0.031 C 
ATOM      7  C   UNL     1      34.383 -19.248 -22.831  0.00  0.00    -0.053 C 
ATOM      8  H   UNL     1      34.133 -16.471 -22.940  0.00  0.00    -0.079 HD
BRANCH   6  10
ATOM      9  F   UNL     1      34.378 -22.937 -17.564  0.00  0.00    -0.204 F 
ATOM     10  C   UNL     1      34.756 -20.087 -20.533  0.00  0.00    -0.004 C 
ATOM     11  C   UNL     1      33.490 -20.476 -20.093  0.00  0.00    +0.002 C 
ATOM     12  C   UNL     1      35.895 -20.665 -19.968  0.00  0.00    +0.002 C 
ATOM     13  C   UNL     1      33.361 -21.439 -19.091  0.00  0.00    +0.030 C 
ATOM     14  C   UNL     1      35.767 -21.628 -18.966  0.00  0.00    +0.030 C 
ATOM     15  C   UNL     1      34.500 -22.014 -18.527  0.00  0.00    +0.140 C 
ENDBRANCH   6  10
ENDBRANCH   1   2
BRANCH   1  16
ATOM     16  C   UNL     1      34.200 -14.889 -24.681  0.00  0.00    -0.014 C 
BRANCH  16  17
ATOM     17  C   UNL     1      33.843 -14.293 -23.329  0.00  0.00    +0.074 C 
BRANCH  17  21
ATOM     18  O   UNL     1      35.113 -10.196 -25.244  0.00  0.00    -0.209 OA
ATOM     19  N   UNL     1      32.900 -12.168 -22.545  0.00  0.00    -0.290 N 
ATOM     20  N   UNL     1      34.498 -12.198 -24.314  0.00  0.00    -0.322 NA
ATOM     21  C   UNL     1      33.758 -12.790 -23.421  0.00  0.00    +0.173 C 
ATOM     22  C   UNL     1      32.780 -10.777 -22.584  0.00  0.00    +0.058 C 
ATOM     23  C   UNL     1      33.540 -10.058 -23.518  0.00  0.00    +0.108 C 
ATOM     24  C   UNL     1      31.924 -10.087 -21.722  0.00  0.00    -0.008 C 
ATOM     25  C   UNL     1      34.444 -10.819 -24.427  0.00  0.00    +0.207 C 
ATOM     26  C   UNL     1      33.448  -8.665 -23.591  0.00  0.00    +0.014 C 
ATOM     27  C   UNL     1      31.831  -8.696 -21.792  0.00  0.00    -0.003 C 
ATOM     28  C   UNL     1      32.591  -7.988 -22.723  0.00  0.00    +0.001 C 
ATOM     29  C   UNL     1      31.092 -10.805 -20.709  0.00  0.00    +0.032 C 
ATOM     30  H   UNL     1      32.378 -12.695 -21.899  0.00  0.00    +0.154 HD
ENDBRANCH  17  21
ENDBRANCH  16  17
ENDBRANCH   1  16
TORSDOF 5
ENDMDL
MODEL 2
REMARK VINA RESULT:     -12.3      1.564      2.565
REMARK  Name = 448889
REMARK  5 active torsions:
REMARK  status: ('A' for Active; 'I' for Inactive)
REMARK    1  A    between atoms: C_1  and  N_2
REMARK    2  A    between atoms: C_1  and  C_16
REMARK    3  A    between atoms: C_6  and  C_10
REMARK    4  A    between atoms: C_16  and  C_17
REMARK    5  A    between atoms: C_17  and  C_21
REMARK                            x       y       z     vdW  Elec       q    Type
REMARK                         _______ _______ _______ _____ _____    ______ ____
ROOT
ATOM      1  C   UNL     1      35.339 -15.680 -24.680  0.00  0.00    -0.076 C 
ENDROOT
BRANCH   1   2
ATOM      2  N   UNL     1      35.468 -16.812 -23.765  0.00  0.00    +0.390 N 
ATOM      3  C   UNL     1      34.436 -17.820 -24.022  0.00  0.00    -0.072 C 
ATOM      4  C   UNL     1      34.699 -19.066 -23.163  0.00  0.00    +0.003 C 
ATOM      5  C   UNL     1      35.415 -16.359 -22.366  0.00  0.00    -0.051 C 
ATOM      6  C   UNL     1      34.974 -18.737 -21.713  0.00  0.00    -0.031 C 
ATOM      7  C   UNL     1      35.302 -17.477 -21.365  0.00  0.00    -0.053 C 
ATOM      8  H   UNL     1      36.377 -17.244 -23.929  0.00  0.00    -0.079 HD
BRANCH   6  10
ATOM      9  F   UNL     1      34.610 -22.867 -17.927  0.00  0.00    -0.204 F 
ATOM     10  C   UNL     1      34.879 -19.827 -20.713  0.00  0.00    -0.004 C 
ATOM     11  C   UNL     1      36.039 -20.400 -20.187  0.00  0.00    +0.002 C 
ATOM     12  C   UNL     1      33.628 -20.284 -20.294  0.00  0.00    +0.002 C 
ATOM     13  C   UNL     1      35.949 -21.425 -19.246  0.00  0.00    +0.030 C 
ATOM     14  C   UNL     1      33.538 -21.310 -19.352  0.00  0.00    +0.030 C 
ATOM     15  C   UNL     1      34.698 -21.881 -18.829  0.00  0.00    +0.140 C 
ENDBRANCH   6  10
ENDBRANCH   1   2
BRANCH   1  16
ATOM     16  C   UNL     1      34.021 -14.943 -24.427  0.00  0.00    -0.014 C 
BRANCH  16  17
ATOM     17  C   UNL     1      34.181 -13.432 -24.466  0.00  0.00    +0.074 C 
BRANCH  17  21
ATOM     18  O   UNL     1      32.336 -13.709 -20.154  0.00  0.00    -0.209 OA
ATOM     19  N   UNL     1      33.313 -11.446 -23.316  0.00  0.00    -0.290 N 
ATOM     20  N   UNL     1      33.237 -13.581 -22.257  0.00  0.00    -0.322 NA
ATOM     21  C   UNL     1      33.535 -12.802 -23.257  0.00  0.00    +0.173 C 
ATOM     22  C   UNL     1      32.718 -10.808 -22.225  0.00  0.00    +0.058 C 
ATOM     23  C   UNL     1      32.365 -11.571 -21.104  0.00  0.00    +0.108 C 
ATOM     24  C   UNL     1      32.468  -9.433 -22.223  0.00  0.00    -0.008 C 
ATOM     25  C   UNL     1      32.645 -13.036 -21.131  0.00  0.00    +0.207 C 
ATOM     26  C   UNL     1      31.769 -10.971 -19.991  0.00  0.00    +0.014 C 
ATOM     27  C   UNL     1      31.872  -8.831 -21.114  0.00  0.00    -0.003 C 
ATOM     28  C   UNL     1      31.523  -9.598 -20.002  0.00  0.00    +0.001 C 
ATOM     29  C   UNL     1      32.824  -8.574 -23.393  0.00  0.00    +0.032 C 
ATOM     30  H   UNL     1      33.570 -10.933 -24.115  0.00  0.00    +0.154 HD
ENDBRANCH  17  21
ENDBRANCH  16  17
ENDBRANCH   1  16
TORSDOF 5
ENDMDL
MODEL 3
REMARK VINA RESULT:     -12.0      4.133     10.117
REMARK  Name = 448889
REMARK  5 active torsions:
REMARK  status: ('A' for Active; 'I' for Inactive)
REMARK    1  A    between atoms: C_1  and  N_2
REMARK    2  A    between atoms: C_1  and  C_16
REMARK    3  A    between atoms: C_6  and  C_10
REMARK    4  A    between atoms: C_16  and  C_17
REMARK    5  A    between atoms: C_17  and  C_21
REMARK                            x       y       z     vdW  Elec       q    Type
REMARK                         _______ _______ _______ _____ _____    ______ ____
ROOT
ATOM      1  C   UNL     1      33.456 -15.480 -25.258  0.00  0.00    -0.076 C 
ENDROOT
BRANCH   1   2
ATOM      2  N   UNL     1      33.367 -14.061 -24.922  0.00  0.00    +0.390 N 
ATOM      3  C   UNL     1      33.835 -13.225 -26.032  0.00  0.00    -0.072 C 
ATOM      4  C   UNL     1      33.574 -11.745 -25.716  0.00  0.00    +0.003 C 
ATOM      5  C   UNL     1      34.125 -13.767 -23.696  0.00  0.00    -0.051 C 
ATOM      6  C   UNL     1      34.032 -11.346 -24.331  0.00  0.00    -0.031 C 
ATOM      7  C   UNL     1      34.284 -12.298 -23.412  0.00  0.00    -0.053 C 
ATOM      8  H   UNL     1      32.386 -13.840 -24.754  0.00  0.00    -0.079 HD
BRANCH   6  10
ATOM      9  F   UNL     1      34.605  -5.881 -23.180  0.00  0.00    -0.204 F 
ATOM     10  C   UNL     1      34.184  -9.903 -24.028  0.00  0.00    -0.004 C 
ATOM     11  C   UNL     1      35.392  -9.254 -24.291  0.00  0.00    +0.002 C 
ATOM     12  C   UNL     1      33.118  -9.188 -23.478  0.00  0.00    +0.002 C 
ATOM     13  C   UNL     1      35.534  -7.896 -24.006  0.00  0.00    +0.030 C 
ATOM     14  C   UNL     1      33.260  -7.830 -23.193  0.00  0.00    +0.030 C 
ATOM     15  C   UNL     1      34.468  -7.184 -23.455  0.00  0.00    +0.140 C 
ENDBRANCH   6  10
ENDBRANCH   1   2
BRANCH   1  16
ATOM     16  C   UNL     1      34.486 -16.172 -24.361  0.00  0.00    -0.014 C 
BRANCH  16  17
ATOM     17  C   UNL     1      34.330 -17.685 -24.355  0.00  0.00    +0.074 C 
BRANCH  17  21
ATOM     18  O   UNL     1      38.334 -18.419 -22.010  0.00  0.00    -0.209 OA
ATOM     19  N   UNL     1      34.386 -19.043 -22.312  0.00  0.00    -0.290 N 
ATOM     20  N   UNL     1      36.385 -18.058 -23.158  0.00  0.00    -0.322 NA
ATOM     21  C   UNL     1      35.105 -18.289 -23.210  0.00  0.00    +0.173 C 
ATOM     22  C   UNL     1      35.050 -19.627 -21.231  0.00  0.00    +0.058 C 
ATOM     23  C   UNL     1      36.430 -19.427 -21.097  0.00  0.00    +0.108 C 
ATOM     24  C   UNL     1      34.374 -20.401 -20.284  0.00  0.00    -0.008 C 
ATOM     25  C   UNL     1      37.126 -18.596 -22.121  0.00  0.00    +0.207 C 
ATOM     26  C   UNL     1      37.132 -19.994 -20.029  0.00  0.00    +0.014 C 
ATOM     27  C   UNL     1      35.073 -20.969 -19.216  0.00  0.00    -0.003 C 
ATOM     28  C   UNL     1      36.447 -20.766 -19.091  0.00  0.00    +0.001 C 
ATOM     29  C   UNL     1      32.903 -20.645 -20.381  0.00  0.00    +0.032 C 
ATOM     30  H   UNL     1      33.417 -19.168 -22.429  0.00  0.00    +0.154 HD
ENDBRANCH  17  21
ENDBRANCH  16  17
ENDBRANCH   1  16
TORSDOF 5
ENDMDL
MODEL 4
REMARK VINA RESULT:     -11.9      1.053      1.961
REMARK  Name = 448889
REMARK  5 active torsions:
REMARK  status: ('A' for Active; 'I' for Inactive)
REMARK    1  A    between atoms: C_1  and  N_2
REMARK    2  A    between atoms: C_1  and  C_16
REMARK    3  A    between atoms: C_6  and  C_10
REMARK    4  A    between atoms: C_16  and  C_17
REMARK    5  A    between atoms: C_17  and  C_21
REMARK                            x       y       z     vdW  Elec       q    Type
REMARK                         _______ _______ _______ _____ _____    ______ ____
ROOT
ATOM      1  C   UNL     1      35.385 -15.773 -24.667  0.00  0.00    -0.076 C 
ENDROOT
BRANCH   1   2
ATOM      2  N   UNL     1      35.527 -16.892 -23.738  0.00  0.00    +0.390 N 
ATOM      3  C   UNL     1      34.507 -17.916 -23.984  0.00  0.00    -0.072 C 
ATOM      4  C   UNL     1      34.784 -19.148 -23.109  0.00  0.00    +0.003 C 
ATOM      5  C   UNL     1      35.467 -16.423 -22.345  0.00  0.00    -0.051 C 
ATOM      6  C   UNL     1      35.054 -18.797 -21.663  0.00  0.00    -0.031 C 
ATOM      7  C   UNL     1      35.365 -17.530 -21.330  0.00  0.00    -0.053 C 
ATOM      8  H   UNL     1      36.442 -17.315 -23.895  0.00  0.00    -0.079 HD
BRANCH   6  10
ATOM      9  F   UNL     1      34.734 -22.885 -17.826  0.00  0.00    -0.204 F 
ATOM     10  C   UNL     1      34.970 -19.876 -20.650  0.00  0.00    -0.004 C 
ATOM     11  C   UNL     1      36.136 -20.431 -20.118  0.00  0.00    +0.002 C 
ATOM     12  C   UNL     1      33.724 -20.340 -20.223  0.00  0.00    +0.002 C 
ATOM     13  C   UNL     1      36.057 -21.446 -19.164  0.00  0.00    +0.030 C 
ATOM     14  C   UNL     1      33.645 -21.356 -19.269  0.00  0.00    +0.030 C 
ATOM     15  C   UNL     1      34.811 -21.909 -18.741  0.00  0.00    +0.140 C 
ENDBRANCH   6  10
ENDBRANCH   1   2
BRANCH   1  16
ATOM     16  C   UNL     1      34.361 -14.769 -24.133  0.00  0.00    -0.014 C 
BRANCH  16  17
ATOM     17  C   UNL     1      34.434 -13.427 -24.844  0.00  0.00    +0.074 C 
BRANCH  17  21
ATOM     18  O   UNL     1      33.303  -8.935 -24.058  0.00  0.00    -0.209 OA
ATOM     19  N   UNL     1      33.331 -12.730 -22.766  0.00  0.00    -0.290 N 
ATOM     20  N   UNL     1      33.857 -11.125 -24.448  0.00  0.00    -0.322 NA
ATOM     21  C   UNL     1      33.841 -12.340 -23.982  0.00  0.00    +0.173 C 
ATOM     22  C   UNL     1      32.769 -11.767 -21.926  0.00  0.00    +0.058 C 
ATOM     23  C   UNL     1      32.743 -10.431 -22.349  0.00  0.00    +0.108 C 
ATOM     24  C   UNL     1      32.232 -12.101 -20.679  0.00  0.00    -0.008 C 
ATOM     25  C   UNL     1      33.320 -10.103 -23.684  0.00  0.00    +0.207 C 
ATOM     26  C   UNL     1      32.188  -9.437 -21.538  0.00  0.00    +0.014 C 
ATOM     27  C   UNL     1      31.678 -11.110 -19.867  0.00  0.00    -0.003 C 
ATOM     28  C   UNL     1      31.657  -9.782 -20.295  0.00  0.00    +0.001 C 
ATOM     29  C   UNL     1      32.234 -13.510 -20.181  0.00  0.00    +0.032 C 
ATOM     30  H   UNL     1      33.361 -13.675 -22.493  0.00  0.00    +0.154 HD
ENDBRANCH  17  21
ENDBRANCH  16  17
ENDBRANCH   1  16
TORSDOF 5
ENDMDL
MODEL 5
REMARK VINA RESULT:     -11.9      1.346      2.671
REMARK  Name = 448889
REMARK  5 active torsions:
REMARK  status: ('A' for Active; 'I' for Inactive)
REMARK    1  A    between atoms: C_1  and  N_2
REMARK    2  A    between atoms: C_1  and  C_16
REMARK    3  A    between atoms: C_6  and  C_10
REMARK    4  A    between atoms: C_16  and  C_17
REMARK    5  A    between atoms: C_17  and  C_21
REMARK                            x       y       z     vdW  Elec       q    Type
REMARK                         _______ _______ _______ _____ _____    ______ ____
ROOT
ATOM      1  C   UNL     1      35.473 -15.559 -24.341  0.00  0.00    -0.076 C 
ENDROOT
BRANCH   1   2
ATOM      2  N   UNL     1      35.561 -16.739 -23.484  0.00  0.00    +0.390 N 
ATOM      3  C   UNL     1      34.512 -17.710 -23.812  0.00  0.00    -0.072 C 
ATOM      4  C   UNL     1      34.732 -19.004 -23.014  0.00  0.00    +0.003 C 
ATOM      5  C   UNL     1      35.491 -16.358 -22.065  0.00  0.00    -0.051 C 
ATOM      6  C   UNL     1      34.987 -18.756 -21.544  0.00  0.00    -0.031 C 
ATOM      7  C   UNL     1      35.334 -17.523 -21.125  0.00  0.00    -0.053 C 
ATOM      8  H   UNL     1      36.463 -17.182 -23.654  0.00  0.00    -0.079 HD
BRANCH   6  10
ATOM      9  F   UNL     1      34.463 -23.067 -17.985  0.00  0.00    -0.204 F 
ATOM     10  C   UNL     1      34.849 -19.893 -20.604  0.00  0.00    -0.004 C 
ATOM     11  C   UNL     1      35.986 -20.507 -20.074  0.00  0.00    +0.002 C 
ATOM     12  C   UNL     1      33.581 -20.356 -20.245  0.00  0.00    +0.002 C 
ATOM     13  C   UNL     1      35.857 -21.577 -19.189  0.00  0.00    +0.030 C 
ATOM     14  C   UNL     1      33.451 -21.426 -19.360  0.00  0.00    +0.030 C 
ATOM     15  C   UNL     1      34.588 -22.038 -18.833  0.00  0.00    +0.140 C 
ENDBRANCH   6  10
ENDBRANCH   1   2
BRANCH   1  16
ATOM     16  C   UNL     1      35.002 -14.349 -23.529  0.00  0.00    -0.014 C 
BRANCH  16  17
ATOM     17  C   UNL     1      33.748 -13.712 -24.106  0.00  0.00    +0.074 C 
BRANCH  17  21
ATOM     18  O   UNL     1      31.833 -10.237 -21.591  0.00  0.00    -0.209 OA
ATOM     19  N   UNL     1      34.541 -11.399 -24.309  0.00  0.00    -0.290 N 
ATOM     20  N   UNL     1      32.763 -11.936 -22.815  0.00  0.00    -0.322 NA
ATOM     21  C   UNL     1      33.659 -12.262 -23.701  0.00  0.00    +0.173 C 
ATOM     22  C   UNL     1      34.505 -10.044 -23.973  0.00  0.00    +0.058 C 
ATOM     23  C   UNL     1      33.571  -9.606 -23.025  0.00  0.00    +0.108 C 
ATOM     24  C   UNL     1      35.376  -9.119 -24.555  0.00  0.00    -0.008 C 
ATOM     25  C   UNL     1      32.655 -10.615 -22.419  0.00  0.00    +0.207 C 
ATOM     26  C   UNL     1      33.504  -8.258 -22.660  0.00  0.00    +0.014 C 
ATOM     27  C   UNL     1      35.311  -7.772 -24.193  0.00  0.00    -0.003 C 
ATOM     28  C   UNL     1      34.377  -7.344 -23.249  0.00  0.00    +0.001 C 
ATOM     29  C   UNL     1      36.391  -9.533 -25.570  0.00  0.00    +0.032 C 
ATOM     30  H   UNL     1      35.188 -11.732 -24.972  0.00  0.00    +0.154 HD
ENDBRANCH  17  21
ENDBRANCH  16  17
ENDBRANCH   1  16
TORSDOF 5
ENDMDL
MODEL 6
REMARK VINA RESULT:     -11.6      4.527      7.146
REMARK  Name = 448889
REMARK  5 active torsions:
REMARK  status: ('A' for Active; 'I' for Inactive)
REMARK    1  A    between atoms: C_1  and  N_2
REMARK    2  A    between atoms: C_1  and  C_16
REMARK    3  A    between atoms: C_6  and  C_10
REMARK    4  A    between atoms: C_16  and  C_17
REMARK    5  A    between atoms: C_17  and  C_21
REMARK                            x       y       z     vdW  Elec       q    Type
REMARK                         _______ _______ _______ _____ _____    ______ ____
ROOT
ATOM      1  C   UNL     1      31.274  -9.597 -20.106  0.00  0.00    -0.076 C 
ENDROOT
BRANCH   1   2
ATOM      2  N   UNL     1      31.645 -10.766 -20.898  0.00  0.00    +0.390 N 
ATOM      3  C   UNL     1      32.380 -11.743 -20.088  0.00  0.00    -0.072 C 
ATOM      4  C   UNL     1      32.608 -13.027 -20.899  0.00  0.00    +0.003 C 
ATOM      5  C   UNL     1      32.434 -10.369 -22.075  0.00  0.00    -0.051 C 
ATOM      6  C   UNL     1      33.145 -12.762 -22.288  0.00  0.00    -0.031 C 
ATOM      7  C   UNL     1      33.057 -11.524 -22.813  0.00  0.00    -0.053 C 
ATOM      8  H   UNL     1      30.786 -11.210 -21.222  0.00  0.00    -0.079 HD
BRANCH   6  10
ATOM      9  F   UNL     1      35.443 -17.030 -25.122  0.00  0.00    -0.204 F 
ATOM     10  C   UNL     1      33.752 -13.889 -23.035  0.00  0.00    -0.004 C 
ATOM     11  C   UNL     1      34.695 -14.713 -22.418  0.00  0.00    +0.002 C 
ATOM     12  C   UNL     1      33.381 -14.130 -24.360  0.00  0.00    +0.002 C 
ATOM     13  C   UNL     1      35.266 -15.774 -23.121  0.00  0.00    +0.030 C 
ATOM     14  C   UNL     1      33.952 -15.191 -25.063  0.00  0.00    +0.030 C 
ATOM     15  C   UNL     1      34.895 -16.012 -24.445  0.00  0.00    +0.140 C 
ENDBRANCH   6  10
ENDBRANCH   1   2
BRANCH   1  16
ATOM     16  C   UNL     1      32.472  -8.654 -19.961  0.00  0.00    -0.014 C 
BRANCH  16  17
ATOM     17  C   UNL     1      32.055  -7.225 -19.654  0.00  0.00    +0.074 C 
BRANCH  17  21
ATOM     18  O   UNL     1      30.796  -3.593 -22.355  0.00  0.00    -0.209 OA
ATOM     19  N   UNL     1      33.279  -6.673 -21.708  0.00  0.00    -0.290 N 
ATOM     20  N   UNL     1      31.405  -5.364 -21.033  0.00  0.00    -0.322 NA
ATOM     21  C   UNL     1      32.238  -6.350 -20.869  0.00  0.00    +0.173 C 
ATOM     22  C   UNL     1      33.497  -5.898 -22.849  0.00  0.00    +0.058 C 
ATOM     23  C   UNL     1      32.647  -4.813 -23.103  0.00  0.00    +0.108 C 
ATOM     24  C   UNL     1      34.539  -6.175 -23.738  0.00  0.00    -0.008 C 
ATOM     25  C   UNL     1      31.545  -4.540 -22.137  0.00  0.00    +0.207 C 
ATOM     26  C   UNL     1      32.832  -4.012 -24.233  0.00  0.00    +0.014 C 
ATOM     27  C   UNL     1      34.726  -5.376 -24.868  0.00  0.00    -0.003 C 
ATOM     28  C   UNL     1      33.874  -4.299 -25.115  0.00  0.00    +0.001 C 
ATOM     29  C   UNL     1      35.474  -7.318 -23.514  0.00  0.00    +0.032 C 
ATOM     30  H   UNL     1      33.862  -7.440 -21.507  0.00  0.00    +0.154 HD
ENDBRANCH  17  21
ENDBRANCH  16  17
ENDBRANCH   1  16
TORSDOF 5
ENDMDL
MODEL 7
REMARK VINA RESULT:     -11.5      1.966      3.324
REMARK  Name = 448889
REMARK  5 active torsions:
REMARK  status: ('A' for Active; 'I' for Inactive)
REMARK    1  A    between atoms: C_1  and  N_2
REMARK    2  A    between atoms: C_1  and  C_16
REMARK    3  A    between atoms: C_6  and  C_10
REMARK    4  A    between atoms: C_16  and  C_17
REMARK    5  A    between atoms: C_17  and  C_21
REMARK                            x       y       z     vdW  Elec       q    Type
REMARK                         _______ _______ _______ _____ _____    ______ ____
ROOT
ATOM      1  C   UNL     1      34.085 -13.780 -24.509  0.00  0.00    -0.076 C 
ENDROOT
BRANCH   1   2
ATOM      2  N   UNL     1      34.222 -14.977 -23.683  0.00  0.00    +0.390 N 
ATOM      3  C   UNL     1      34.975 -14.690 -22.458  0.00  0.00    -0.072 C 
ATOM      4  C   UNL     1      34.957 -15.919 -21.536  0.00  0.00    +0.003 C 
ATOM      5  C   UNL     1      34.859 -16.064 -24.442  0.00  0.00    -0.051 C 
ATOM      6  C   UNL     1      35.303 -17.203 -22.256  0.00  0.00    -0.031 C 
ATOM      7  C   UNL     1      35.253 -17.249 -23.601  0.00  0.00    -0.053 C 
ATOM      8  H   UNL     1      33.286 -15.279 -23.413  0.00  0.00    -0.079 HD
BRANCH   6  10
ATOM      9  F   UNL     1      36.737 -21.681 -19.186  0.00  0.00    -0.204 F 
ATOM     10  C   UNL     1      35.682 -18.385 -21.445  0.00  0.00    -0.004 C 
ATOM     11  C   UNL     1      37.011 -18.574 -21.060  0.00  0.00    +0.002 C 
ATOM     12  C   UNL     1      34.710 -19.313 -21.063  0.00  0.00    +0.002 C 
ATOM     13  C   UNL     1      37.367 -19.686 -20.297  0.00  0.00    +0.030 C 
ATOM     14  C   UNL     1      35.067 -20.425 -20.300  0.00  0.00    +0.030 C 
ATOM     15  C   UNL     1      36.395 -20.612 -19.918  0.00  0.00    +0.140 C 
ENDBRANCH   6  10
ENDBRANCH   1   2
BRANCH   1  16
ATOM     16  C   UNL     1      34.381 -12.528 -23.679  0.00  0.00    -0.014 C 
BRANCH  16  17
ATOM     17  C   UNL     1      34.270 -11.249 -24.494  0.00  0.00    +0.074 C 
BRANCH  17  21
ATOM     18  O   UNL     1      31.301  -9.760 -21.171  0.00  0.00    -0.209 OA
ATOM     19  N   UNL     1      34.081  -8.871 -23.919  0.00  0.00    -0.290 N 
ATOM     20  N   UNL     1      32.747 -10.493 -22.791  0.00  0.00    -0.322 NA
ATOM     21  C   UNL     1      33.645 -10.151 -23.669  0.00  0.00    +0.173 C 
ATOM     22  C   UNL     1      33.538  -7.814 -23.185  0.00  0.00    +0.058 C 
ATOM     23  C   UNL     1      32.565  -8.091 -22.216  0.00  0.00    +0.108 C 
ATOM     24  C   UNL     1      33.942  -6.491 -23.391  0.00  0.00    -0.008 C 
ATOM     25  C   UNL     1      32.155  -9.511 -22.016  0.00  0.00    +0.207 C 
ATOM     26  C   UNL     1      31.998  -7.062 -21.460  0.00  0.00    +0.014 C 
ATOM     27  C   UNL     1      33.376  -5.461 -22.638  0.00  0.00    -0.003 C 
ATOM     28  C   UNL     1      32.407  -5.746 -21.676  0.00  0.00    +0.001 C 
ATOM     29  C   UNL     1      34.976  -6.141 -24.411  0.00  0.00    +0.032 C 
ATOM     30  H   UNL     1      34.766  -8.702 -24.605  0.00  0.00    +0.154 HD
ENDBRANCH  17  21
ENDBRANCH  16  17
ENDBRANCH   1  16
TORSDOF 5
ENDMDL
MODEL 8
REMARK VINA RESULT:     -11.5      3.334      5.950
REMARK  Name = 448889
REMARK  5 active torsions:
REMARK  status: ('A' for Active; 'I' for Inactive)
REMARK    1  A    between atoms: C_1  and  N_2
REMARK    2  A    between atoms: C_1  and  C_16
REMARK    3  A    between atoms: C_6  and  C_10
REMARK    4  A    between atoms: C_16  and  C_17
REMARK    5  A    between atoms: C_17  and  C_21
REMARK                            x       y       z     vdW  Elec       q    Type
REMARK                         _______ _______ _______ _____ _____    ______ ____
ROOT
ATOM      1  C   UNL     1      36.310 -21.034 -20.321  0.00  0.00    -0.076 C 
ENDROOT
BRANCH   1   2
ATOM      2  N   UNL     1      35.489 -21.791 -19.380  0.00  0.00    +0.390 N 
ATOM      3  C   UNL     1      34.125 -21.256 -19.319  0.00  0.00    -0.072 C 
ATOM      4  C   UNL     1      33.245 -22.171 -18.453  0.00  0.00    +0.003 C 
ATOM      5  C   UNL     1      36.103 -21.800 -18.043  0.00  0.00    -0.051 C 
ATOM      6  C   UNL     1      33.888 -22.533 -17.133  0.00  0.00    -0.031 C 
ATOM      7  C   UNL     1      35.212 -22.351 -16.963  0.00  0.00    -0.053 C 
ATOM      8  H   UNL     1      35.435 -22.753 -19.715  0.00  0.00    -0.079 HD
BRANCH   6  10
ATOM      9  F   UNL     1      30.635 -24.636 -13.068  0.00  0.00    -0.204 F 
ATOM     10  C   UNL     1      33.028 -23.088 -16.060  0.00  0.00    -0.004 C 
ATOM     11  C   UNL     1      31.638 -22.996 -16.157  0.00  0.00    +0.002 C 
ATOM     12  C   UNL     1      33.607 -23.706 -14.950  0.00  0.00    +0.002 C 
ATOM     13  C   UNL     1      30.830 -23.519 -15.147  0.00  0.00    +0.030 C 
ATOM     14  C   UNL     1      32.798 -24.229 -13.940  0.00  0.00    +0.030 C 
ATOM     15  C   UNL     1      31.410 -24.135 -14.038  0.00  0.00    +0.140 C 
ENDBRANCH   6  10
ENDBRANCH   1   2
BRANCH   1  16
ATOM     16  C   UNL     1      35.570 -19.771 -20.771  0.00  0.00    -0.014 C 
BRANCH  16  17
ATOM     17  C   UNL     1      36.517 -18.627 -21.099  0.00  0.00    +0.074 C 
BRANCH  17  21
ATOM     18  O   UNL     1      35.062 -17.573 -25.440  0.00  0.00    -0.209 OA
ATOM     19  N   UNL     1      35.468 -16.467 -21.608  0.00  0.00    -0.290 N 
ATOM     20  N   UNL     1      35.774 -18.093 -23.325  0.00  0.00    -0.322 NA
ATOM     21  C   UNL     1      35.882 -17.686 -22.093  0.00  0.00    +0.173 C 
ATOM     22  C   UNL     1      34.873 -15.556 -22.482  0.00  0.00    +0.058 C 
ATOM     23  C   UNL     1      34.715 -15.912 -23.828  0.00  0.00    +0.108 C 
ATOM     24  C   UNL     1      34.431 -14.302 -22.050  0.00  0.00    -0.008 C 
ATOM     25  C   UNL     1      35.195 -17.256 -24.263  0.00  0.00    +0.207 C 
ATOM     26  C   UNL     1      34.123 -15.029 -24.736  0.00  0.00    +0.014 C 
ATOM     27  C   UNL     1      33.839 -13.418 -22.954  0.00  0.00    -0.003 C 
ATOM     28  C   UNL     1      33.687 -13.780 -24.292  0.00  0.00    +0.001 C 
ATOM     29  C   UNL     1      34.574 -13.873 -20.626  0.00  0.00    +0.032 C 
ATOM     30  H   UNL     1      35.591 -16.241 -20.658  0.00  0.00    +0.154 HD
ENDBRANCH  17  21
ENDBRANCH  16  17
ENDBRANCH   1  16
TORSDOF 5
ENDMDL
MODEL 9
REMARK VINA RESULT:     -11.4      5.335     11.249
REMARK  Name = 448889
REMARK  5 active torsions:
REMARK  status: ('A' for Active; 'I' for Inactive)
REMARK    1  A    between atoms: C_1  and  N_2
REMARK    2  A    between atoms: C_1  and  C_16
REMARK    3  A    between atoms: C_6  and  C_10
REMARK    4  A    between atoms: C_16  and  C_17
REMARK    5  A    between atoms: C_17  and  C_21
REMARK                            x       y       z     vdW  Elec       q    Type
REMARK                         _______ _______ _______ _____ _____    ______ ____
ROOT
ATOM      1  C   UNL     1      36.583 -21.206 -19.577  0.00  0.00    -0.076 C 
ENDROOT
BRANCH   1   2
ATOM      2  N   UNL     1      36.129 -19.928 -20.119  0.00  0.00    +0.390 N 
ATOM      3  C   UNL     1      35.067 -20.122 -21.112  0.00  0.00    -0.072 C 
ATOM      4  C   UNL     1      34.496 -18.761 -21.537  0.00  0.00    +0.003 C 
ATOM      5  C   UNL     1      37.253 -19.179 -20.701  0.00  0.00    -0.051 C 
ATOM      6  C   UNL     1      35.568 -17.752 -21.884  0.00  0.00    -0.031 C 
ATOM      7  C   UNL     1      36.839 -17.966 -21.490  0.00  0.00    -0.053 C 
ATOM      8  H   UNL     1      35.743 -19.381 -19.349  0.00  0.00    -0.079 HD
BRANCH   6  10
ATOM      9  F   UNL     1      34.087 -13.181 -24.789  0.00  0.00    -0.204 F 
ATOM     10  C   UNL     1      35.178 -16.545 -22.650  0.00  0.00    -0.004 C 
ATOM     11  C   UNL     1      35.042 -15.316 -22.002  0.00  0.00    +0.002 C 
ATOM     12  C   UNL     1      34.945 -16.634 -24.025  0.00  0.00    +0.002 C 
ATOM     13  C   UNL     1      34.675 -14.180 -22.723  0.00  0.00    +0.030 C 
ATOM     14  C   UNL     1      34.577 -15.498 -24.746  0.00  0.00    +0.030 C 
ATOM     15  C   UNL     1      34.442 -14.271 -24.096  0.00  0.00    +0.140 C 
ENDBRANCH   6  10
ENDBRANCH   1   2
BRANCH   1  16
ATOM     16  C   UNL     1      35.687 -21.635 -18.412  0.00  0.00    -0.014 C 
BRANCH  16  17
ATOM     17  C   UNL     1      34.445 -22.380 -18.875  0.00  0.00    +0.074 C 
BRANCH  17  21
ATOM     18  O   UNL     1      30.199 -22.185 -16.875  0.00  0.00    -0.209 OA
ATOM     19  N   UNL     1      34.067 -23.200 -16.594  0.00  0.00    -0.290 N 
ATOM     20  N   UNL     1      32.268 -22.277 -17.856  0.00  0.00    -0.322 NA
ATOM     21  C   UNL     1      33.514 -22.625 -17.714  0.00  0.00    +0.173 C 
ATOM     22  C   UNL     1      33.253 -23.450 -15.487  0.00  0.00    +0.058 C 
ATOM     23  C   UNL     1      31.896 -23.108 -15.554  0.00  0.00    +0.108 C 
ATOM     24  C   UNL     1      33.755 -24.034 -14.321  0.00  0.00    -0.008 C 
ATOM     25  C   UNL     1      31.386 -22.489 -16.811  0.00  0.00    +0.207 C 
ATOM     26  C   UNL     1      31.046 -23.344 -14.469  0.00  0.00    +0.014 C 
ATOM     27  C   UNL     1      32.910 -24.270 -13.235  0.00  0.00    -0.003 C 
ATOM     28  C   UNL     1      31.560 -23.925 -13.310  0.00  0.00    +0.001 C 
ATOM     29  C   UNL     1      35.194 -24.418 -14.198  0.00  0.00    +0.032 C 
ATOM     30  H   UNL     1      35.024 -23.431 -16.572  0.00  0.00    +0.154 HD
ENDBRANCH  17  21
ENDBRANCH  16  17
ENDBRANCH   1  16
TORSDOF 5
ENDMDL
