MODEL 1
REMARK VINA RESULT:     -12.9      0.000      0.000
REMARK  Name = 24794406
REMARK  5 active torsions:
REMARK  status: ('A' for Active; 'I' for Inactive)
REMARK    1  A    between atoms: C_1  and  S_24
REMARK    2  A    between atoms: C_2  and  N_8
REMARK    3  A    between atoms: C_9  and  C_11
REMARK    4  A    between atoms: C_12  and  N_18
REMARK    5  A    between atoms: S_24  and  N_28
REMARK                            x       y       z     vdW  Elec       q    Type
REMARK                         _______ _______ _______ _____ _____    ______ ____
ROOT
ATOM      1  C   UNL     1      32.972 -23.784 -14.363  0.00  0.00    +0.139 C 
ATOM      2  C   UNL     1      32.161 -23.386 -15.426  0.00  0.00    +0.070 C 
ATOM      3  C   UNL     1      32.419 -24.479 -13.287  0.00  0.00    +0.021 C 
ATOM      4  C   UNL     1      30.798 -23.681 -15.412  0.00  0.00    +0.016 C 
ATOM      5  C   UNL     1      31.056 -24.776 -13.274  0.00  0.00    +0.001 C 
ATOM      6  C   UNL     1      30.246 -24.377 -14.337  0.00  0.00    +0.001 C 
ENDROOT
BRANCH   2   8
ATOM      7  O   UNL     1      33.754 -24.367 -17.768  0.00  0.00    -0.270 OA
ATOM      8  N   UNL     1      32.696 -22.678 -16.530  0.00  0.00    -0.279 N 
ATOM      9  C   UNL     1      33.439 -23.177 -17.610  0.00  0.00    +0.250 C 
ATOM     10  H   UNL     1      32.524 -21.708 -16.541  0.00  0.00    +0.155 HD
BRANCH   9  11
ATOM     11  C   UNL     1      33.879 -22.192 -18.585  0.00  0.00    +0.054 C 
ATOM     12  C   UNL     1      34.721 -20.304 -20.458  0.00  0.00    +0.058 C 
ATOM     13  C   UNL     1      32.949 -21.347 -19.190  0.00  0.00    +0.006 C 
ATOM     14  C   UNL     1      35.230 -22.093 -18.917  0.00  0.00    +0.006 C 
ATOM     15  C   UNL     1      33.370 -20.403 -20.127  0.00  0.00    +0.015 C 
ATOM     16  C   UNL     1      35.651 -21.150 -19.854  0.00  0.00    +0.015 C 
BRANCH  12  18
ATOM     17  O   UNL     1      37.062 -18.624 -20.201  0.00  0.00    -0.269 OA
ATOM     18  N   UNL     1      35.159 -19.323 -21.432  0.00  0.00    -0.233 N 
ATOM     19  C   UNL     1      36.351 -18.586 -21.207  0.00  0.00    +0.257 C 
ATOM     20  C   UNL     1      34.403 -19.077 -22.581  0.00  0.00    +0.072 C 
ATOM     21  C   UNL     1      36.755 -17.628 -22.282  0.00  0.00    +0.059 C 
ATOM     22  C   UNL     1      34.769 -18.190 -23.512  0.00  0.00    +0.017 C 
ATOM     23  C   UNL     1      35.985 -17.450 -23.358  0.00  0.00    +0.006 C 
ENDBRANCH  12  18
ENDBRANCH   9  11
ENDBRANCH   2   8
BRANCH   1  24
ATOM     24  S   UNL     1      34.688 -23.432 -14.342  0.00  0.00    +0.076 S 
ATOM     25  O   UNL     1      35.146 -23.566 -12.966  0.00  0.00    -0.150 OA
ATOM     26  O   UNL     1      34.909 -22.175 -15.041  0.00  0.00    -0.150 OA
BRANCH  24  28
ATOM     27 CL   UNL     1      40.936 -26.189 -14.146  0.00  0.00    -0.081 Cl
ATOM     28  N   UNL     1      35.349 -24.730 -15.259  0.00  0.00    -0.199 N 
ATOM     29  N   UNL     1      37.573 -24.130 -14.708  0.00  0.00    -0.227 NA
ATOM     30  C   UNL     1      36.706 -25.128 -14.993  0.00  0.00    +0.147 C 
ATOM     31  C   UNL     1      37.053 -26.468 -15.039  0.00  0.00    +0.036 C 
ATOM     32  C   UNL     1      38.376 -26.807 -14.773  0.00  0.00    +0.016 C 
ATOM     33  C   UNL     1      38.849 -24.498 -14.456  0.00  0.00    +0.112 C 
ATOM     34  C   UNL     1      39.297 -25.809 -14.475  0.00  0.00    +0.077 C 
ATOM     35  H   UNL     1      34.815 -25.188 -15.947  0.00  0.00    +0.175 HD
ENDBRANCH  24  28
ENDBRANCH   1  24
TORSDOF 5
ENDMDL
MODEL 2
REMARK VINA RESULT:     -12.4      1.350      1.894
REMARK  Name = 24794406
REMARK  5 active torsions:
REMARK  status: ('A' for Active; 'I' for Inactive)
REMARK    1  A    between atoms: C_1  and  S_24
REMARK    2  A    between atoms: C_2  and  N_8
REMARK    3  A    between atoms: C_9  and  C_11
REMARK    4  A    between atoms: C_12  and  N_18
REMARK    5  A    between atoms: S_24  and  N_28
REMARK                            x       y       z     vdW  Elec       q    Type
REMARK                         _______ _______ _______ _____ _____    ______ ____
ROOT
ATOM      1  C   UNL     1      33.386 -23.676 -14.999  0.00  0.00    +0.139 C 
ATOM      2  C   UNL     1      32.496 -23.227 -15.974  0.00  0.00    +0.070 C 
ATOM      3  C   UNL     1      32.930 -24.485 -13.958  0.00  0.00    +0.021 C 
ATOM      4  C   UNL     1      31.150 -23.587 -15.909  0.00  0.00    +0.016 C 
ATOM      5  C   UNL     1      31.584 -24.846 -13.894  0.00  0.00    +0.001 C 
ATOM      6  C   UNL     1      30.694 -24.397 -14.870  0.00  0.00    +0.001 C 
ENDROOT
BRANCH   2   8
ATOM      7  O   UNL     1      33.788 -23.955 -18.580  0.00  0.00    -0.270 OA
ATOM      8  N   UNL     1      32.932 -22.404 -17.041  0.00  0.00    -0.279 N 
ATOM      9  C   UNL     1      33.535 -22.786 -18.248  0.00  0.00    +0.250 C 
ATOM     10  H   UNL     1      32.796 -21.437 -16.919  0.00  0.00    +0.155 HD
BRANCH   9  11
ATOM     11  C   UNL     1      33.902 -21.701 -19.145  0.00  0.00    +0.054 C 
ATOM     12  C   UNL     1      34.607 -19.620 -20.863  0.00  0.00    +0.058 C 
ATOM     13  C   UNL     1      35.247 -21.427 -19.393  0.00  0.00    +0.006 C 
ATOM     14  C   UNL     1      32.910 -20.934 -19.756  0.00  0.00    +0.006 C 
ATOM     15  C   UNL     1      35.599 -20.386 -20.252  0.00  0.00    +0.015 C 
ATOM     16  C   UNL     1      33.262 -19.894 -20.614  0.00  0.00    +0.015 C 
BRANCH  12  18
ATOM     17  O   UNL     1      34.970 -19.864 -23.723  0.00  0.00    -0.269 OA
ATOM     18  N   UNL     1      34.973 -18.538 -21.757  0.00  0.00    -0.233 N 
ATOM     19  C   UNL     1      35.082 -18.778 -23.151  0.00  0.00    +0.257 C 
ATOM     20  C   UNL     1      35.243 -17.263 -21.254  0.00  0.00    +0.072 C 
ATOM     21  C   UNL     1      35.418 -17.598 -24.007  0.00  0.00    +0.059 C 
ATOM     22  C   UNL     1      35.575 -16.231 -22.037  0.00  0.00    +0.017 C 
ATOM     23  C   UNL     1      35.657 -16.406 -23.455  0.00  0.00    +0.006 C 
ENDBRANCH  12  18
ENDBRANCH   9  11
ENDBRANCH   2   8
BRANCH   1  24
ATOM     24  S   UNL     1      35.083 -23.246 -15.044  0.00  0.00    +0.076 S 
ATOM     25  O   UNL     1      35.171 -21.795 -14.962  0.00  0.00    -0.150 OA
ATOM     26  O   UNL     1      35.701 -23.928 -16.173  0.00  0.00    -0.150 OA
BRANCH  24  28
ATOM     27 CL   UNL     1      41.021 -26.360 -13.728  0.00  0.00    -0.081 Cl
ATOM     28  N   UNL     1      35.679 -23.907 -13.571  0.00  0.00    -0.199 N 
ATOM     29  N   UNL     1      37.340 -25.176 -14.684  0.00  0.00    -0.227 NA
ATOM     30  C   UNL     1      36.993 -24.493 -13.570  0.00  0.00    +0.147 C 
ATOM     31  C   UNL     1      37.817 -24.335 -12.468  0.00  0.00    +0.036 C 
ATOM     32  C   UNL     1      39.080 -24.916 -12.512  0.00  0.00    +0.016 C 
ATOM     33  C   UNL     1      38.574 -25.727 -14.689  0.00  0.00    +0.112 C 
ATOM     34  C   UNL     1      39.473 -25.627 -13.640  0.00  0.00    +0.077 C 
ATOM     35  H   UNL     1      35.135 -23.886 -12.750  0.00  0.00    +0.175 HD
ENDBRANCH  24  28
ENDBRANCH   1  24
TORSDOF 5
ENDMDL
MODEL 3
REMARK VINA RESULT:     -11.8      1.647      2.234
REMARK  Name = 24794406
REMARK  5 active torsions:
REMARK  status: ('A' for Active; 'I' for Inactive)
REMARK    1  A    between atoms: C_1  and  S_24
REMARK    2  A    between atoms: C_2  and  N_8
REMARK    3  A    between atoms: C_9  and  C_11
REMARK    4  A    between atoms: C_12  and  N_18
REMARK    5  A    between atoms: S_24  and  N_28
REMARK                            x       y       z     vdW  Elec       q    Type
REMARK                         _______ _______ _______ _____ _____    ______ ____
ROOT
ATOM      1  C   UNL     1      35.420 -23.243 -14.599  0.00  0.00    +0.139 C 
ATOM      2  C   UNL     1      34.273 -22.912 -15.319  0.00  0.00    +0.070 C 
ATOM      3  C   UNL     1      35.310 -23.943 -13.397  0.00  0.00    +0.021 C 
ATOM      4  C   UNL     1      33.016 -23.278 -14.837  0.00  0.00    +0.016 C 
ATOM      5  C   UNL     1      34.054 -24.311 -12.916  0.00  0.00    +0.001 C 
ATOM      6  C   UNL     1      32.907 -23.978 -13.637  0.00  0.00    +0.001 C 
ENDROOT
BRANCH   2   8
ATOM      7  O   UNL     1      33.652 -23.791 -18.117  0.00  0.00    -0.270 OA
ATOM      8  N   UNL     1      34.356 -22.201 -16.542  0.00  0.00    -0.279 N 
ATOM      9  C   UNL     1      34.055 -22.651 -17.836  0.00  0.00    +0.250 C 
ATOM     10  H   UNL     1      34.666 -21.269 -16.475  0.00  0.00    +0.155 HD
BRANCH   9  11
ATOM     11  C   UNL     1      34.267 -21.691 -18.906  0.00  0.00    +0.054 C 
ATOM     12  C   UNL     1      34.676 -19.847 -20.960  0.00  0.00    +0.058 C 
ATOM     13  C   UNL     1      35.563 -21.386 -19.322  0.00  0.00    +0.006 C 
ATOM     14  C   UNL     1      33.177 -21.073 -19.517  0.00  0.00    +0.006 C 
ATOM     15  C   UNL     1      35.768 -20.464 -20.349  0.00  0.00    +0.015 C 
ATOM     16  C   UNL     1      33.380 -20.151 -20.543  0.00  0.00    +0.015 C 
BRANCH  12  18
ATOM     17  O   UNL     1      35.661 -17.150 -20.614  0.00  0.00    -0.269 OA
ATOM     18  N   UNL     1      34.889 -18.889 -22.027  0.00  0.00    -0.233 N 
ATOM     19  C   UNL     1      35.415 -17.606 -21.732  0.00  0.00    +0.257 C 
ATOM     20  C   UNL     1      34.556 -19.211 -23.345  0.00  0.00    +0.072 C 
ATOM     21  C   UNL     1      35.647 -16.695 -22.896  0.00  0.00    +0.059 C 
ATOM     22  C   UNL     1      34.742 -18.367 -24.366  0.00  0.00    +0.017 C 
ATOM     23  C   UNL     1      35.310 -17.074 -24.131  0.00  0.00    +0.006 C 
ENDBRANCH  12  18
ENDBRANCH   9  11
ENDBRANCH   2   8
BRANCH   1  24
ATOM     24  S   UNL     1      37.016 -22.802 -15.169  0.00  0.00    +0.076 S 
ATOM     25  O   UNL     1      37.176 -21.369 -14.959  0.00  0.00    -0.150 OA
ATOM     26  O   UNL     1      37.193 -23.343 -16.508  0.00  0.00    -0.150 OA
BRANCH  24  28
ATOM     27 CL   UNL     1      40.403 -28.688 -15.919  0.00  0.00    -0.081 Cl
ATOM     28  N   UNL     1      38.051 -23.626 -14.068  0.00  0.00    -0.199 N 
ATOM     29  N   UNL     1      37.899 -25.657 -15.277  0.00  0.00    -0.227 NA
ATOM     30  C   UNL     1      38.662 -24.855 -14.500  0.00  0.00    +0.147 C 
ATOM     31  C   UNL     1      39.959 -25.153 -14.115  0.00  0.00    +0.036 C 
ATOM     32  C   UNL     1      40.510 -26.351 -14.557  0.00  0.00    +0.016 C 
ATOM     33  C   UNL     1      38.469 -26.813 -15.687  0.00  0.00    +0.112 C 
ATOM     34  C   UNL     1      39.757 -27.202 -15.359  0.00  0.00    +0.077 C 
ATOM     35  H   UNL     1      38.220 -23.268 -13.167  0.00  0.00    +0.175 HD
ENDBRANCH  24  28
ENDBRANCH   1  24
TORSDOF 5
ENDMDL
MODEL 4
REMARK VINA RESULT:     -10.7      3.486      5.730
REMARK  Name = 24794406
REMARK  5 active torsions:
REMARK  status: ('A' for Active; 'I' for Inactive)
REMARK    1  A    between atoms: C_1  and  S_24
REMARK    2  A    between atoms: C_2  and  N_8
REMARK    3  A    between atoms: C_9  and  C_11
REMARK    4  A    between atoms: C_12  and  N_18
REMARK    5  A    between atoms: S_24  and  N_28
REMARK                            x       y       z     vdW  Elec       q    Type
REMARK                         _______ _______ _______ _____ _____    ______ ____
ROOT
ATOM      1  C   UNL     1      35.074 -23.060 -16.279  0.00  0.00    +0.139 C 
ATOM      2  C   UNL     1      36.062 -22.148 -16.653  0.00  0.00    +0.070 C 
ATOM      3  C   UNL     1      35.270 -23.885 -15.172  0.00  0.00    +0.021 C 
ATOM      4  C   UNL     1      37.245 -22.063 -15.920  0.00  0.00    +0.016 C 
ATOM      5  C   UNL     1      36.453 -23.798 -14.438  0.00  0.00    +0.001 C 
ATOM      6  C   UNL     1      37.441 -22.886 -14.812  0.00  0.00    +0.001 C 
ENDROOT
BRANCH   2   8
ATOM      7  O   UNL     1      37.264 -22.291 -19.396  0.00  0.00    -0.270 OA
ATOM      8  N   UNL     1      35.889 -21.299 -17.774  0.00  0.00    -0.279 N 
ATOM      9  C   UNL     1      36.473 -21.401 -19.045  0.00  0.00    +0.250 C 
ATOM     10  H   UNL     1      35.280 -20.537 -17.644  0.00  0.00    +0.155 HD
BRANCH   9  11
ATOM     11  C   UNL     1      36.122 -20.354 -19.990  0.00  0.00    +0.054 C 
ATOM     12  C   UNL     1      35.450 -18.343 -21.803  0.00  0.00    +0.058 C 
ATOM     13  C   UNL     1      37.109 -19.498 -20.479  0.00  0.00    +0.006 C 
ATOM     14  C   UNL     1      34.800 -20.203 -20.407  0.00  0.00    +0.006 C 
ATOM     15  C   UNL     1      36.773 -18.492 -21.386  0.00  0.00    +0.015 C 
ATOM     16  C   UNL     1      34.464 -19.198 -21.312  0.00  0.00    +0.015 C 
BRANCH  12  18
ATOM     17  O   UNL     1      34.593 -18.771 -24.532  0.00  0.00    -0.269 OA
ATOM     18  N   UNL     1      35.101 -17.298 -22.745  0.00  0.00    -0.233 N 
ATOM     19  C   UNL     1      34.655 -17.640 -24.048  0.00  0.00    +0.257 C 
ATOM     20  C   UNL     1      35.222 -15.952 -22.389  0.00  0.00    +0.072 C 
ATOM     21  C   UNL     1      34.271 -16.503 -24.941  0.00  0.00    +0.059 C 
ATOM     22  C   UNL     1      34.904 -14.952 -23.218  0.00  0.00    +0.017 C 
ATOM     23  C   UNL     1      34.408 -15.241 -24.530  0.00  0.00    +0.006 C 
ENDBRANCH  12  18
ENDBRANCH   9  11
ENDBRANCH   2   8
BRANCH   1  24
ATOM     24  S   UNL     1      33.574 -23.198 -17.173  0.00  0.00    +0.076 S 
ATOM     25  O   UNL     1      33.841 -24.004 -18.356  0.00  0.00    -0.150 OA
ATOM     26  O   UNL     1      33.012 -21.866 -17.339  0.00  0.00    -0.150 OA
BRANCH  24  28
ATOM     27 CL   UNL     1      27.040 -22.291 -15.394  0.00  0.00    -0.081 Cl
ATOM     28  N   UNL     1      32.584 -24.118 -16.107  0.00  0.00    -0.199 N 
ATOM     29  N   UNL     1      30.988 -22.378 -15.913  0.00  0.00    -0.227 NA
ATOM     30  C   UNL     1      31.215 -23.711 -15.930  0.00  0.00    +0.147 C 
ATOM     31  C   UNL     1      30.224 -24.669 -15.790  0.00  0.00    +0.036 C 
ATOM     32  C   UNL     1      28.915 -24.231 -15.623  0.00  0.00    +0.016 C 
ATOM     33  C   UNL     1      29.704 -21.991 -15.749  0.00  0.00    +0.112 C 
ATOM     34  C   UNL     1      28.641 -22.867 -15.601  0.00  0.00    +0.077 C 
ATOM     35  H   UNL     1      32.944 -24.900 -15.630  0.00  0.00    +0.175 HD
ENDBRANCH  24  28
ENDBRANCH   1  24
TORSDOF 5
ENDMDL
MODEL 5
REMARK VINA RESULT:     -10.7      3.368      5.470
REMARK  Name = 24794406
REMARK  5 active torsions:
REMARK  status: ('A' for Active; 'I' for Inactive)
REMARK    1  A    between atoms: C_1  and  S_24
REMARK    2  A    between atoms: C_2  and  N_8
REMARK    3  A    between atoms: C_9  and  C_11
REMARK    4  A    between atoms: C_12  and  N_18
REMARK    5  A    between atoms: S_24  and  N_28
REMARK                            x       y       z     vdW  Elec       q    Type
REMARK                         _______ _______ _______ _____ _____    ______ ____
ROOT
ATOM      1  C   UNL     1      35.061 -23.920 -12.932  0.00  0.00    +0.139 C 
ATOM      2  C   UNL     1      36.121 -23.096 -13.309  0.00  0.00    +0.070 C 
ATOM      3  C   UNL     1      35.034 -24.483 -11.656  0.00  0.00    +0.021 C 
ATOM      4  C   UNL     1      37.156 -22.836 -12.410  0.00  0.00    +0.016 C 
ATOM      5  C   UNL     1      36.069 -24.222 -10.757  0.00  0.00    +0.001 C 
ATOM      6  C   UNL     1      37.129 -23.398 -11.135  0.00  0.00    +0.001 C 
ENDROOT
BRANCH   2   8
ATOM      7  O   UNL     1      38.311 -23.111 -15.356  0.00  0.00    -0.270 OA
ATOM      8  N   UNL     1      36.173 -22.511 -14.598  0.00  0.00    -0.279 N 
ATOM      9  C   UNL     1      37.222 -22.542 -15.529  0.00  0.00    +0.250 C 
ATOM     10  H   UNL     1      35.368 -22.018 -14.878  0.00  0.00    +0.155 HD
BRANCH   9  11
ATOM     11  C   UNL     1      36.990 -21.820 -16.769  0.00  0.00    +0.054 C 
ATOM     12  C   UNL     1      36.544 -20.436 -19.151  0.00  0.00    +0.058 C 
ATOM     13  C   UNL     1      35.974 -22.229 -17.634  0.00  0.00    +0.006 C 
ATOM     14  C   UNL     1      37.782 -20.720 -17.096  0.00  0.00    +0.006 C 
ATOM     15  C   UNL     1      35.752 -21.537 -18.825  0.00  0.00    +0.015 C 
ATOM     16  C   UNL     1      37.560 -20.028 -18.286  0.00  0.00    +0.015 C 
BRANCH  12  18
ATOM     17  O   UNL     1      34.013 -20.275 -20.542  0.00  0.00    -0.269 OA
ATOM     18  N   UNL     1      36.312 -19.717 -20.388  0.00  0.00    -0.233 N 
ATOM     19  C   UNL     1      35.011 -19.680 -20.952  0.00  0.00    +0.257 C 
ATOM     20  C   UNL     1      37.367 -19.077 -21.044  0.00  0.00    +0.072 C 
ATOM     21  C   UNL     1      34.850 -18.878 -22.204  0.00  0.00    +0.059 C 
ATOM     22  C   UNL     1      37.203 -18.393 -22.182  0.00  0.00    +0.017 C 
ATOM     23  C   UNL     1      35.903 -18.287 -22.772  0.00  0.00    +0.006 C 
ENDBRANCH  12  18
ENDBRANCH   9  11
ENDBRANCH   2   8
BRANCH   1  24
ATOM     24  S   UNL     1      33.742 -24.271 -14.031  0.00  0.00    +0.076 S 
ATOM     25  O   UNL     1      32.979 -25.373 -13.462  0.00  0.00    -0.150 OA
ATOM     26  O   UNL     1      34.286 -24.408 -15.374  0.00  0.00    -0.150 OA
BRANCH  24  28
ATOM     27 CL   UNL     1      27.841 -22.753 -17.122  0.00  0.00    -0.081 Cl
ATOM     28  N   UNL     1      32.783 -22.845 -13.936  0.00  0.00    -0.199 N 
ATOM     29  N   UNL     1      31.577 -23.394 -15.899  0.00  0.00    -0.227 NA
ATOM     30  C   UNL     1      31.555 -22.801 -14.684  0.00  0.00    +0.147 C 
ATOM     31  C   UNL     1      30.442 -22.175 -14.147  0.00  0.00    +0.036 C 
ATOM     32  C   UNL     1      29.275 -22.158 -14.904  0.00  0.00    +0.016 C 
ATOM     33  C   UNL     1      30.426 -23.357 -16.606  0.00  0.00    +0.112 C 
ATOM     34  C   UNL     1      29.259 -22.758 -16.159  0.00  0.00    +0.077 C 
ATOM     35  H   UNL     1      33.066 -22.080 -13.385  0.00  0.00    +0.175 HD
ENDBRANCH  24  28
ENDBRANCH   1  24
TORSDOF 5
ENDMDL
MODEL 6
REMARK VINA RESULT:     -10.5      3.449      5.594
REMARK  Name = 24794406
REMARK  5 active torsions:
REMARK  status: ('A' for Active; 'I' for Inactive)
REMARK    1  A    between atoms: C_1  and  S_24
REMARK    2  A    between atoms: C_2  and  N_8
REMARK    3  A    between atoms: C_9  and  C_11
REMARK    4  A    between atoms: C_12  and  N_18
REMARK    5  A    between atoms: S_24  and  N_28
REMARK                            x       y       z     vdW  Elec       q    Type
REMARK                         _______ _______ _______ _____ _____    ______ ____
ROOT
ATOM      1  C   UNL     1      35.123 -23.119 -16.262  0.00  0.00    +0.139 C 
ATOM      2  C   UNL     1      36.118 -22.213 -16.629  0.00  0.00    +0.070 C 
ATOM      3  C   UNL     1      35.323 -23.972 -15.177  0.00  0.00    +0.021 C 
ATOM      4  C   UNL     1      37.313 -22.161 -15.911  0.00  0.00    +0.016 C 
ATOM      5  C   UNL     1      36.517 -23.919 -14.459  0.00  0.00    +0.001 C 
ATOM      6  C   UNL     1      37.512 -23.013 -14.826  0.00  0.00    +0.001 C 
ENDROOT
BRANCH   2   8
ATOM      7  O   UNL     1      37.140 -22.399 -19.441  0.00  0.00    -0.270 OA
ATOM      8  N   UNL     1      35.941 -21.336 -17.727  0.00  0.00    -0.279 N 
ATOM      9  C   UNL     1      36.439 -21.460 -19.033  0.00  0.00    +0.250 C 
ATOM     10  H   UNL     1      35.398 -20.534 -17.552  0.00  0.00    +0.155 HD
BRANCH   9  11
ATOM     11  C   UNL     1      36.110 -20.375 -19.943  0.00  0.00    +0.054 C 
ATOM     12  C   UNL     1      35.477 -18.295 -21.690  0.00  0.00    +0.058 C 
ATOM     13  C   UNL     1      34.791 -20.187 -20.355  0.00  0.00    +0.006 C 
ATOM     14  C   UNL     1      37.112 -19.523 -20.405  0.00  0.00    +0.006 C 
ATOM     15  C   UNL     1      34.474 -19.147 -21.229  0.00  0.00    +0.015 C 
ATOM     16  C   UNL     1      36.796 -18.483 -21.279  0.00  0.00    +0.015 C 
BRANCH  12  18
ATOM     17  O   UNL     1      35.054 -15.538 -20.923  0.00  0.00    -0.269 OA
ATOM     18  N   UNL     1      35.148 -17.213 -22.598  0.00  0.00    -0.233 N 
ATOM     19  C   UNL     1      35.004 -15.892 -22.102  0.00  0.00    +0.257 C 
ATOM     20  C   UNL     1      34.947 -17.465 -23.958  0.00  0.00    +0.072 C 
ATOM     21  C   UNL     1      34.710 -14.828 -23.112  0.00  0.00    +0.059 C 
ATOM     22  C   UNL     1      34.652 -16.501 -24.837  0.00  0.00    +0.017 C 
ATOM     23  C   UNL     1      34.538 -15.143 -24.398  0.00  0.00    +0.006 C 
ENDBRANCH  12  18
ENDBRANCH   9  11
ENDBRANCH   2   8
BRANCH   1  24
ATOM     24  S   UNL     1      33.608 -23.216 -17.137  0.00  0.00    +0.076 S 
ATOM     25  O   UNL     1      33.842 -24.016 -18.332  0.00  0.00    -0.150 OA
ATOM     26  O   UNL     1      33.073 -21.870 -17.282  0.00  0.00    -0.150 OA
BRANCH  24  28
ATOM     27 CL   UNL     1      27.073 -22.273 -15.380  0.00  0.00    -0.081 Cl
ATOM     28  N   UNL     1      32.613 -24.124 -16.066  0.00  0.00    -0.199 N 
ATOM     29  N   UNL     1      31.022 -22.378 -15.889  0.00  0.00    -0.227 NA
ATOM     30  C   UNL     1      31.245 -23.712 -15.895  0.00  0.00    +0.147 C 
ATOM     31  C   UNL     1      30.250 -24.665 -15.751  0.00  0.00    +0.036 C 
ATOM     32  C   UNL     1      28.942 -24.221 -15.591  0.00  0.00    +0.016 C 
ATOM     33  C   UNL     1      29.739 -21.985 -15.731  0.00  0.00    +0.112 C 
ATOM     34  C   UNL     1      28.673 -22.856 -15.579  0.00  0.00    +0.077 C 
ATOM     35  H   UNL     1      32.969 -24.904 -15.583  0.00  0.00    +0.175 HD
ENDBRANCH  24  28
ENDBRANCH   1  24
TORSDOF 5
ENDMDL
