MODEL 1
REMARK VINA RESULT:     -11.6      0.000      0.000
REMARK  Name = 24755471
REMARK  13 active torsions:
REMARK  status: ('A' for Active; 'I' for Inactive)
REMARK    1  A    between atoms: C_1  and  S_11
REMARK    2  A    between atoms: C_9  and  O_27
REMARK    3  A    between atoms: S_11  and  N_14
REMARK    4  A    between atoms: N_14  and  C_16
REMARK    5  A    between atoms: C_16  and  C_18
REMARK    6  A    between atoms: C_16  and  C_21
REMARK    7  A    between atoms: C_18  and  O_19
REMARK    8  A    between atoms: C_21  and  C_22
REMARK    9  A    between atoms: C_22  and  C_24
REMARK   10  A    between atoms: C_24  and  O_25
REMARK   11  A    between atoms: O_27  and  C_28
REMARK   12  A    between atoms: C_28  and  C_29
REMARK   13  A    between atoms: C_34  and  C_36
REMARK                            x       y       z     vdW  Elec       q    Type
REMARK                         _______ _______ _______ _____ _____    ______ ____
ROOT
ATOM      1  C   UNL     1      34.186 -21.690 -18.896  0.00  0.00    +0.122 C 
ATOM      2  C   UNL     1      35.626 -20.228 -20.205  0.00  0.00    +0.002 C 
ATOM      3  C   UNL     1      35.459 -21.223 -19.228  0.00  0.00    +0.020 C 
ATOM      4  C   UNL     1      34.486 -19.698 -20.855  0.00  0.00    +0.003 C 
ATOM      5  C   UNL     1      33.066 -21.168 -19.536  0.00  0.00    +0.020 C 
ATOM      6  C   UNL     1      33.213 -20.179 -20.509  0.00  0.00    +0.001 C 
ATOM      7  C   UNL     1      34.653 -18.703 -21.832  0.00  0.00    +0.037 C 
ATOM      8  C   UNL     1      36.900 -19.746 -20.550  0.00  0.00    +0.003 C 
ATOM      9  C   UNL     1      35.926 -18.237 -22.163  0.00  0.00    +0.139 C 
ATOM     10  C   UNL     1      37.047 -18.757 -21.523  0.00  0.00    +0.037 C 
ENDROOT
BRANCH   1  11
ATOM     11  S   UNL     1      33.999 -22.943 -17.664  0.00  0.00    +0.061 S 
ATOM     12  O   UNL     1      33.756 -24.202 -18.341  0.00  0.00    -0.153 OA
ATOM     13  O   UNL     1      35.118 -22.808 -16.751  0.00  0.00    -0.153 OA
BRANCH  11  14
ATOM     14  N   UNL     1      32.579 -22.444 -16.872  0.00  0.00    -0.170 NA
ATOM     15  H   UNL     1      31.904 -22.209 -17.599  0.00  0.00    +0.149 HD
BRANCH  14  16
ATOM     16  C   UNL     1      31.896 -23.362 -15.934  0.00  0.00    +0.174 C 
BRANCH  16  18
ATOM     17  O   UNL     1      33.134 -24.692 -14.317  0.00  0.00    -0.249 OA
ATOM     18  C   UNL     1      32.813 -23.595 -14.757  0.00  0.00    +0.330 C 
BRANCH  18  19
ATOM     19  O   UNL     1      33.275 -22.431 -14.230  0.00  0.00    -0.479 OA
ATOM     20  H   UNL     1      33.144 -21.625 -14.688  0.00  0.00    +0.295 HD
ENDBRANCH  18  19
ENDBRANCH  16  18
BRANCH  16  21
ATOM     21  C   UNL     1      30.511 -22.818 -15.567  0.00  0.00    +0.040 C 
BRANCH  21  22
ATOM     22  C   UNL     1      29.316 -23.718 -15.896  0.00  0.00    +0.111 C 
BRANCH  22  24
ATOM     23  O   UNL     1      27.637 -23.658 -17.632  0.00  0.00    -0.250 OA
ATOM     24  C   UNL     1      28.285 -23.063 -16.780  0.00  0.00    +0.314 C 
BRANCH  24  25
ATOM     25  O   UNL     1      28.158 -21.733 -16.544  0.00  0.00    -0.480 OA
ATOM     26  H   UNL     1      27.320 -21.374 -16.329  0.00  0.00    +0.295 HD
ENDBRANCH  24  25
ENDBRANCH  22  24
ENDBRANCH  21  22
ENDBRANCH  16  21
ENDBRANCH  14  16
ENDBRANCH  11  14
ENDBRANCH   1  11
BRANCH   9  27
ATOM     27  O   UNL     1      36.071 -17.274 -23.113  0.00  0.00    -0.471 OA
BRANCH  27  28
ATOM     28  C   UNL     1      34.938 -16.995 -23.934  0.00  0.00    +0.232 C 
BRANCH  28  29
ATOM     29  C   UNL     1      34.632 -15.527 -23.866  0.00  0.00    +0.021 C 
ATOM     30  C   UNL     1      34.020 -14.892 -24.947  0.00  0.00    -0.000 C 
ATOM     31  C   UNL     1      34.962 -14.798 -22.724  0.00  0.00    -0.000 C 
ATOM     32  C   UNL     1      33.737 -13.529 -24.884  0.00  0.00    +0.010 C 
ATOM     33  C   UNL     1      34.679 -13.434 -22.662  0.00  0.00    +0.010 C 
ATOM     34  C   UNL     1      34.067 -12.799 -23.742  0.00  0.00    +0.068 C 
BRANCH  34  36
ATOM     35  N   UNL     1      33.539 -10.266 -23.626  0.00  0.00    -0.191 NA
ATOM     36  C   UNL     1      33.776 -11.401 -23.678  0.00  0.00    +0.100 C 
ENDBRANCH  34  36
ENDBRANCH  28  29
ENDBRANCH  27  28
ENDBRANCH   9  27
TORSDOF 13
ENDMDL
MODEL 2
REMARK VINA RESULT:     -11.5      3.382      5.329
REMARK  Name = 24755471
REMARK  13 active torsions:
REMARK  status: ('A' for Active; 'I' for Inactive)
REMARK    1  A    between atoms: C_1  and  S_11
REMARK    2  A    between atoms: C_9  and  O_27
REMARK    3  A    between atoms: S_11  and  N_14
REMARK    4  A    between atoms: N_14  and  C_16
REMARK    5  A    between atoms: C_16  and  C_18
REMARK    6  A    between atoms: C_16  and  C_21
REMARK    7  A    between atoms: C_18  and  O_19
REMARK    8  A    between atoms: C_21  and  C_22
REMARK    9  A    between atoms: C_22  and  C_24
REMARK   10  A    between atoms: C_24  and  O_25
REMARK   11  A    between atoms: O_27  and  C_28
REMARK   12  A    between atoms: C_28  and  C_29
REMARK   13  A    between atoms: C_34  and  C_36
REMARK                            x       y       z     vdW  Elec       q    Type
REMARK                         _______ _______ _______ _____ _____    ______ ____
ROOT
ATOM      1  C   UNL     1      35.774 -22.864 -16.262  0.00  0.00    +0.122 C 
ATOM      2  C   UNL     1      34.861 -21.799 -18.251  0.00  0.00    +0.002 C 
ATOM      3  C   UNL     1      34.694 -22.592 -17.104  0.00  0.00    +0.020 C 
ATOM      4  C   UNL     1      36.141 -21.273 -18.548  0.00  0.00    +0.003 C 
ATOM      5  C   UNL     1      37.032 -22.347 -16.555  0.00  0.00    +0.020 C 
ATOM      6  C   UNL     1      37.216 -21.557 -17.690  0.00  0.00    +0.001 C 
ATOM      7  C   UNL     1      36.308 -20.480 -19.695  0.00  0.00    +0.037 C 
ATOM      8  C   UNL     1      33.785 -21.515 -19.109  0.00  0.00    +0.003 C 
ATOM      9  C   UNL     1      35.229 -20.208 -20.536  0.00  0.00    +0.139 C 
ATOM     10  C   UNL     1      33.970 -20.725 -20.244  0.00  0.00    +0.037 C 
ENDROOT
BRANCH   1  11
ATOM     11  S   UNL     1      35.541 -23.865 -14.824  0.00  0.00    +0.061 S 
ATOM     12  O   UNL     1      34.411 -23.333 -14.088  0.00  0.00    -0.153 OA
ATOM     13  O   UNL     1      35.541 -25.246 -15.266  0.00  0.00    -0.153 OA
BRANCH  11  14
ATOM     14  N   UNL     1      36.972 -23.565 -13.955  0.00  0.00    -0.170 NA
ATOM     15  H   UNL     1      36.734 -22.902 -13.218  0.00  0.00    +0.149 HD
BRANCH  14  16
ATOM     16  C   UNL     1      37.692 -24.685 -13.310  0.00  0.00    +0.174 C 
BRANCH  16  18
ATOM     17  O   UNL     1      40.058 -24.648 -13.872  0.00  0.00    -0.249 OA
ATOM     18  C   UNL     1      38.914 -24.995 -14.141  0.00  0.00    +0.330 C 
BRANCH  18  19
ATOM     19  O   UNL     1      38.613 -25.737 -15.238  0.00  0.00    -0.479 OA
ATOM     20  H   UNL     1      38.586 -25.334 -16.083  0.00  0.00    +0.295 HD
ENDBRANCH  18  19
ENDBRANCH  16  18
BRANCH  16  21
ATOM     21  C   UNL     1      37.985 -24.357 -11.841  0.00  0.00    +0.040 C 
BRANCH  21  22
ATOM     22  C   UNL     1      36.924 -23.536 -11.102  0.00  0.00    +0.111 C 
BRANCH  22  24
ATOM     23  O   UNL     1      35.606 -24.602  -9.381  0.00  0.00    -0.250 OA
ATOM     24  C   UNL     1      35.778 -24.358 -10.568  0.00  0.00    +0.314 C 
BRANCH  24  25
ATOM     25  O   UNL     1      34.961 -24.819 -11.549  0.00  0.00    -0.480 OA
ATOM     26  H   UNL     1      35.212 -24.730 -12.447  0.00  0.00    +0.295 HD
ENDBRANCH  24  25
ENDBRANCH  22  24
ENDBRANCH  21  22
ENDBRANCH  16  21
ENDBRANCH  14  16
ENDBRANCH  11  14
ENDBRANCH   1  11
BRANCH   9  27
ATOM     27  O   UNL     1      35.407 -19.436 -21.643  0.00  0.00    -0.471 OA
BRANCH  27  28
ATOM     28  C   UNL     1      35.972 -18.141 -21.447  0.00  0.00    +0.232 C 
BRANCH  28  29
ATOM     29  C   UNL     1      35.411 -17.201 -22.473  0.00  0.00    +0.021 C 
ATOM     30  C   UNL     1      35.259 -15.848 -22.170  0.00  0.00    -0.000 C 
ATOM     31  C   UNL     1      35.039 -17.680 -23.729  0.00  0.00    -0.000 C 
ATOM     32  C   UNL     1      34.737 -14.975 -23.123  0.00  0.00    +0.010 C 
ATOM     33  C   UNL     1      34.517 -16.807 -24.683  0.00  0.00    +0.010 C 
ATOM     34  C   UNL     1      34.366 -15.454 -24.379  0.00  0.00    +0.068 C 
BRANCH  34  36
ATOM     35  N   UNL     1      33.398 -13.830 -26.150  0.00  0.00    -0.191 NA
ATOM     36  C   UNL     1      33.832 -14.558 -25.357  0.00  0.00    +0.100 C 
ENDBRANCH  34  36
ENDBRANCH  28  29
ENDBRANCH  27  28
ENDBRANCH   9  27
TORSDOF 13
ENDMDL
MODEL 3
REMARK VINA RESULT:     -11.5      3.198      5.147
REMARK  Name = 24755471
REMARK  13 active torsions:
REMARK  status: ('A' for Active; 'I' for Inactive)
REMARK    1  A    between atoms: C_1  and  S_11
REMARK    2  A    between atoms: C_9  and  O_27
REMARK    3  A    between atoms: S_11  and  N_14
REMARK    4  A    between atoms: N_14  and  C_16
REMARK    5  A    between atoms: C_16  and  C_18
REMARK    6  A    between atoms: C_16  and  C_21
REMARK    7  A    between atoms: C_18  and  O_19
REMARK    8  A    between atoms: C_21  and  C_22
REMARK    9  A    between atoms: C_22  and  C_24
REMARK   10  A    between atoms: C_24  and  O_25
REMARK   11  A    between atoms: O_27  and  C_28
REMARK   12  A    between atoms: C_28  and  C_29
REMARK   13  A    between atoms: C_34  and  C_36
REMARK                            x       y       z     vdW  Elec       q    Type
REMARK                         _______ _______ _______ _____ _____    ______ ____
ROOT
ATOM      1  C   UNL     1      34.620 -23.402 -16.238  0.00  0.00    +0.122 C 
ATOM      2  C   UNL     1      35.471 -21.966 -18.008  0.00  0.00    +0.002 C 
ATOM      3  C   UNL     1      35.687 -22.768 -16.876  0.00  0.00    +0.020 C 
ATOM      4  C   UNL     1      34.155 -21.804 -18.501  0.00  0.00    +0.003 C 
ATOM      5  C   UNL     1      33.325 -23.243 -16.723  0.00  0.00    +0.020 C 
ATOM      6  C   UNL     1      33.092 -22.450 -17.847  0.00  0.00    +0.001 C 
ATOM      7  C   UNL     1      33.939 -21.002 -19.633  0.00  0.00    +0.037 C 
ATOM      8  C   UNL     1      36.534 -21.319 -18.662  0.00  0.00    +0.003 C 
ATOM      9  C   UNL     1      35.006 -20.368 -20.270  0.00  0.00    +0.139 C 
ATOM     10  C   UNL     1      36.301 -20.526 -19.786  0.00  0.00    +0.037 C 
ENDROOT
BRANCH   1  11
ATOM     11  S   UNL     1      34.914 -24.408 -14.814  0.00  0.00    +0.061 S 
ATOM     12  O   UNL     1      33.798 -24.232 -13.906  0.00  0.00    -0.153 OA
ATOM     13  O   UNL     1      35.262 -25.730 -15.296  0.00  0.00    -0.153 OA
BRANCH  11  14
ATOM     14  N   UNL     1      36.301 -23.680 -14.153  0.00  0.00    -0.170 NA
ATOM     15  H   UNL     1      35.981 -23.058 -13.411  0.00  0.00    +0.149 HD
BRANCH  14  16
ATOM     16  C   UNL     1      37.371 -24.521 -13.574  0.00  0.00    +0.174 C 
BRANCH  16  18
ATOM     17  O   UNL     1      39.372 -23.967 -14.841  0.00  0.00    -0.249 OA
ATOM     18  C   UNL     1      38.431 -24.722 -14.631  0.00  0.00    +0.330 C 
BRANCH  18  19
ATOM     19  O   UNL     1      38.241 -25.868 -15.334  0.00  0.00    -0.479 OA
ATOM     20  H   UNL     1      37.561 -26.463 -15.087  0.00  0.00    +0.295 HD
ENDBRANCH  18  19
ENDBRANCH  16  18
BRANCH  16  21
ATOM     21  C   UNL     1      37.883 -23.910 -12.265  0.00  0.00    +0.040 C 
BRANCH  21  22
ATOM     22  C   UNL     1      36.839 -23.224 -11.379  0.00  0.00    +0.111 C 
BRANCH  22  24
ATOM     23  O   UNL     1      36.208 -24.379  -9.353  0.00  0.00    -0.250 OA
ATOM     24  C   UNL     1      36.022 -24.180 -10.547  0.00  0.00    +0.314 C 
BRANCH  24  25
ATOM     25  O   UNL     1      35.063 -24.816 -11.267  0.00  0.00    -0.480 OA
ATOM     26  H   UNL     1      34.159 -24.642 -11.097  0.00  0.00    +0.295 HD
ENDBRANCH  24  25
ENDBRANCH  22  24
ENDBRANCH  21  22
ENDBRANCH  16  21
ENDBRANCH  14  16
ENDBRANCH  11  14
ENDBRANCH   1  11
BRANCH   9  27
ATOM     27  O   UNL     1      34.780 -19.595 -21.368  0.00  0.00    -0.471 OA
BRANCH  27  28
ATOM     28  C   UNL     1      35.879 -18.831 -21.862  0.00  0.00    +0.232 C 
BRANCH  28  29
ATOM     29  C   UNL     1      35.359 -17.749 -22.760  0.00  0.00    +0.021 C 
ATOM     30  C   UNL     1      34.788 -18.078 -23.990  0.00  0.00    -0.000 C 
ATOM     31  C   UNL     1      35.449 -16.413 -22.368  0.00  0.00    -0.000 C 
ATOM     32  C   UNL     1      34.305 -17.071 -24.825  0.00  0.00    +0.010 C 
ATOM     33  C   UNL     1      34.967 -15.407 -23.204  0.00  0.00    +0.010 C 
ATOM     34  C   UNL     1      34.395 -15.736 -24.433  0.00  0.00    +0.068 C 
BRANCH  34  36
ATOM     35  N   UNL     1      33.497 -13.867 -25.986  0.00  0.00    -0.191 NA
ATOM     36  C   UNL     1      33.899 -14.704 -25.290  0.00  0.00    +0.100 C 
ENDBRANCH  34  36
ENDBRANCH  28  29
ENDBRANCH  27  28
ENDBRANCH   9  27
TORSDOF 13
ENDMDL
MODEL 4
REMARK VINA RESULT:     -11.3      1.561      2.594
REMARK  Name = 24755471
REMARK  13 active torsions:
REMARK  status: ('A' for Active; 'I' for Inactive)
REMARK    1  A    between atoms: C_1  and  S_11
REMARK    2  A    between atoms: C_9  and  O_27
REMARK    3  A    between atoms: S_11  and  N_14
REMARK    4  A    between atoms: N_14  and  C_16
REMARK    5  A    between atoms: C_16  and  C_18
REMARK    6  A    between atoms: C_16  and  C_21
REMARK    7  A    between atoms: C_18  and  O_19
REMARK    8  A    between atoms: C_21  and  C_22
REMARK    9  A    between atoms: C_22  and  C_24
REMARK   10  A    between atoms: C_24  and  O_25
REMARK   11  A    between atoms: O_27  and  C_28
REMARK   12  A    between atoms: C_28  and  C_29
REMARK   13  A    between atoms: C_34  and  C_36
REMARK                            x       y       z     vdW  Elec       q    Type
REMARK                         _______ _______ _______ _____ _____    ______ ____
ROOT
ATOM      1  C   UNL     1      35.615 -22.363 -16.947  0.00  0.00    +0.122 C 
ATOM      2  C   UNL     1      34.401 -21.346 -18.795  0.00  0.00    +0.002 C 
ATOM      3  C   UNL     1      34.413 -22.086 -17.602  0.00  0.00    +0.020 C 
ATOM      4  C   UNL     1      35.624 -20.879 -19.333  0.00  0.00    +0.003 C 
ATOM      5  C   UNL     1      36.817 -21.904 -17.477  0.00  0.00    +0.020 C 
ATOM      6  C   UNL     1      36.824 -21.168 -18.662  0.00  0.00    +0.001 C 
ATOM      7  C   UNL     1      35.612 -20.140 -20.526  0.00  0.00    +0.037 C 
ATOM      8  C   UNL     1      33.201 -21.059 -19.467  0.00  0.00    +0.003 C 
ATOM      9  C   UNL     1      34.410 -19.863 -21.180  0.00  0.00    +0.139 C 
ATOM     10  C   UNL     1      33.207 -20.322 -20.651  0.00  0.00    +0.037 C 
ENDROOT
BRANCH   1  11
ATOM     11  S   UNL     1      35.608 -23.296 -15.446  0.00  0.00    +0.061 S 
ATOM     12  O   UNL     1      35.345 -24.682 -15.783  0.00  0.00    -0.153 OA
ATOM     13  O   UNL     1      36.811 -22.937 -14.720  0.00  0.00    -0.153 OA
BRANCH  11  14
ATOM     14  N   UNL     1      34.261 -22.646 -14.637  0.00  0.00    -0.170 NA
ATOM     15  H   UNL     1      34.032 -21.770 -15.105  0.00  0.00    +0.149 HD
BRANCH  14  16
ATOM     16  C   UNL     1      33.007 -23.426 -14.547  0.00  0.00    +0.174 C 
BRANCH  16  18
ATOM     17  O   UNL     1      32.221 -25.023 -12.890  0.00  0.00    -0.249 OA
ATOM     18  C   UNL     1      32.978 -24.111 -13.202  0.00  0.00    +0.330 C 
BRANCH  18  19
ATOM     19  O   UNL     1      33.915 -23.615 -12.354  0.00  0.00    -0.479 OA
ATOM     20  H   UNL     1      34.473 -24.198 -11.878  0.00  0.00    +0.295 HD
ENDBRANCH  18  19
ENDBRANCH  16  18
BRANCH  16  21
ATOM     21  C   UNL     1      31.798 -22.528 -14.833  0.00  0.00    +0.040 C 
BRANCH  21  22
ATOM     22  C   UNL     1      31.074 -22.763 -16.162  0.00  0.00    +0.111 C 
BRANCH  22  24
ATOM     23  O   UNL     1      29.005 -23.681 -15.321  0.00  0.00    -0.250 OA
ATOM     24  C   UNL     1      29.576 -22.864 -16.032  0.00  0.00    +0.314 C 
BRANCH  24  25
ATOM     25  O   UNL     1      28.919 -21.961 -16.803  0.00  0.00    -0.480 OA
ATOM     26  H   UNL     1      28.745 -22.153 -17.703  0.00  0.00    +0.295 HD
ENDBRANCH  24  25
ENDBRANCH  22  24
ENDBRANCH  21  22
ENDBRANCH  16  21
ENDBRANCH  14  16
ENDBRANCH  11  14
ENDBRANCH   1  11
BRANCH   9  27
ATOM     27  O   UNL     1      34.415 -19.143 -22.335  0.00  0.00    -0.471 OA
BRANCH  27  28
ATOM     28  C   UNL     1      35.613 -18.438 -22.656  0.00  0.00    +0.232 C 
BRANCH  28  29
ATOM     29  C   UNL     1      35.280 -16.999 -22.919  0.00  0.00    +0.021 C 
ATOM     30  C   UNL     1      35.202 -16.097 -21.858  0.00  0.00    -0.000 C 
ATOM     31  C   UNL     1      35.048 -16.564 -24.224  0.00  0.00    -0.000 C 
ATOM     32  C   UNL     1      34.892 -14.760 -22.102  0.00  0.00    +0.010 C 
ATOM     33  C   UNL     1      34.738 -15.227 -24.468  0.00  0.00    +0.010 C 
ATOM     34  C   UNL     1      34.659 -14.324 -23.407  0.00  0.00    +0.068 C 
BRANCH  34  36
ATOM     35  N   UNL     1      34.085 -11.840 -23.860  0.00  0.00    -0.191 NA
ATOM     36  C   UNL     1      34.342 -12.953 -23.657  0.00  0.00    +0.100 C 
ENDBRANCH  34  36
ENDBRANCH  28  29
ENDBRANCH  27  28
ENDBRANCH   9  27
TORSDOF 13
ENDMDL
MODEL 5
REMARK VINA RESULT:     -11.2      4.133      6.223
REMARK  Name = 24755471
REMARK  13 active torsions:
REMARK  status: ('A' for Active; 'I' for Inactive)
REMARK    1  A    between atoms: C_1  and  S_11
REMARK    2  A    between atoms: C_9  and  O_27
REMARK    3  A    between atoms: S_11  and  N_14
REMARK    4  A    between atoms: N_14  and  C_16
REMARK    5  A    between atoms: C_16  and  C_18
REMARK    6  A    between atoms: C_16  and  C_21
REMARK    7  A    between atoms: C_18  and  O_19
REMARK    8  A    between atoms: C_21  and  C_22
REMARK    9  A    between atoms: C_22  and  C_24
REMARK   10  A    between atoms: C_24  and  O_25
REMARK   11  A    between atoms: O_27  and  C_28
REMARK   12  A    between atoms: C_28  and  C_29
REMARK   13  A    between atoms: C_34  and  C_36
REMARK                            x       y       z     vdW  Elec       q    Type
REMARK                         _______ _______ _______ _____ _____    ______ ____
ROOT
ATOM      1  C   UNL     1      36.188 -22.953 -15.584  0.00  0.00    +0.122 C 
ATOM      2  C   UNL     1      35.084 -22.153 -17.600  0.00  0.00    +0.002 C 
ATOM      3  C   UNL     1      35.043 -22.839 -16.376  0.00  0.00    +0.020 C 
ATOM      4  C   UNL     1      36.301 -21.572 -18.028  0.00  0.00    +0.003 C 
ATOM      5  C   UNL     1      37.385 -22.383 -16.006  0.00  0.00    +0.020 C 
ATOM      6  C   UNL     1      37.443 -21.697 -17.220  0.00  0.00    +0.001 C 
ATOM      7  C   UNL     1      36.342 -20.885 -19.252  0.00  0.00    +0.037 C 
ATOM      8  C   UNL     1      33.942 -22.029 -18.409  0.00  0.00    +0.003 C 
ATOM      9  C   UNL     1      35.198 -20.772 -20.042  0.00  0.00    +0.139 C 
ATOM     10  C   UNL     1      34.000 -21.343 -19.622  0.00  0.00    +0.037 C 
ENDROOT
BRANCH   1  11
ATOM     11  S   UNL     1      36.115 -23.822 -14.047  0.00  0.00    +0.061 S 
ATOM     12  O   UNL     1      36.317 -22.861 -12.981  0.00  0.00    -0.153 OA
ATOM     13  O   UNL     1      34.916 -24.637 -14.078  0.00  0.00    -0.153 OA
BRANCH  11  14
ATOM     14  N   UNL     1      37.474 -24.838 -14.155  0.00  0.00    -0.170 NA
ATOM     15  H   UNL     1      37.971 -24.575 -15.006  0.00  0.00    +0.149 HD
BRANCH  14  16
ATOM     16  C   UNL     1      38.472 -24.855 -13.063  0.00  0.00    +0.174 C 
BRANCH  16  18
ATOM     17  O   UNL     1      37.262 -26.419 -11.646  0.00  0.00    -0.249 OA
ATOM     18  C   UNL     1      37.780 -25.319 -11.804  0.00  0.00    +0.330 C 
BRANCH  18  19
ATOM     19  O   UNL     1      37.806 -24.376 -10.828  0.00  0.00    -0.479 OA
ATOM     20  H   UNL     1      38.178 -23.534 -11.000  0.00  0.00    +0.295 HD
ENDBRANCH  18  19
ENDBRANCH  16  18
BRANCH  16  21
ATOM     21  C   UNL     1      39.692 -25.691 -13.467  0.00  0.00    +0.040 C 
BRANCH  21  22
ATOM     22  C   UNL     1      40.218 -25.486 -14.890  0.00  0.00    +0.111 C 
BRANCH  22  24
ATOM     23  O   UNL     1      41.084 -27.254 -16.291  0.00  0.00    -0.250 OA
ATOM     24  C   UNL     1      40.122 -26.715 -15.759  0.00  0.00    +0.314 C 
BRANCH  24  25
ATOM     25  O   UNL     1      38.847 -27.157 -15.905  0.00  0.00    -0.480 OA
ATOM     26  H   UNL     1      38.175 -26.563 -16.176  0.00  0.00    +0.295 HD
ENDBRANCH  24  25
ENDBRANCH  22  24
ENDBRANCH  21  22
ENDBRANCH  16  21
ENDBRANCH  14  16
ENDBRANCH  11  14
ENDBRANCH   1  11
BRANCH   9  27
ATOM     27  O   UNL     1      35.253 -20.101 -21.226  0.00  0.00    -0.471 OA
BRANCH  27  28
ATOM     28  C   UNL     1      36.123 -18.973 -21.293  0.00  0.00    +0.232 C 
BRANCH  28  29
ATOM     29  C   UNL     1      35.575 -17.990 -22.285  0.00  0.00    +0.021 C 
ATOM     30  C   UNL     1      35.009 -18.444 -23.476  0.00  0.00    -0.000 C 
ATOM     31  C   UNL     1      35.634 -16.622 -22.018  0.00  0.00    -0.000 C 
ATOM     32  C   UNL     1      34.501 -17.530 -24.399  0.00  0.00    +0.010 C 
ATOM     33  C   UNL     1      35.126 -15.709 -22.940  0.00  0.00    +0.010 C 
ATOM     34  C   UNL     1      34.560 -16.163 -24.131  0.00  0.00    +0.068 C 
BRANCH  34  36
ATOM     35  N   UNL     1      33.614 -14.466 -25.845  0.00  0.00    -0.191 NA
ATOM     36  C   UNL     1      34.038 -15.226 -25.077  0.00  0.00    +0.100 C 
ENDBRANCH  34  36
ENDBRANCH  28  29
ENDBRANCH  27  28
ENDBRANCH   9  27
TORSDOF 13
ENDMDL
MODEL 6
REMARK VINA RESULT:     -10.6      2.322      4.046
REMARK  Name = 24755471
REMARK  13 active torsions:
REMARK  status: ('A' for Active; 'I' for Inactive)
REMARK    1  A    between atoms: C_1  and  S_11
REMARK    2  A    between atoms: C_9  and  O_27
REMARK    3  A    between atoms: S_11  and  N_14
REMARK    4  A    between atoms: N_14  and  C_16
REMARK    5  A    between atoms: C_16  and  C_18
REMARK    6  A    between atoms: C_16  and  C_21
REMARK    7  A    between atoms: C_18  and  O_19
REMARK    8  A    between atoms: C_21  and  C_22
REMARK    9  A    between atoms: C_22  and  C_24
REMARK   10  A    between atoms: C_24  and  O_25
REMARK   11  A    between atoms: O_27  and  C_28
REMARK   12  A    between atoms: C_28  and  C_29
REMARK   13  A    between atoms: C_34  and  C_36
REMARK                            x       y       z     vdW  Elec       q    Type
REMARK                         _______ _______ _______ _____ _____    ______ ____
ROOT
ATOM      1  C   UNL     1      33.933 -21.817 -18.538  0.00  0.00    +0.122 C 
ATOM      2  C   UNL     1      35.483 -20.523 -19.896  0.00  0.00    +0.002 C 
ATOM      3  C   UNL     1      35.238 -21.448 -18.869  0.00  0.00    +0.020 C 
ATOM      4  C   UNL     1      34.390 -19.964 -20.600  0.00  0.00    +0.003 C 
ATOM      5  C   UNL     1      32.858 -21.266 -19.229  0.00  0.00    +0.020 C 
ATOM      6  C   UNL     1      33.083 -20.345 -20.253  0.00  0.00    +0.001 C 
ATOM      7  C   UNL     1      34.635 -19.039 -21.627  0.00  0.00    +0.037 C 
ATOM      8  C   UNL     1      36.791 -20.141 -20.242  0.00  0.00    +0.003 C 
ATOM      9  C   UNL     1      35.940 -18.671 -21.957  0.00  0.00    +0.139 C 
ATOM     10  C   UNL     1      37.016 -19.221 -21.266  0.00  0.00    +0.037 C 
ENDROOT
BRANCH   1  11
ATOM     11  S   UNL     1      33.647 -22.983 -17.241  0.00  0.00    +0.061 S 
ATOM     12  O   UNL     1      32.314 -22.751 -16.719  0.00  0.00    -0.153 OA
ATOM     13  O   UNL     1      34.013 -24.287 -17.757  0.00  0.00    -0.153 OA
BRANCH  11  14
ATOM     14  N   UNL     1      34.797 -22.506 -16.082  0.00  0.00    -0.170 NA
ATOM     15  H   UNL     1      34.300 -22.410 -15.198  0.00  0.00    +0.149 HD
BRANCH  14  16
ATOM     16  C   UNL     1      35.977 -23.359 -15.821  0.00  0.00    +0.174 C 
BRANCH  16  18
ATOM     17  O   UNL     1      37.962 -22.698 -14.581  0.00  0.00    -0.249 OA
ATOM     18  C   UNL     1      37.131 -22.459 -15.448  0.00  0.00    +0.330 C 
BRANCH  18  19
ATOM     19  O   UNL     1      37.168 -21.333 -16.207  0.00  0.00    -0.479 OA
ATOM     20  H   UNL     1      37.835 -20.693 -16.063  0.00  0.00    +0.295 HD
ENDBRANCH  18  19
ENDBRANCH  16  18
BRANCH  16  21
ATOM     21  C   UNL     1      35.642 -24.431 -14.778  0.00  0.00    +0.040 C 
BRANCH  21  22
ATOM     22  C   UNL     1      36.155 -25.845 -15.065  0.00  0.00    +0.111 C 
BRANCH  22  24
ATOM     23  O   UNL     1      37.639 -26.797 -13.414  0.00  0.00    -0.250 OA
ATOM     24  C   UNL     1      37.494 -26.147 -14.441  0.00  0.00    +0.314 C 
BRANCH  24  25
ATOM     25  O   UNL     1      38.529 -25.606 -15.132  0.00  0.00    -0.480 OA
ATOM     26  H   UNL     1      39.181 -26.162 -15.510  0.00  0.00    +0.295 HD
ENDBRANCH  24  25
ENDBRANCH  22  24
ENDBRANCH  21  22
ENDBRANCH  16  21
ENDBRANCH  14  16
ENDBRANCH  11  14
ENDBRANCH   1  11
BRANCH   9  27
ATOM     27  O   UNL     1      36.161 -17.774 -22.957  0.00  0.00    -0.471 OA
BRANCH  27  28
ATOM     28  C   UNL     1      35.075 -17.508 -23.843  0.00  0.00    +0.232 C 
BRANCH  28  29
ATOM     29  C   UNL     1      34.760 -16.042 -23.805  0.00  0.00    +0.021 C 
ATOM     30  C   UNL     1      34.148 -15.432 -24.900  0.00  0.00    -0.000 C 
ATOM     31  C   UNL     1      35.080 -15.288 -22.676  0.00  0.00    -0.000 C 
ATOM     32  C   UNL     1      33.855 -14.069 -24.865  0.00  0.00    +0.010 C 
ATOM     33  C   UNL     1      34.788 -13.925 -22.641  0.00  0.00    +0.010 C 
ATOM     34  C   UNL     1      34.176 -13.315 -23.736  0.00  0.00    +0.068 C 
BRANCH  34  36
ATOM     35  N   UNL     1      33.631 -10.784 -23.671  0.00  0.00    -0.191 NA
ATOM     36  C   UNL     1      33.875 -11.918 -23.701  0.00  0.00    +0.100 C 
ENDBRANCH  34  36
ENDBRANCH  28  29
ENDBRANCH  27  28
ENDBRANCH   9  27
TORSDOF 13
ENDMDL
MODEL 7
REMARK VINA RESULT:     -10.5      3.607      7.460
REMARK  Name = 24755471
REMARK  13 active torsions:
REMARK  status: ('A' for Active; 'I' for Inactive)
REMARK    1  A    between atoms: C_1  and  S_11
REMARK    2  A    between atoms: C_9  and  O_27
REMARK    3  A    between atoms: S_11  and  N_14
REMARK    4  A    between atoms: N_14  and  C_16
REMARK    5  A    between atoms: C_16  and  C_18
REMARK    6  A    between atoms: C_16  and  C_21
REMARK    7  A    between atoms: C_18  and  O_19
REMARK    8  A    between atoms: C_21  and  C_22
REMARK    9  A    between atoms: C_22  and  C_24
REMARK   10  A    between atoms: C_24  and  O_25
REMARK   11  A    between atoms: O_27  and  C_28
REMARK   12  A    between atoms: C_28  and  C_29
REMARK   13  A    between atoms: C_34  and  C_36
REMARK                            x       y       z     vdW  Elec       q    Type
REMARK                         _______ _______ _______ _____ _____    ______ ____
ROOT
ATOM      1  C   UNL     1      34.725 -16.522 -23.430  0.00  0.00    +0.122 C 
ATOM      2  C   UNL     1      34.152 -14.511 -24.674  0.00  0.00    +0.002 C 
ATOM      3  C   UNL     1      34.269 -15.908 -24.598  0.00  0.00    +0.020 C 
ATOM      4  C   UNL     1      34.503 -13.724 -23.551  0.00  0.00    +0.003 C 
ATOM      5  C   UNL     1      35.070 -15.749 -22.326  0.00  0.00    +0.020 C 
ATOM      6  C   UNL     1      34.961 -14.359 -22.384  0.00  0.00    +0.001 C 
ATOM      7  C   UNL     1      34.386 -12.327 -23.627  0.00  0.00    +0.037 C 
ATOM      8  C   UNL     1      33.695 -13.876 -25.841  0.00  0.00    +0.003 C 
ATOM      9  C   UNL     1      33.930 -11.714 -24.795  0.00  0.00    +0.139 C 
ATOM     10  C   UNL     1      33.585 -12.487 -25.899  0.00  0.00    +0.037 C 
ENDROOT
BRANCH   1  11
ATOM     11  S   UNL     1      34.864 -18.283 -23.355  0.00  0.00    +0.061 S 
ATOM     12  O   UNL     1      33.580 -18.848 -23.722  0.00  0.00    -0.153 OA
ATOM     13  O   UNL     1      36.059 -18.644 -24.094  0.00  0.00    -0.153 OA
BRANCH  11  14
ATOM     14  N   UNL     1      35.143 -18.541 -21.698  0.00  0.00    -0.170 NA
ATOM     15  H   UNL     1      34.269 -18.889 -21.304  0.00  0.00    +0.149 HD
BRANCH  14  16
ATOM     16  C   UNL     1      36.208 -19.470 -21.264  0.00  0.00    +0.174 C 
BRANCH  16  18
ATOM     17  O   UNL     1      37.815 -18.371 -19.807  0.00  0.00    -0.249 OA
ATOM     18  C   UNL     1      37.436 -18.654 -20.937  0.00  0.00    +0.330 C 
BRANCH  18  19
ATOM     19  O   UNL     1      38.109 -18.272 -22.052  0.00  0.00    -0.479 OA
ATOM     20  H   UNL     1      38.368 -17.378 -22.160  0.00  0.00    +0.295 HD
ENDBRANCH  18  19
ENDBRANCH  16  18
BRANCH  16  21
ATOM     21  C   UNL     1      35.709 -20.361 -20.120  0.00  0.00    +0.040 C 
BRANCH  21  22
ATOM     22  C   UNL     1      34.192 -20.522 -19.995  0.00  0.00    +0.111 C 
BRANCH  22  24
ATOM     23  O   UNL     1      32.623 -21.883 -18.762  0.00  0.00    -0.250 OA
ATOM     24  C   UNL     1      33.770 -21.692 -19.143  0.00  0.00    +0.314 C 
BRANCH  24  25
ATOM     25  O   UNL     1      34.806 -22.510 -18.825  0.00  0.00    -0.480 OA
ATOM     26  H   UNL     1      35.261 -22.972 -19.501  0.00  0.00    +0.295 HD
ENDBRANCH  24  25
ENDBRANCH  22  24
ENDBRANCH  21  22
ENDBRANCH  16  21
ENDBRANCH  14  16
ENDBRANCH  11  14
ENDBRANCH   1  11
BRANCH   9  27
ATOM     27  O   UNL     1      33.821 -10.358 -24.852  0.00  0.00    -0.471 OA
BRANCH  27  28
ATOM     28  C   UNL     1      34.570  -9.605 -23.900  0.00  0.00    +0.232 C 
BRANCH  28  29
ATOM     29  C   UNL     1      33.769  -8.408 -23.482  0.00  0.00    +0.021 C 
ATOM     30  C   UNL     1      34.400  -7.178 -23.295  0.00  0.00    -0.000 C 
ATOM     31  C   UNL     1      32.394  -8.524 -23.279  0.00  0.00    -0.000 C 
ATOM     32  C   UNL     1      33.656  -6.065 -22.906  0.00  0.00    +0.010 C 
ATOM     33  C   UNL     1      31.650  -7.411 -22.890  0.00  0.00    +0.010 C 
ATOM     34  C   UNL     1      32.281  -6.181 -22.703  0.00  0.00    +0.068 C 
BRANCH  34  36
ATOM     35  N   UNL     1      30.899  -4.113 -21.982  0.00  0.00    -0.191 NA
ATOM     36  C   UNL     1      31.518  -5.039 -22.305  0.00  0.00    +0.100 C 
ENDBRANCH  34  36
ENDBRANCH  28  29
ENDBRANCH  27  28
ENDBRANCH   9  27
TORSDOF 13
ENDMDL
MODEL 8
REMARK VINA RESULT:     -10.4      2.919     10.050
REMARK  Name = 24755471
REMARK  13 active torsions:
REMARK  status: ('A' for Active; 'I' for Inactive)
REMARK    1  A    between atoms: C_1  and  S_11
REMARK    2  A    between atoms: C_9  and  O_27
REMARK    3  A    between atoms: S_11  and  N_14
REMARK    4  A    between atoms: N_14  and  C_16
REMARK    5  A    between atoms: C_16  and  C_18
REMARK    6  A    between atoms: C_16  and  C_21
REMARK    7  A    between atoms: C_18  and  O_19
REMARK    8  A    between atoms: C_21  and  C_22
REMARK    9  A    between atoms: C_22  and  C_24
REMARK   10  A    between atoms: C_24  and  O_25
REMARK   11  A    between atoms: O_27  and  C_28
REMARK   12  A    between atoms: C_28  and  C_29
REMARK   13  A    between atoms: C_34  and  C_36
REMARK                            x       y       z     vdW  Elec       q    Type
REMARK                         _______ _______ _______ _____ _____    ______ ____
ROOT
ATOM      1  C   UNL     1      35.322 -19.165 -21.495  0.00  0.00    +0.122 C 
ATOM      2  C   UNL     1      35.644 -20.700 -19.634  0.00  0.00    +0.002 C 
ATOM      3  C   UNL     1      36.162 -19.795 -20.575  0.00  0.00    +0.020 C 
ATOM      4  C   UNL     1      34.255 -20.970 -19.626  0.00  0.00    +0.003 C 
ATOM      5  C   UNL     1      33.957 -19.432 -21.487  0.00  0.00    +0.020 C 
ATOM      6  C   UNL     1      33.425 -20.328 -20.560  0.00  0.00    +0.001 C 
ATOM      7  C   UNL     1      33.737 -21.875 -18.686  0.00  0.00    +0.037 C 
ATOM      8  C   UNL     1      36.475 -21.343 -18.701  0.00  0.00    +0.003 C 
ATOM      9  C   UNL     1      34.577 -22.504 -17.766  0.00  0.00    +0.139 C 
ATOM     10  C   UNL     1      35.943 -22.239 -17.774  0.00  0.00    +0.037 C 
ENDROOT
BRANCH   1  11
ATOM     11  S   UNL     1      35.995 -18.029 -22.671  0.00  0.00    +0.061 S 
ATOM     12  O   UNL     1      37.338 -17.688 -22.244  0.00  0.00    -0.153 OA
ATOM     13  O   UNL     1      35.768 -18.598 -23.985  0.00  0.00    -0.153 OA
BRANCH  11  14
ATOM     14  N   UNL     1      34.980 -16.679 -22.472  0.00  0.00    -0.170 NA
ATOM     15  H   UNL     1      35.012 -16.431 -21.484  0.00  0.00    +0.149 HD
BRANCH  14  16
ATOM     16  C   UNL     1      35.243 -15.440 -23.236  0.00  0.00    +0.174 C 
BRANCH  16  18
ATOM     17  O   UNL     1      33.466 -14.531 -24.626  0.00  0.00    -0.249 OA
ATOM     18  C   UNL     1      34.297 -15.405 -24.412  0.00  0.00    +0.330 C 
BRANCH  18  19
ATOM     19  O   UNL     1      34.479 -16.461 -25.247  0.00  0.00    -0.479 OA
ATOM     20  H   UNL     1      34.718 -17.297 -24.899  0.00  0.00    +0.295 HD
ENDBRANCH  18  19
ENDBRANCH  16  18
BRANCH  16  21
ATOM     21  C   UNL     1      35.161 -14.217 -22.314  0.00  0.00    +0.040 C 
BRANCH  21  22
ATOM     22  C   UNL     1      34.307 -14.371 -21.053  0.00  0.00    +0.111 C 
BRANCH  22  24
ATOM     23  O   UNL     1      32.230 -13.528 -20.152  0.00  0.00    -0.250 OA
ATOM     24  C   UNL     1      33.043 -13.549 -21.067  0.00  0.00    +0.314 C 
BRANCH  24  25
ATOM     25  O   UNL     1      32.889 -12.842 -22.216  0.00  0.00    -0.480 OA
ATOM     26  H   UNL     1      33.452 -13.008 -22.946  0.00  0.00    +0.295 HD
ENDBRANCH  24  25
ENDBRANCH  22  24
ENDBRANCH  21  22
ENDBRANCH  16  21
ENDBRANCH  14  16
ENDBRANCH  11  14
ENDBRANCH   1  11
BRANCH   9  27
ATOM     27  O   UNL     1      34.059 -23.378 -16.859  0.00  0.00    -0.471 OA
BRANCH  27  28
ATOM     28  C   UNL     1      33.697 -22.851 -15.584  0.00  0.00    +0.232 C 
BRANCH  28  29
ATOM     29  C   UNL     1      32.203 -22.747 -15.502  0.00  0.00    +0.021 C 
ATOM     30  C   UNL     1      31.438 -22.772 -16.668  0.00  0.00    -0.000 C 
ATOM     31  C   UNL     1      31.578 -22.623 -14.261  0.00  0.00    -0.000 C 
ATOM     32  C   UNL     1      30.049 -22.674 -16.593  0.00  0.00    +0.010 C 
ATOM     33  C   UNL     1      30.190 -22.525 -14.185  0.00  0.00    +0.010 C 
ATOM     34  C   UNL     1      29.425 -22.550 -15.351  0.00  0.00    +0.068 C 
BRANCH  34  36
ATOM     35  N   UNL     1      26.845 -22.369 -15.212  0.00  0.00    -0.191 NA
ATOM     36  C   UNL     1      28.001 -22.451 -15.274  0.00  0.00    +0.100 C 
ENDBRANCH  34  36
ENDBRANCH  28  29
ENDBRANCH  27  28
ENDBRANCH   9  27
TORSDOF 13
ENDMDL
MODEL 9
REMARK VINA RESULT:     -10.3      3.992     10.788
REMARK  Name = 24755471
REMARK  13 active torsions:
REMARK  status: ('A' for Active; 'I' for Inactive)
REMARK    1  A    between atoms: C_1  and  S_11
REMARK    2  A    between atoms: C_9  and  O_27
REMARK    3  A    between atoms: S_11  and  N_14
REMARK    4  A    between atoms: N_14  and  C_16
REMARK    5  A    between atoms: C_16  and  C_18
REMARK    6  A    between atoms: C_16  and  C_21
REMARK    7  A    between atoms: C_18  and  O_19
REMARK    8  A    between atoms: C_21  and  C_22
REMARK    9  A    between atoms: C_22  and  C_24
REMARK   10  A    between atoms: C_24  and  O_25
REMARK   11  A    between atoms: O_27  and  C_28
REMARK   12  A    between atoms: C_28  and  C_29
REMARK   13  A    between atoms: C_34  and  C_36
REMARK                            x       y       z     vdW  Elec       q    Type
REMARK                         _______ _______ _______ _____ _____    ______ ____
ROOT
ATOM      1  C   UNL     1      35.268 -19.246 -21.610  0.00  0.00    +0.122 C 
ATOM      2  C   UNL     1      34.263 -20.695 -19.933  0.00  0.00    +0.002 C 
ATOM      3  C   UNL     1      34.140 -19.836 -21.037  0.00  0.00    +0.020 C 
ATOM      4  C   UNL     1      35.548 -20.960 -19.402  0.00  0.00    +0.003 C 
ATOM      5  C   UNL     1      36.531 -19.507 -21.087  0.00  0.00    +0.020 C 
ATOM      6  C   UNL     1      36.672 -20.357 -19.990  0.00  0.00    +0.001 C 
ATOM      7  C   UNL     1      35.671 -21.819 -18.298  0.00  0.00    +0.037 C 
ATOM      8  C   UNL     1      33.138 -21.297 -19.344  0.00  0.00    +0.003 C 
ATOM      9  C   UNL     1      34.543 -22.408 -17.726  0.00  0.00    +0.139 C 
ATOM     10  C   UNL     1      33.279 -22.148 -18.247  0.00  0.00    +0.037 C 
ENDROOT
BRANCH   1  11
ATOM     11  S   UNL     1      35.091 -18.168 -23.000  0.00  0.00    +0.061 S 
ATOM     12  O   UNL     1      36.340 -18.182 -23.737  0.00  0.00    -0.153 OA
ATOM     13  O   UNL     1      33.850 -18.528 -23.658  0.00  0.00    -0.153 OA
BRANCH  11  14
ATOM     14  N   UNL     1      34.897 -16.656 -22.246  0.00  0.00    -0.170 NA
ATOM     15  H   UNL     1      35.451 -16.681 -21.391  0.00  0.00    +0.149 HD
BRANCH  14  16
ATOM     16  C   UNL     1      35.274 -15.419 -22.965  0.00  0.00    +0.174 C 
BRANCH  16  18
ATOM     17  O   UNL     1      33.444 -14.665 -24.380  0.00  0.00    -0.249 OA
ATOM     18  C   UNL     1      34.452 -15.345 -24.230  0.00  0.00    +0.330 C 
BRANCH  18  19
ATOM     19  O   UNL     1      34.969 -16.116 -25.222  0.00  0.00    -0.479 OA
ATOM     20  H   UNL     1      34.729 -15.956 -26.113  0.00  0.00    +0.295 HD
ENDBRANCH  18  19
ENDBRANCH  16  18
BRANCH  16  21
ATOM     21  C   UNL     1      35.137 -14.202 -22.044  0.00  0.00    +0.040 C 
BRANCH  21  22
ATOM     22  C   UNL     1      34.190 -14.354 -20.850  0.00  0.00    +0.111 C 
BRANCH  22  24
ATOM     23  O   UNL     1      32.001 -13.597 -20.165  0.00  0.00    -0.250 OA
ATOM     24  C   UNL     1      32.920 -13.551 -20.972  0.00  0.00    +0.314 C 
BRANCH  24  25
ATOM     25  O   UNL     1      32.893 -12.777 -22.087  0.00  0.00    -0.480 OA
ATOM     26  H   UNL     1      33.660 -12.307 -22.349  0.00  0.00    +0.295 HD
ENDBRANCH  24  25
ENDBRANCH  22  24
ENDBRANCH  21  22
ENDBRANCH  16  21
ENDBRANCH  14  16
ENDBRANCH  11  14
ENDBRANCH   1  11
BRANCH   9  27
ATOM     27  O   UNL     1      34.679 -23.240 -16.657  0.00  0.00    -0.471 OA
BRANCH  27  28
ATOM     28  C   UNL     1      35.298 -22.702 -15.490  0.00  0.00    +0.232 C 
BRANCH  28  29
ATOM     29  C   UNL     1      36.543 -23.484 -15.190  0.00  0.00    +0.021 C 
ATOM     30  C   UNL     1      37.789 -22.981 -15.563  0.00  0.00    -0.000 C 
ATOM     31  C   UNL     1      36.454 -24.716 -14.541  0.00  0.00    -0.000 C 
ATOM     32  C   UNL     1      38.946 -23.709 -15.286  0.00  0.00    +0.010 C 
ATOM     33  C   UNL     1      37.610 -25.443 -14.263  0.00  0.00    +0.010 C 
ATOM     34  C   UNL     1      38.857 -24.940 -14.636  0.00  0.00    +0.068 C 
BRANCH  34  36
ATOM     35  N   UNL     1      41.006 -26.290 -14.120  0.00  0.00    -0.191 NA
ATOM     36  C   UNL     1      40.043 -25.685 -14.351  0.00  0.00    +0.100 C 
ENDBRANCH  34  36
ENDBRANCH  28  29
ENDBRANCH  27  28
ENDBRANCH   9  27
TORSDOF 13
ENDMDL
