MODEL 1
REMARK VINA RESULT:     -12.2      0.000      0.000
REMARK  Name = 10430360
REMARK  6 active torsions:
REMARK  status: ('A' for Active; 'I' for Inactive)
REMARK    1  A    between atoms: C_4  and  C_18
REMARK    2  A    between atoms: C_7  and  C_14
REMARK    3  A    between atoms: C_17  and  O_23
REMARK    4  A    between atoms: O_23  and  C_24
REMARK    5  A    between atoms: C_24  and  C_25
REMARK    6  A    between atoms: C_25  and  N_26
REMARK                            x       y       z     vdW  Elec       q    Type
REMARK                         _______ _______ _______ _____ _____    ______ ____
ROOT
ATOM      1  N   UNL     1      34.012 -24.639 -13.715  0.00  0.00    -0.276 N 
ATOM      2  N   UNL     1      34.952 -24.116 -14.520  0.00  0.00    -0.173 NA
ATOM      3  C   UNL     1      32.848 -23.576 -15.239  0.00  0.00    +0.036 A 
ATOM      4  C   UNL     1      34.242 -23.468 -15.451  0.00  0.00    +0.102 A 
ATOM      5  C   UNL     1      32.727 -24.352 -14.092  0.00  0.00    +0.075 A 
ATOM      6  C   UNL     1      31.686 -23.113 -15.881  0.00  0.00    +0.006 C 
ATOM      7  C   UNL     1      30.441 -23.451 -15.337  0.00  0.00    +0.033 C 
ATOM      8  C   UNL     1      31.496 -24.701 -13.534  0.00  0.00    +0.019 C 
ATOM      9  C   UNL     1      30.350 -24.232 -14.184  0.00  0.00    +0.004 C 
ATOM     10  H   UNL     1      34.228 -25.182 -12.923  0.00  0.00    +0.189 HD
ENDROOT
BRANCH   7  14
ATOM     11  N   UNL     1      28.789 -23.487 -17.162  0.00  0.00    -0.218 N 
ATOM     12  N   UNL     1      28.419 -22.054 -15.555  0.00  0.00    -0.206 NA
ATOM     13  N   UNL     1      27.652 -22.885 -17.542  0.00  0.00    -0.157 NA
ATOM     14  C   UNL     1      29.235 -22.986 -15.981  0.00  0.00    +0.149 C 
ATOM     15  C   UNL     1      27.471 -22.027 -16.537  0.00  0.00    +0.218 C 
ATOM     16  H   UNL     1      29.240 -24.198 -17.672  0.00  0.00    +0.176 HD
ENDBRANCH   7  14
BRANCH   4  18
ATOM     17  C   UNL     1      34.888 -21.820 -18.724  0.00  0.00    +0.138 C 
ATOM     18  C   UNL     1      34.907 -22.763 -16.510  0.00  0.00    +0.022 C 
ATOM     19  C   UNL     1      34.236 -22.503 -17.704  0.00  0.00    +0.038 C 
ATOM     20  C   UNL     1      36.202 -21.394 -18.566  0.00  0.00    +0.037 C 
ATOM     21  C   UNL     1      36.226 -22.339 -16.343  0.00  0.00    +0.002 C 
ATOM     22  C   UNL     1      36.873 -21.654 -17.371  0.00  0.00    +0.003 C 
BRANCH  17  23
ATOM     23  O   UNL     1      34.229 -21.562 -19.898  0.00  0.00    -0.478 OA
BRANCH  23  24
ATOM     24  C   UNL     1      34.055 -20.195 -20.249  0.00  0.00    +0.183 C 
BRANCH  24  25
ATOM     25  C   UNL     1      35.253 -19.746 -21.070  0.00  0.00    -0.029 C 
BRANCH  25  26
ATOM     26  N   UNL     1      34.860 -18.726 -22.042  0.00  0.00    +0.389 N 
ATOM     27  C   UNL     1      35.723 -17.542 -21.924  0.00  0.00    -0.077 C 
ATOM     28  C   UNL     1      34.893 -19.275 -23.405  0.00  0.00    -0.077 C 
ATOM     29  C   UNL     1      35.294 -16.447 -22.901  0.00  0.00    -0.023 C 
ATOM     30  C   UNL     1      34.437 -18.235 -24.430  0.00  0.00    -0.023 C 
ATOM     31  C   UNL     1      35.269 -16.961 -24.336  0.00  0.00    -0.004 C 
ATOM     32  H   UNL     1      33.901 -18.437 -21.843  0.00  0.00    -0.080 HD
ENDBRANCH  25  26
ENDBRANCH  24  25
ENDBRANCH  23  24
ENDBRANCH  17  23
ENDBRANCH   4  18
TORSDOF 6
ENDMDL
MODEL 2
REMARK VINA RESULT:     -12.0      3.099      6.151
REMARK  Name = 10430360
REMARK  6 active torsions:
REMARK  status: ('A' for Active; 'I' for Inactive)
REMARK    1  A    between atoms: C_4  and  C_18
REMARK    2  A    between atoms: C_7  and  C_14
REMARK    3  A    between atoms: C_17  and  O_23
REMARK    4  A    between atoms: O_23  and  C_24
REMARK    5  A    between atoms: C_24  and  C_25
REMARK    6  A    between atoms: C_25  and  N_26
REMARK                            x       y       z     vdW  Elec       q    Type
REMARK                         _______ _______ _______ _____ _____    ______ ____
ROOT
ATOM      1  N   UNL     1      32.401 -21.249 -19.563  0.00  0.00    -0.276 N 
ATOM      2  N   UNL     1      33.001 -20.466 -20.477  0.00  0.00    -0.173 NA
ATOM      3  C   UNL     1      34.512 -21.293 -18.971  0.00  0.00    +0.036 A 
ATOM      4  C   UNL     1      34.289 -20.493 -20.115  0.00  0.00    +0.102 A 
ATOM      5  C   UNL     1      33.254 -21.775 -18.630  0.00  0.00    +0.075 A 
ATOM      6  C   UNL     1      35.623 -21.659 -18.191  0.00  0.00    +0.006 C 
ATOM      7  C   UNL     1      35.420 -22.503 -17.093  0.00  0.00    +0.033 C 
ATOM      8  C   UNL     1      33.030 -22.617 -17.539  0.00  0.00    +0.019 C 
ATOM      9  C   UNL     1      34.145 -22.973 -16.774  0.00  0.00    +0.004 C 
ATOM     10  H   UNL     1      31.434 -21.426 -19.565  0.00  0.00    +0.189 HD
ENDROOT
BRANCH   7  14
ATOM     11  N   UNL     1      37.791 -22.372 -16.444  0.00  0.00    -0.218 N 
ATOM     12  N   UNL     1      36.554 -23.762 -15.299  0.00  0.00    -0.206 NA
ATOM     13  N   UNL     1      38.655 -22.899 -15.562  0.00  0.00    -0.157 NA
ATOM     14  C   UNL     1      36.547 -22.891 -16.278  0.00  0.00    +0.149 C 
ATOM     15  C   UNL     1      37.858 -23.733 -14.894  0.00  0.00    +0.218 C 
ATOM     16  H   UNL     1      38.028 -21.697 -17.120  0.00  0.00    +0.176 HD
ENDBRANCH   7  14
BRANCH   4  18
ATOM     17  C   UNL     1      35.881 -18.497 -22.823  0.00  0.00    +0.138 C 
ATOM     18  C   UNL     1      35.268 -19.761 -20.868  0.00  0.00    +0.022 C 
ATOM     19  C   UNL     1      34.927 -19.204 -22.101  0.00  0.00    +0.038 C 
ATOM     20  C   UNL     1      37.172 -18.340 -22.330  0.00  0.00    +0.037 C 
ATOM     21  C   UNL     1      36.561 -19.609 -20.367  0.00  0.00    +0.002 C 
ATOM     22  C   UNL     1      37.513 -18.898 -21.098  0.00  0.00    +0.003 C 
BRANCH  17  23
ATOM     23  O   UNL     1      35.547 -17.947 -24.033  0.00  0.00    -0.478 OA
BRANCH  23  24
ATOM     24  C   UNL     1      34.617 -16.871 -24.014  0.00  0.00    +0.183 C 
BRANCH  24  25
ATOM     25  C   UNL     1      35.370 -15.571 -24.247  0.00  0.00    -0.029 C 
BRANCH  25  26
ATOM     26  N   UNL     1      34.943 -14.549 -23.291  0.00  0.00    +0.389 N 
ATOM     27  C   UNL     1      33.651 -13.976 -23.694  0.00  0.00    -0.077 C 
ATOM     28  C   UNL     1      34.877 -15.109 -21.934  0.00  0.00    -0.077 C 
ATOM     29  C   UNL     1      33.214 -12.871 -22.731  0.00  0.00    -0.023 C 
ATOM     30  C   UNL     1      34.480 -14.041 -20.915  0.00  0.00    -0.023 C 
ATOM     31  C   UNL     1      33.161 -13.376 -21.293  0.00  0.00    -0.004 C 
ATOM     32  H   UNL     1      35.633 -13.797 -23.287  0.00  0.00    -0.080 HD
ENDBRANCH  25  26
ENDBRANCH  24  25
ENDBRANCH  23  24
ENDBRANCH  17  23
ENDBRANCH   4  18
TORSDOF 6
ENDMDL
MODEL 3
REMARK VINA RESULT:     -11.9      1.284      2.157
REMARK  Name = 10430360
REMARK  6 active torsions:
REMARK  status: ('A' for Active; 'I' for Inactive)
REMARK    1  A    between atoms: C_4  and  C_18
REMARK    2  A    between atoms: C_7  and  C_14
REMARK    3  A    between atoms: C_17  and  O_23
REMARK    4  A    between atoms: O_23  and  C_24
REMARK    5  A    between atoms: C_24  and  C_25
REMARK    6  A    between atoms: C_25  and  N_26
REMARK                            x       y       z     vdW  Elec       q    Type
REMARK                         _______ _______ _______ _____ _____    ______ ____
ROOT
ATOM      1  N   UNL     1      34.896 -23.630 -15.710  0.00  0.00    -0.276 N 
ATOM      2  N   UNL     1      35.371 -22.960 -16.774  0.00  0.00    -0.173 NA
ATOM      3  C   UNL     1      33.095 -22.779 -16.627  0.00  0.00    +0.036 A 
ATOM      4  C   UNL     1      34.272 -22.440 -17.333  0.00  0.00    +0.102 A 
ATOM      5  C   UNL     1      33.536 -23.561 -15.566  0.00  0.00    +0.075 A 
ATOM      6  C   UNL     1      31.721 -22.516 -16.763  0.00  0.00    +0.006 C 
ATOM      7  C   UNL     1      30.840 -23.056 -15.817  0.00  0.00    +0.033 C 
ATOM      8  C   UNL     1      32.675 -24.109 -14.613  0.00  0.00    +0.019 C 
ATOM      9  C   UNL     1      31.311 -23.839 -14.762  0.00  0.00    +0.004 C 
ATOM     10  H   UNL     1      35.476 -24.128 -15.090  0.00  0.00    +0.189 HD
ENDROOT
BRANCH   7  14
ATOM     11  N   UNL     1      28.684 -23.230 -16.993  0.00  0.00    -0.218 N 
ATOM     12  N   UNL     1      28.664 -22.143 -15.098  0.00  0.00    -0.206 NA
ATOM     13  N   UNL     1      27.401 -22.860 -16.863  0.00  0.00    -0.157 NA
ATOM     14  C   UNL     1      29.424 -22.799 -15.939  0.00  0.00    +0.149 C 
ATOM     15  C   UNL     1      27.441 -22.205 -15.702  0.00  0.00    +0.218 C 
ATOM     16  H   UNL     1      29.041 -23.747 -17.751  0.00  0.00    +0.176 HD
ENDBRANCH   7  14
BRANCH   4  18
ATOM     17  C   UNL     1      35.716 -20.485 -20.152  0.00  0.00    +0.138 C 
ATOM     18  C   UNL     1      34.374 -21.637 -18.519  0.00  0.00    +0.022 C 
ATOM     19  C   UNL     1      35.627 -21.263 -19.003  0.00  0.00    +0.038 C 
ATOM     20  C   UNL     1      34.569 -20.076 -20.822  0.00  0.00    +0.037 C 
ATOM     21  C   UNL     1      33.218 -21.230 -19.185  0.00  0.00    +0.002 C 
ATOM     22  C   UNL     1      33.315 -20.450 -20.337  0.00  0.00    +0.003 C 
BRANCH  17  23
ATOM     23  O   UNL     1      36.947 -20.119 -20.630  0.00  0.00    -0.478 OA
BRANCH  23  24
ATOM     24  C   UNL     1      37.191 -18.725 -20.770  0.00  0.00    +0.183 C 
BRANCH  24  25
ATOM     25  C   UNL     1      37.290 -18.394 -22.250  0.00  0.00    -0.029 C 
BRANCH  25  26
ATOM     26  N   UNL     1      36.005 -17.915 -22.759  0.00  0.00    +0.389 N 
ATOM     27  C   UNL     1      36.074 -16.479 -23.064  0.00  0.00    -0.077 C 
ATOM     28  C   UNL     1      35.598 -18.691 -23.939  0.00  0.00    -0.077 C 
ATOM     29  C   UNL     1      34.724 -15.953 -23.551  0.00  0.00    -0.023 C 
ATOM     30  C   UNL     1      34.232 -18.236 -24.454  0.00  0.00    -0.023 C 
ATOM     31  C   UNL     1      34.222 -16.741 -24.756  0.00  0.00    -0.004 C 
ATOM     32  H   UNL     1      35.297 -18.049 -22.036  0.00  0.00    -0.080 HD
ENDBRANCH  25  26
ENDBRANCH  24  25
ENDBRANCH  23  24
ENDBRANCH  17  23
ENDBRANCH   4  18
TORSDOF 6
ENDMDL
MODEL 4
REMARK VINA RESULT:     -11.6      1.803      4.296
REMARK  Name = 10430360
REMARK  6 active torsions:
REMARK  status: ('A' for Active; 'I' for Inactive)
REMARK    1  A    between atoms: C_4  and  C_18
REMARK    2  A    between atoms: C_7  and  C_14
REMARK    3  A    between atoms: C_17  and  O_23
REMARK    4  A    between atoms: O_23  and  C_24
REMARK    5  A    between atoms: C_24  and  C_25
REMARK    6  A    between atoms: C_25  and  N_26
REMARK                            x       y       z     vdW  Elec       q    Type
REMARK                         _______ _______ _______ _____ _____    ______ ____
ROOT
ATOM      1  N   UNL     1      31.207 -22.912 -16.791  0.00  0.00    -0.276 N 
ATOM      2  N   UNL     1      31.957 -22.343 -17.750  0.00  0.00    -0.173 NA
ATOM      3  C   UNL     1      33.247 -23.055 -15.999  0.00  0.00    +0.036 A 
ATOM      4  C   UNL     1      33.202 -22.430 -17.267  0.00  0.00    +0.102 A 
ATOM      5  C   UNL     1      31.921 -23.359 -15.712  0.00  0.00    +0.075 A 
ATOM      6  C   UNL     1      34.247 -23.393 -15.071  0.00  0.00    +0.006 C 
ATOM      7  C   UNL     1      33.868 -24.029 -13.882  0.00  0.00    +0.033 C 
ATOM      8  C   UNL     1      31.523 -23.993 -14.534  0.00  0.00    +0.019 C 
ATOM      9  C   UNL     1      32.529 -24.323 -13.620  0.00  0.00    +0.004 C 
ATOM     10  H   UNL     1      30.229 -22.997 -16.859  0.00  0.00    +0.189 HD
ENDROOT
BRANCH   7  14
ATOM     11  N   UNL     1      35.955 -25.156 -13.220  0.00  0.00    -0.218 N 
ATOM     12  N   UNL     1      34.921 -24.040 -11.651  0.00  0.00    -0.206 NA
ATOM     13  N   UNL     1      36.739 -25.337 -12.146  0.00  0.00    -0.157 NA
ATOM     14  C   UNL     1      34.880 -24.385 -12.915  0.00  0.00    +0.149 C 
ATOM     15  C   UNL     1      36.070 -24.643 -11.224  0.00  0.00    +0.218 C 
ATOM     16  H   UNL     1      36.137 -25.531 -14.112  0.00  0.00    +0.176 HD
ENDBRANCH   7  14
BRANCH   4  18
ATOM     17  C   UNL     1      35.165 -20.783 -19.966  0.00  0.00    +0.138 C 
ATOM     18  C   UNL     1      34.310 -21.921 -18.024  0.00  0.00    +0.022 C 
ATOM     19  C   UNL     1      34.087 -21.273 -19.239  0.00  0.00    +0.038 C 
ATOM     20  C   UNL     1      36.465 -20.932 -19.494  0.00  0.00    +0.037 C 
ATOM     21  C   UNL     1      35.611 -22.074 -17.545  0.00  0.00    +0.002 C 
ATOM     22  C   UNL     1      36.689 -21.579 -18.279  0.00  0.00    +0.003 C 
BRANCH  17  23
ATOM     23  O   UNL     1      34.946 -20.145 -21.159  0.00  0.00    -0.478 OA
BRANCH  23  24
ATOM     24  C   UNL     1      35.828 -19.079 -21.488  0.00  0.00    +0.183 C 
BRANCH  24  25
ATOM     25  C   UNL     1      35.692 -18.773 -22.971  0.00  0.00    -0.029 C 
BRANCH  25  26
ATOM     26  N   UNL     1      34.991 -17.506 -23.174  0.00  0.00    +0.389 N 
ATOM     27  C   UNL     1      35.581 -16.451 -22.337  0.00  0.00    -0.077 C 
ATOM     28  C   UNL     1      35.008 -17.130 -24.594  0.00  0.00    -0.077 C 
ATOM     29  C   UNL     1      34.828 -15.131 -22.502  0.00  0.00    -0.023 C 
ATOM     30  C   UNL     1      34.235 -15.831 -24.831  0.00  0.00    -0.023 C 
ATOM     31  C   UNL     1      34.773 -14.700 -23.963  0.00  0.00    -0.004 C 
ATOM     32  H   UNL     1      34.017 -17.622 -22.892  0.00  0.00    -0.080 HD
ENDBRANCH  25  26
ENDBRANCH  24  25
ENDBRANCH  23  24
ENDBRANCH  17  23
ENDBRANCH   4  18
TORSDOF 6
ENDMDL
MODEL 5
REMARK VINA RESULT:     -11.2      2.193      3.583
REMARK  Name = 10430360
REMARK  6 active torsions:
REMARK  status: ('A' for Active; 'I' for Inactive)
REMARK    1  A    between atoms: C_4  and  C_18
REMARK    2  A    between atoms: C_7  and  C_14
REMARK    3  A    between atoms: C_17  and  O_23
REMARK    4  A    between atoms: O_23  and  C_24
REMARK    5  A    between atoms: C_24  and  C_25
REMARK    6  A    between atoms: C_25  and  N_26
REMARK                            x       y       z     vdW  Elec       q    Type
REMARK                         _______ _______ _______ _____ _____    ______ ____
ROOT
ATOM      1  N   UNL     1      37.681 -22.728 -16.009  0.00  0.00    -0.276 N 
ATOM      2  N   UNL     1      37.451 -22.080 -17.163  0.00  0.00    -0.173 NA
ATOM      3  C   UNL     1      35.497 -22.776 -16.197  0.00  0.00    +0.036 A 
ATOM      4  C   UNL     1      36.118 -22.109 -17.278  0.00  0.00    +0.102 A 
ATOM      5  C   UNL     1      36.549 -23.172 -15.380  0.00  0.00    +0.075 A 
ATOM      6  C   UNL     1      34.179 -23.087 -15.821  0.00  0.00    +0.006 C 
ATOM      7  C   UNL     1      33.972 -23.790 -14.628  0.00  0.00    +0.033 C 
ATOM      8  C   UNL     1      36.365 -23.873 -14.187  0.00  0.00    +0.019 C 
ATOM      9  C   UNL     1      35.048 -24.175 -13.826  0.00  0.00    +0.004 C 
ATOM     10  H   UNL     1      38.585 -22.872 -15.649  0.00  0.00    +0.189 HD
ENDROOT
BRANCH   7  14
ATOM     11  N   UNL     1      31.530 -23.750 -14.933  0.00  0.00    -0.218 N 
ATOM     12  N   UNL     1      32.262 -24.795 -13.160  0.00  0.00    -0.206 NA
ATOM     13  N   UNL     1      30.404 -24.181 -14.343  0.00  0.00    -0.157 NA
ATOM     14  C   UNL     1      32.626 -24.121 -14.223  0.00  0.00    +0.149 C 
ATOM     15  C   UNL     1      30.902 -24.806 -13.275  0.00  0.00    +0.218 C 
ATOM     16  H   UNL     1      31.556 -23.234 -15.772  0.00  0.00    +0.176 HD
ENDBRANCH   7  14
BRANCH   4  18
ATOM     17  C   UNL     1      35.589 -20.152 -20.400  0.00  0.00    +0.138 C 
ATOM     18  C   UNL     1      35.475 -21.501 -18.409  0.00  0.00    +0.022 C 
ATOM     19  C   UNL     1      36.219 -20.737 -19.308  0.00  0.00    +0.038 C 
ATOM     20  C   UNL     1      34.224 -20.321 -20.605  0.00  0.00    +0.037 C 
ATOM     21  C   UNL     1      34.106 -21.674 -18.608  0.00  0.00    +0.002 C 
ATOM     22  C   UNL     1      33.480 -21.085 -19.707  0.00  0.00    +0.003 C 
BRANCH  17  23
ATOM     23  O   UNL     1      36.320 -19.402 -21.284  0.00  0.00    -0.478 OA
BRANCH  23  24
ATOM     24  C   UNL     1      35.607 -18.802 -22.358  0.00  0.00    +0.183 C 
BRANCH  24  25
ATOM     25  C   UNL     1      36.000 -17.336 -22.446  0.00  0.00    -0.029 C 
BRANCH  25  26
ATOM     26  N   UNL     1      34.928 -16.551 -23.058  0.00  0.00    +0.389 N 
ATOM     27  C   UNL     1      35.217 -15.114 -22.950  0.00  0.00    -0.077 C 
ATOM     28  C   UNL     1      34.733 -16.951 -24.459  0.00  0.00    -0.077 C 
ATOM     29  C   UNL     1      34.082 -14.278 -23.543  0.00  0.00    -0.023 C 
ATOM     30  C   UNL     1      33.582 -16.174 -25.100  0.00  0.00    -0.023 C 
ATOM     31  C   UNL     1      33.799 -14.669 -24.989  0.00  0.00    -0.004 C 
ATOM     32  H   UNL     1      34.059 -16.736 -22.556  0.00  0.00    -0.080 HD
ENDBRANCH  25  26
ENDBRANCH  24  25
ENDBRANCH  23  24
ENDBRANCH  17  23
ENDBRANCH   4  18
TORSDOF 6
ENDMDL
MODEL 6
REMARK VINA RESULT:     -10.9      3.607      7.698
REMARK  Name = 10430360
REMARK  6 active torsions:
REMARK  status: ('A' for Active; 'I' for Inactive)
REMARK    1  A    between atoms: C_4  and  C_18
REMARK    2  A    between atoms: C_7  and  C_14
REMARK    3  A    between atoms: C_17  and  O_23
REMARK    4  A    between atoms: O_23  and  C_24
REMARK    5  A    between atoms: C_24  and  C_25
REMARK    6  A    between atoms: C_25  and  N_26
REMARK                            x       y       z     vdW  Elec       q    Type
REMARK                         _______ _______ _______ _____ _____    ______ ____
ROOT
ATOM      1  N   UNL     1      38.109 -18.658 -21.404  0.00  0.00    -0.276 N 
ATOM      2  N   UNL     1      37.483 -18.082 -22.444  0.00  0.00    -0.173 NA
ATOM      3  C   UNL     1      36.040 -19.359 -21.211  0.00  0.00    +0.036 A 
ATOM      4  C   UNL     1      36.220 -18.510 -22.327  0.00  0.00    +0.102 A 
ATOM      5  C   UNL     1      37.298 -19.438 -20.624  0.00  0.00    +0.075 A 
ATOM      6  C   UNL     1      34.968 -20.064 -20.636  0.00  0.00    +0.006 C 
ATOM      7  C   UNL     1      35.207 -20.825 -19.486  0.00  0.00    +0.033 C 
ATOM      8  C   UNL     1      37.558 -20.191 -19.477  0.00  0.00    +0.019 C 
ATOM      9  C   UNL     1      36.481 -20.886 -18.918  0.00  0.00    +0.004 C 
ATOM     10  H   UNL     1      39.066 -18.530 -21.219  0.00  0.00    +0.189 HD
ENDROOT
BRANCH   7  14
ATOM     11  N   UNL     1      32.838 -21.110 -18.882  0.00  0.00    -0.218 N 
ATOM     12  N   UNL     1      34.190 -22.710 -18.262  0.00  0.00    -0.206 NA
ATOM     13  N   UNL     1      32.025 -21.974 -18.255  0.00  0.00    -0.157 NA
ATOM     14  C   UNL     1      34.120 -21.557 -18.880  0.00  0.00    +0.149 C 
ATOM     15  C   UNL     1      32.891 -22.924 -17.898  0.00  0.00    +0.218 C 
ATOM     16  H   UNL     1      32.543 -20.264 -19.290  0.00  0.00    +0.176 HD
ENDBRANCH   7  14
BRANCH   4  18
ATOM     17  C   UNL     1      34.078 -16.353 -24.473  0.00  0.00    +0.138 C 
ATOM     18  C   UNL     1      35.224 -18.098 -23.275  0.00  0.00    +0.022 C 
ATOM     19  C   UNL     1      35.044 -16.743 -23.553  0.00  0.00    +0.038 C 
ATOM     20  C   UNL     1      33.289 -17.299 -25.118  0.00  0.00    +0.037 C 
ATOM     21  C   UNL     1      34.437 -19.053 -23.918  0.00  0.00    +0.002 C 
ATOM     22  C   UNL     1      33.469 -18.654 -24.839  0.00  0.00    +0.003 C 
BRANCH  17  23
ATOM     23  O   UNL     1      33.901 -15.022 -24.748  0.00  0.00    -0.478 OA
BRANCH  23  24
ATOM     24  C   UNL     1      34.561 -14.097 -23.893  0.00  0.00    +0.183 C 
BRANCH  24  25
ATOM     25  C   UNL     1      33.800 -12.781 -23.915  0.00  0.00    -0.029 C 
BRANCH  25  26
ATOM     26  N   UNL     1      32.896 -12.689 -22.768  0.00  0.00    +0.389 N 
ATOM     27  C   UNL     1      33.437 -13.438 -21.625  0.00  0.00    -0.077 C 
ATOM     28  C   UNL     1      32.654 -11.283 -22.417  0.00  0.00    -0.077 C 
ATOM     29  C   UNL     1      32.481 -13.391 -20.433  0.00  0.00    -0.023 C 
ATOM     30  C   UNL     1      31.672 -11.167 -21.250  0.00  0.00    -0.023 C 
ATOM     31  C   UNL     1      32.154 -11.956 -20.037  0.00  0.00    -0.004 C 
ATOM     32  H   UNL     1      32.001 -13.108 -23.023  0.00  0.00    -0.080 HD
ENDBRANCH  25  26
ENDBRANCH  24  25
ENDBRANCH  23  24
ENDBRANCH  17  23
ENDBRANCH   4  18
TORSDOF 6
ENDMDL
MODEL 7
REMARK VINA RESULT:     -10.8      7.608     12.527
REMARK  Name = 10430360
REMARK  6 active torsions:
REMARK  status: ('A' for Active; 'I' for Inactive)
REMARK    1  A    between atoms: C_4  and  C_18
REMARK    2  A    between atoms: C_7  and  C_14
REMARK    3  A    between atoms: C_17  and  O_23
REMARK    4  A    between atoms: O_23  and  C_24
REMARK    5  A    between atoms: C_24  and  C_25
REMARK    6  A    between atoms: C_25  and  N_26
REMARK                            x       y       z     vdW  Elec       q    Type
REMARK                         _______ _______ _______ _____ _____    ______ ____
ROOT
ATOM      1  N   UNL     1      32.295 -12.606 -20.096  0.00  0.00    -0.276 N 
ATOM      2  N   UNL     1      32.699 -13.172 -21.246  0.00  0.00    -0.173 NA
ATOM      3  C   UNL     1      32.474 -10.906 -21.470  0.00  0.00    +0.036 A 
ATOM      4  C   UNL     1      32.809 -12.135 -22.084  0.00  0.00    +0.102 A 
ATOM      5  C   UNL     1      32.141 -11.247 -20.164  0.00  0.00    +0.075 A 
ATOM      6  C   UNL     1      32.416  -9.559 -21.865  0.00  0.00    +0.006 C 
ATOM      7  C   UNL     1      32.021  -8.602 -20.922  0.00  0.00    +0.033 C 
ATOM      8  C   UNL     1      31.745 -10.309 -19.209  0.00  0.00    +0.019 C 
ATOM      9  C   UNL     1      31.691  -8.973 -19.618  0.00  0.00    +0.004 C 
ATOM     10  H   UNL     1      32.125 -13.124 -19.277  0.00  0.00    +0.189 HD
ENDROOT
BRANCH   7  14
ATOM     11  N   UNL     1      31.357  -6.792 -22.454  0.00  0.00    -0.218 N 
ATOM     12  N   UNL     1      32.430  -6.184 -20.650  0.00  0.00    -0.206 NA
ATOM     13  N   UNL     1      31.432  -5.458 -22.575  0.00  0.00    -0.157 NA
ATOM     14  C   UNL     1      31.953  -7.212 -21.307  0.00  0.00    +0.149 C 
ATOM     15  C   UNL     1      32.090  -5.138 -21.459  0.00  0.00    +0.218 C 
ATOM     16  H   UNL     1      30.926  -7.387 -23.109  0.00  0.00    +0.176 HD
ENDBRANCH   7  14
BRANCH   4  18
ATOM     17  C   UNL     1      33.566 -13.806 -25.323  0.00  0.00    +0.138 C 
ATOM     18  C   UNL     1      33.229 -12.342 -23.442  0.00  0.00    +0.022 C 
ATOM     19  C   UNL     1      33.158 -13.615 -24.008  0.00  0.00    +0.038 C 
ATOM     20  C   UNL     1      34.046 -12.742 -26.078  0.00  0.00    +0.037 C 
ATOM     21  C   UNL     1      33.709 -11.270 -24.193  0.00  0.00    +0.002 C 
ATOM     22  C   UNL     1      34.117 -11.469 -25.512  0.00  0.00    +0.003 C 
BRANCH  17  23
ATOM     23  O   UNL     1      33.495 -15.056 -25.880  0.00  0.00    -0.478 OA
BRANCH  23  24
ATOM     24  C   UNL     1      33.793 -16.156 -25.029  0.00  0.00    +0.183 C 
BRANCH  24  25
ATOM     25  C   UNL     1      35.295 -16.201 -24.798  0.00  0.00    -0.029 C 
BRANCH  25  26
ATOM     26  N   UNL     1      35.628 -17.181 -23.764  0.00  0.00    +0.389 N 
ATOM     27  C   UNL     1      35.471 -16.592 -22.427  0.00  0.00    -0.077 C 
ATOM     28  C   UNL     1      34.802 -18.387 -23.914  0.00  0.00    -0.077 C 
ATOM     29  C   UNL     1      35.862 -17.589 -21.335  0.00  0.00    -0.023 C 
ATOM     30  C   UNL     1      35.172 -19.443 -22.870  0.00  0.00    -0.023 C 
ATOM     31  C   UNL     1      35.067 -18.884 -21.455  0.00  0.00    -0.004 C 
ATOM     32  H   UNL     1      36.605 -17.454 -23.874  0.00  0.00    -0.080 HD
ENDBRANCH  25  26
ENDBRANCH  24  25
ENDBRANCH  23  24
ENDBRANCH  17  23
ENDBRANCH   4  18
TORSDOF 6
ENDMDL
MODEL 8
REMARK VINA RESULT:     -10.5      7.159     11.811
REMARK  Name = 10430360
REMARK  6 active torsions:
REMARK  status: ('A' for Active; 'I' for Inactive)
REMARK    1  A    between atoms: C_4  and  C_18
REMARK    2  A    between atoms: C_7  and  C_14
REMARK    3  A    between atoms: C_17  and  O_23
REMARK    4  A    between atoms: O_23  and  C_24
REMARK    5  A    between atoms: C_24  and  C_25
REMARK    6  A    between atoms: C_25  and  N_26
REMARK                            x       y       z     vdW  Elec       q    Type
REMARK                         _______ _______ _______ _____ _____    ______ ____
ROOT
ATOM      1  N   UNL     1      33.861 -14.261 -25.320  0.00  0.00    -0.276 N 
ATOM      2  N   UNL     1      33.288 -13.338 -24.528  0.00  0.00    -0.173 NA
ATOM      3  C   UNL     1      34.263 -15.000 -23.294  0.00  0.00    +0.036 A 
ATOM      4  C   UNL     1      33.533 -13.789 -23.293  0.00  0.00    +0.102 A 
ATOM      5  C   UNL     1      34.463 -15.286 -24.640  0.00  0.00    +0.075 A 
ATOM      6  C   UNL     1      34.771 -15.878 -22.322  0.00  0.00    +0.006 C 
ATOM      7  C   UNL     1      35.465 -17.017 -22.747  0.00  0.00    +0.033 C 
ATOM      8  C   UNL     1      35.152 -16.415 -25.085  0.00  0.00    +0.019 C 
ATOM      9  C   UNL     1      35.651 -17.280 -24.105  0.00  0.00    +0.004 C 
ATOM     10  H   UNL     1      33.847 -14.205 -26.302  0.00  0.00    +0.189 HD
ENDROOT
BRANCH   7  14
ATOM     11  N   UNL     1      35.206 -18.734 -21.002  0.00  0.00    -0.218 N 
ATOM     12  N   UNL     1      37.255 -18.130 -21.463  0.00  0.00    -0.206 NA
ATOM     13  N   UNL     1      35.944 -19.487 -20.171  0.00  0.00    -0.157 NA
ATOM     14  C   UNL     1      35.995 -17.934 -21.764  0.00  0.00    +0.149 C 
ATOM     15  C   UNL     1      37.175 -19.084 -20.489  0.00  0.00    +0.218 C 
ATOM     16  H   UNL     1      34.223 -18.761 -21.053  0.00  0.00    +0.176 HD
ENDBRANCH   7  14
BRANCH   4  18
ATOM     17  C   UNL     1      32.155 -11.047 -21.187  0.00  0.00    +0.138 C 
ATOM     18  C   UNL     1      33.070 -13.055 -22.149  0.00  0.00    +0.022 C 
ATOM     19  C   UNL     1      32.602 -11.750 -22.299  0.00  0.00    +0.038 C 
ATOM     20  C   UNL     1      32.170 -11.632 -19.925  0.00  0.00    +0.037 C 
ATOM     21  C   UNL     1      33.088 -13.648 -20.887  0.00  0.00    +0.002 C 
ATOM     22  C   UNL     1      32.638 -12.937 -19.775  0.00  0.00    +0.003 C 
BRANCH  17  23
ATOM     23  O   UNL     1      31.694  -9.765 -21.334  0.00  0.00    -0.478 OA
BRANCH  23  24
ATOM     24  C   UNL     1      32.027  -9.099 -22.546  0.00  0.00    +0.183 C 
BRANCH  24  25
ATOM     25  C   UNL     1      31.852  -7.602 -22.344  0.00  0.00    -0.029 C 
BRANCH  25  26
ATOM     26  N   UNL     1      33.063  -6.884 -22.740  0.00  0.00    +0.389 N 
ATOM     27  C   UNL     1      34.130  -7.830 -23.093  0.00  0.00    -0.077 C 
ATOM     28  C   UNL     1      32.776  -5.965 -23.851  0.00  0.00    -0.077 C 
ATOM     29  C   UNL     1      35.419  -7.094 -23.463  0.00  0.00    -0.023 C 
ATOM     30  C   UNL     1      34.021  -5.169 -24.244  0.00  0.00    -0.023 C 
ATOM     31  C   UNL     1      35.184  -6.093 -24.588  0.00  0.00    -0.004 C 
ATOM     32  H   UNL     1      33.386  -6.327 -21.948  0.00  0.00    -0.080 HD
ENDBRANCH  25  26
ENDBRANCH  24  25
ENDBRANCH  23  24
ENDBRANCH  17  23
ENDBRANCH   4  18
TORSDOF 6
ENDMDL
MODEL 9
REMARK VINA RESULT:     -10.5      9.973     15.881
REMARK  Name = 10430360
REMARK  6 active torsions:
REMARK  status: ('A' for Active; 'I' for Inactive)
REMARK    1  A    between atoms: C_4  and  C_18
REMARK    2  A    between atoms: C_7  and  C_14
REMARK    3  A    between atoms: C_17  and  O_23
REMARK    4  A    between atoms: O_23  and  C_24
REMARK    5  A    between atoms: C_24  and  C_25
REMARK    6  A    between atoms: C_25  and  N_26
REMARK                            x       y       z     vdW  Elec       q    Type
REMARK                         _______ _______ _______ _____ _____    ______ ____
ROOT
ATOM      1  N   UNL     1      32.067  -7.486 -20.485  0.00  0.00    -0.276 N 
ATOM      2  N   UNL     1      32.788  -8.449 -21.085  0.00  0.00    -0.173 NA
ATOM      3  C   UNL     1      32.558  -6.619 -22.439  0.00  0.00    +0.036 A 
ATOM      4  C   UNL     1      33.088  -7.920 -22.277  0.00  0.00    +0.102 A 
ATOM      5  C   UNL     1      31.893  -6.361 -21.246  0.00  0.00    +0.075 A 
ATOM      6  C   UNL     1      32.565  -5.640 -23.448  0.00  0.00    +0.006 C 
ATOM      7  C   UNL     1      31.897  -4.433 -23.212  0.00  0.00    +0.033 C 
ATOM      8  C   UNL     1      31.220  -5.164 -20.991  0.00  0.00    +0.019 C 
ATOM      9  C   UNL     1      31.236  -4.201 -22.005  0.00  0.00    +0.004 C 
ATOM     10  H   UNL     1      31.697  -7.583 -19.579  0.00  0.00    +0.189 HD
ENDROOT
BRANCH   7  14
ATOM     11  N   UNL     1      30.763  -2.764 -24.623  0.00  0.00    -0.218 N 
ATOM     12  N   UNL     1      32.917  -2.975 -24.922  0.00  0.00    -0.206 NA
ATOM     13  N   UNL     1      31.029  -1.869 -25.588  0.00  0.00    -0.157 NA
ATOM     14  C   UNL     1      31.891  -3.414 -24.236  0.00  0.00    +0.149 C 
ATOM     15  C   UNL     1      32.345  -2.036 -25.733  0.00  0.00    +0.218 C 
ATOM     16  H   UNL     1      29.868  -2.926 -24.246  0.00  0.00    +0.176 HD
ENDBRANCH   7  14
BRANCH   4  18
ATOM     17  C   UNL     1      34.218 -10.648 -24.542  0.00  0.00    +0.138 C 
ATOM     18  C   UNL     1      33.869  -8.664 -23.224  0.00  0.00    +0.022 C 
ATOM     19  C   UNL     1      33.456  -9.935 -23.624  0.00  0.00    +0.038 C 
ATOM     20  C   UNL     1      35.388 -10.108 -25.065  0.00  0.00    +0.037 C 
ATOM     21  C   UNL     1      35.041  -8.116 -23.744  0.00  0.00    +0.002 C 
ATOM     22  C   UNL     1      35.801  -8.838 -24.665  0.00  0.00    +0.003 C 
BRANCH  17  23
ATOM     23  O   UNL     1      33.812 -11.896 -24.937  0.00  0.00    -0.478 OA
BRANCH  23  24
ATOM     24  C   UNL     1      34.139 -12.979 -24.076  0.00  0.00    +0.183 C 
BRANCH  24  25
ATOM     25  C   UNL     1      33.870 -14.284 -24.808  0.00  0.00    -0.029 C 
BRANCH  25  26
ATOM     26  N   UNL     1      34.186 -15.429 -23.954  0.00  0.00    +0.389 N 
ATOM     27  C   UNL     1      34.877 -16.471 -24.726  0.00  0.00    -0.077 C 
ATOM     28  C   UNL     1      34.987 -15.004 -22.798  0.00  0.00    -0.077 C 
ATOM     29  C   UNL     1      35.171 -17.696 -23.859  0.00  0.00    -0.023 C 
ATOM     30  C   UNL     1      35.284 -16.181 -21.869  0.00  0.00    -0.023 C 
ATOM     31  C   UNL     1      35.970 -17.319 -22.617  0.00  0.00    -0.004 C 
ATOM     32  H   UNL     1      33.313 -15.825 -23.603  0.00  0.00    -0.080 HD
ENDBRANCH  25  26
ENDBRANCH  24  25
ENDBRANCH  23  24
ENDBRANCH  17  23
ENDBRANCH   4  18
TORSDOF 6
ENDMDL
