MODEL 1
REMARK VINA RESULT:     -12.2      0.000      0.000
REMARK  Name = 11974440
REMARK  4 active torsions:
REMARK  status: ('A' for Active; 'I' for Inactive)
REMARK    1  A    between atoms: C_1  and  C_25
REMARK    2  A    between atoms: C_2  and  N_31
REMARK    3  A    between atoms: C_5  and  C_12
REMARK    4  A    between atoms: C_17  and  C_21
REMARK                            x       y       z     vdW  Elec       q    Type
REMARK                         _______ _______ _______ _____ _____    ______ ____
ROOT
ATOM      1  C   UNL     1      35.346 -19.747 -21.370  0.00  0.00    +0.009 C 
ATOM      2  C   UNL     1      34.116 -19.813 -20.429  0.00  0.00    -0.057 C 
ATOM      3  C   UNL     1      34.233 -21.016 -19.471  0.00  0.00    +0.009 C 
ATOM      4  C   UNL     1      36.652 -19.632 -20.548  0.00  0.00    +0.028 C 
ATOM      5  C   UNL     1      35.601 -21.152 -18.873  0.00  0.00    +0.025 C 
ATOM      6  C   UNL     1      36.688 -20.526 -19.343  0.00  0.00    -0.026 C 
ENDROOT
BRANCH   5  12
ATOM      7  O   UNL     1      36.838 -21.954 -17.078  0.00  0.00    -0.270 OA
ATOM      8  N   UNL     1      34.695 -22.823 -17.320  0.00  0.00    -0.267 N 
ATOM      9  N   UNL     1      32.383 -23.194 -15.866  0.00  0.00    -0.292 N 
ATOM     10  N   UNL     1      33.326 -24.151 -14.148  0.00  0.00    -0.132 NA
ATOM     11  N   UNL     1      31.985 -23.952 -13.868  0.00  0.00    -0.125 NA
ATOM     12  C   UNL     1      35.766 -22.012 -17.684  0.00  0.00    +0.245 C 
ATOM     13  C   UNL     1      33.428 -22.974 -18.063  0.00  0.00    +0.119 C 
ATOM     14  C   UNL     1      34.823 -23.682 -16.133  0.00  0.00    +0.160 C 
ATOM     15  C   UNL     1      32.254 -22.578 -17.169  0.00  0.00    +0.130 C 
ATOM     16  C   UNL     1      33.554 -23.686 -15.358  0.00  0.00    +0.164 A 
ATOM     17  C   UNL     1      31.437 -23.374 -14.914  0.00  0.00    +0.238 A 
BRANCH  17  21
ATOM     18  F   UNL     1      29.681 -21.858 -14.331  0.00  0.00    -0.163 F 
ATOM     19  F   UNL     1      29.673 -22.642 -16.353  0.00  0.00    -0.163 F 
ATOM     20  F   UNL     1      29.137 -23.933 -14.688  0.00  0.00    -0.163 F 
ATOM     21  C   UNL     1      30.031 -22.963 -15.067  0.00  0.00    +0.452 C 
ENDBRANCH  17  21
ENDBRANCH   5  12
BRANCH   1  25
ATOM     22  F   UNL     1      35.051 -20.219 -24.152  0.00  0.00    -0.204 F 
ATOM     23  F   UNL     1      35.383 -15.003 -22.543  0.00  0.00    -0.202 F 
ATOM     24  F   UNL     1      35.096 -15.604 -25.194  0.00  0.00    -0.202 F 
ATOM     25  C   UNL     1      35.277 -18.632 -22.403  0.00  0.00    +0.006 C 
ATOM     26  C   UNL     1      35.131 -18.943 -23.751  0.00  0.00    +0.138 C 
ATOM     27  C   UNL     1      35.363 -17.306 -21.990  0.00  0.00    +0.030 C 
ATOM     28  C   UNL     1      35.301 -16.282 -22.934  0.00  0.00    +0.167 C 
ATOM     29  C   UNL     1      35.068 -17.920 -24.695  0.00  0.00    +0.061 C 
ATOM     30  C   UNL     1      35.153 -16.588 -24.287  0.00  0.00    +0.170 C 
ENDBRANCH   1  25
BRANCH   2  31
ATOM     31  N   UNL     1      32.866 -19.919 -21.187  0.00  0.00    +0.382 N 
ATOM     32  H   UNL     1      32.354 -19.038 -21.122  0.00  0.00    -0.089 HD
ATOM     33  H   UNL     1      32.297 -20.671 -20.802  0.00  0.00    -0.089 HD
ATOM     34  H   UNL     1      33.077 -20.116 -22.165  0.00  0.00    -0.089 HD
ENDBRANCH   2  31
TORSDOF 4
ENDMDL
MODEL 2
REMARK VINA RESULT:     -11.9      3.945      4.844
REMARK  Name = 11974440
REMARK  4 active torsions:
REMARK  status: ('A' for Active; 'I' for Inactive)
REMARK    1  A    between atoms: C_1  and  C_25
REMARK    2  A    between atoms: C_2  and  N_31
REMARK    3  A    between atoms: C_5  and  C_12
REMARK    4  A    between atoms: C_17  and  C_21
REMARK                            x       y       z     vdW  Elec       q    Type
REMARK                         _______ _______ _______ _____ _____    ______ ____
ROOT
ATOM      1  C   UNL     1      34.750 -19.786 -20.330  0.00  0.00    +0.009 C 
ATOM      2  C   UNL     1      35.748 -20.962 -20.177  0.00  0.00    -0.057 C 
ATOM      3  C   UNL     1      35.558 -21.659 -18.814  0.00  0.00    +0.009 C 
ATOM      4  C   UNL     1      33.293 -20.291 -20.202  0.00  0.00    +0.028 C 
ATOM      5  C   UNL     1      34.117 -21.894 -18.478  0.00  0.00    +0.025 C 
ATOM      6  C   UNL     1      33.095 -21.293 -19.102  0.00  0.00    -0.026 C 
ENDROOT
BRANCH   5  12
ATOM      7  O   UNL     1      32.771 -23.534 -17.531  0.00  0.00    -0.270 OA
ATOM      8  N   UNL     1      34.672 -22.943 -16.329  0.00  0.00    -0.267 N 
ATOM      9  N   UNL     1      36.877 -24.102 -15.150  0.00  0.00    -0.292 N 
ATOM     10  N   UNL     1      35.784 -25.610 -14.015  0.00  0.00    -0.132 NA
ATOM     11  N   UNL     1      37.141 -25.833 -13.862  0.00  0.00    -0.125 NA
ATOM     12  C   UNL     1      33.793 -22.857 -17.406  0.00  0.00    +0.245 C 
ATOM     13  C   UNL     1      35.862 -22.098 -16.109  0.00  0.00    +0.119 C 
ATOM     14  C   UNL     1      34.384 -23.902 -15.251  0.00  0.00    +0.160 C 
ATOM     15  C   UNL     1      37.110 -22.974 -16.026  0.00  0.00    +0.130 C 
ATOM     16  C   UNL     1      35.637 -24.562 -14.798  0.00  0.00    +0.164 A 
ATOM     17  C   UNL     1      37.780 -24.916 -14.553  0.00  0.00    +0.238 A 
BRANCH  17  21
ATOM     18  F   UNL     1      39.853 -25.792 -15.365  0.00  0.00    -0.163 F 
ATOM     19  F   UNL     1      39.627 -23.635 -15.372  0.00  0.00    -0.163 F 
ATOM     20  F   UNL     1      39.896 -24.691 -13.491  0.00  0.00    -0.163 F 
ATOM     21  C   UNL     1      39.239 -24.764 -14.693  0.00  0.00    +0.452 C 
ENDBRANCH  17  21
ENDBRANCH   5  12
BRANCH   1  25
ATOM     22  F   UNL     1      36.449 -17.525 -20.551  0.00  0.00    -0.204 F 
ATOM     23  F   UNL     1      33.691 -19.004 -25.036  0.00  0.00    -0.202 F 
ATOM     24  F   UNL     1      35.366 -16.845 -25.106  0.00  0.00    -0.202 F 
ATOM     25  C   UNL     1      34.918 -18.992 -21.616  0.00  0.00    +0.006 C 
ATOM     26  C   UNL     1      35.772 -17.894 -21.647  0.00  0.00    +0.138 C 
ATOM     27  C   UNL     1      34.214 -19.371 -22.755  0.00  0.00    +0.030 C 
ATOM     28  C   UNL     1      34.367 -18.645 -23.936  0.00  0.00    +0.167 C 
ATOM     29  C   UNL     1      35.924 -17.168 -22.827  0.00  0.00    +0.061 C 
ATOM     30  C   UNL     1      35.221 -17.544 -23.972  0.00  0.00    +0.170 C 
ENDBRANCH   1  25
BRANCH   2  31
ATOM     31  N   UNL     1      37.136 -20.507 -20.299  0.00  0.00    +0.382 N 
ATOM     32  H   UNL     1      37.148 -19.522 -20.564  0.00  0.00    -0.089 HD
ATOM     33  H   UNL     1      37.613 -21.057 -21.012  0.00  0.00    -0.089 HD
ATOM     34  H   UNL     1      37.612 -20.623 -19.404  0.00  0.00    -0.089 HD
ENDBRANCH   2  31
TORSDOF 4
ENDMDL
MODEL 3
REMARK VINA RESULT:     -11.7      1.030      1.624
REMARK  Name = 11974440
REMARK  4 active torsions:
REMARK  status: ('A' for Active; 'I' for Inactive)
REMARK    1  A    between atoms: C_1  and  C_25
REMARK    2  A    between atoms: C_2  and  N_31
REMARK    3  A    between atoms: C_5  and  C_12
REMARK    4  A    between atoms: C_17  and  C_21
REMARK                            x       y       z     vdW  Elec       q    Type
REMARK                         _______ _______ _______ _____ _____    ______ ____
ROOT
ATOM      1  C   UNL     1      35.213 -20.176 -20.937  0.00  0.00    +0.009 C 
ATOM      2  C   UNL     1      34.038 -20.179 -19.924  0.00  0.00    -0.057 C 
ATOM      3  C   UNL     1      34.202 -21.330 -18.910  0.00  0.00    +0.009 C 
ATOM      4  C   UNL     1      36.565 -20.032 -20.199  0.00  0.00    +0.028 C 
ATOM      5  C   UNL     1      35.601 -21.448 -18.386  0.00  0.00    +0.025 C 
ATOM      6  C   UNL     1      36.664 -20.860 -18.952  0.00  0.00    -0.026 C 
ENDROOT
BRANCH   5  12
ATOM      7  O   UNL     1      36.885 -22.070 -16.553  0.00  0.00    -0.270 OA
ATOM      8  N   UNL     1      34.829 -23.132 -16.777  0.00  0.00    -0.267 N 
ATOM      9  N   UNL     1      32.544 -23.650 -15.326  0.00  0.00    -0.292 N 
ATOM     10  N   UNL     1      33.548 -24.456 -13.566  0.00  0.00    -0.132 NA
ATOM     11  N   UNL     1      32.192 -24.365 -13.303  0.00  0.00    -0.125 NA
ATOM     12  C   UNL     1      35.829 -22.245 -17.164  0.00  0.00    +0.245 C 
ATOM     13  C   UNL     1      33.588 -23.422 -17.522  0.00  0.00    +0.119 C 
ATOM     14  C   UNL     1      35.020 -23.932 -15.556  0.00  0.00    +0.160 C 
ATOM     15  C   UNL     1      32.375 -23.098 -16.653  0.00  0.00    +0.130 C 
ATOM     16  C   UNL     1      33.748 -24.018 -14.791  0.00  0.00    +0.164 A 
ATOM     17  C   UNL     1      31.607 -23.877 -14.375  0.00  0.00    +0.238 A 
BRANCH  17  21
ATOM     18  F   UNL     1      29.821 -22.286 -14.351  0.00  0.00    -0.163 F 
ATOM     19  F   UNL     1      29.692 -23.888 -15.807  0.00  0.00    -0.163 F 
ATOM     20  F   UNL     1      29.368 -24.310 -13.699  0.00  0.00    -0.163 F 
ATOM     21  C   UNL     1      30.172 -23.598 -14.553  0.00  0.00    +0.452 C 
ENDBRANCH  17  21
ENDBRANCH   5  12
BRANCH   1  25
ATOM     22  F   UNL     1      36.386 -17.600 -20.736  0.00  0.00    -0.204 F 
ATOM     23  F   UNL     1      33.573 -18.698 -25.296  0.00  0.00    -0.202 F 
ATOM     24  F   UNL     1      34.756 -16.255 -24.970  0.00  0.00    -0.202 F 
ATOM     25  C   UNL     1      35.092 -19.118 -22.023  0.00  0.00    +0.006 C 
ATOM     26  C   UNL     1      35.697 -17.877 -21.852  0.00  0.00    +0.138 C 
ATOM     27  C   UNL     1      34.375 -19.401 -23.182  0.00  0.00    +0.030 C 
ATOM     28  C   UNL     1      34.262 -18.432 -24.179  0.00  0.00    +0.167 C 
ATOM     29  C   UNL     1      35.584 -16.909 -22.849  0.00  0.00    +0.061 C 
ATOM     30  C   UNL     1      34.867 -17.187 -24.013  0.00  0.00    +0.170 C 
ENDBRANCH   1  25
BRANCH   2  31
ATOM     31  N   UNL     1      32.746 -20.311 -20.602  0.00  0.00    +0.382 N 
ATOM     32  H   UNL     1      32.840 -20.011 -21.573  0.00  0.00    -0.089 HD
ATOM     33  H   UNL     1      32.054 -19.728 -20.132  0.00  0.00    -0.089 HD
ATOM     34  H   UNL     1      32.446 -21.285 -20.575  0.00  0.00    -0.089 HD
ENDBRANCH   2  31
TORSDOF 4
ENDMDL
MODEL 4
REMARK VINA RESULT:     -11.5      1.198      2.118
REMARK  Name = 11974440
REMARK  4 active torsions:
REMARK  status: ('A' for Active; 'I' for Inactive)
REMARK    1  A    between atoms: C_1  and  C_25
REMARK    2  A    between atoms: C_2  and  N_31
REMARK    3  A    between atoms: C_5  and  C_12
REMARK    4  A    between atoms: C_17  and  C_21
REMARK                            x       y       z     vdW  Elec       q    Type
REMARK                         _______ _______ _______ _____ _____    ______ ____
ROOT
ATOM      1  C   UNL     1      35.333 -19.384 -20.479  0.00  0.00    +0.009 C 
ATOM      2  C   UNL     1      36.674 -20.126 -20.243  0.00  0.00    -0.057 C 
ATOM      3  C   UNL     1      36.715 -20.728 -18.823  0.00  0.00    +0.009 C 
ATOM      4  C   UNL     1      34.139 -20.348 -20.288  0.00  0.00    +0.028 C 
ATOM      5  C   UNL     1      35.438 -21.417 -18.447  0.00  0.00    +0.025 C 
ATOM      6  C   UNL     1      34.282 -21.260 -19.105  0.00  0.00    -0.026 C 
ENDROOT
BRANCH   5  12
ATOM      7  O   UNL     1      36.488 -22.417 -16.632  0.00  0.00    -0.270 OA
ATOM      8  N   UNL     1      34.285 -23.049 -17.022  0.00  0.00    -0.267 N 
ATOM      9  N   UNL     1      31.871 -23.240 -15.705  0.00  0.00    -0.292 N 
ATOM     10  N   UNL     1      32.617 -24.360 -13.989  0.00  0.00    -0.132 NA
ATOM     11  N   UNL     1      31.290 -24.035 -13.767  0.00  0.00    -0.125 NA
ATOM     12  C   UNL     1      35.450 -22.338 -17.293  0.00  0.00    +0.245 C 
ATOM     13  C   UNL     1      33.051 -23.037 -17.834  0.00  0.00    +0.119 C 
ATOM     14  C   UNL     1      34.261 -23.966 -15.871  0.00  0.00    +0.160 C 
ATOM     15  C   UNL     1      31.876 -22.560 -16.983  0.00  0.00    +0.130 C 
ATOM     16  C   UNL     1      32.957 -23.871 -15.163  0.00  0.00    +0.164 A 
ATOM     17  C   UNL     1      30.861 -23.361 -14.811  0.00  0.00    +0.238 A 
BRANCH  17  21
ATOM     18  F   UNL     1      29.230 -21.709 -14.233  0.00  0.00    -0.163 F 
ATOM     19  F   UNL     1      29.268 -22.374 -16.297  0.00  0.00    -0.163 F 
ATOM     20  F   UNL     1      28.507 -23.694 -14.746  0.00  0.00    -0.163 F 
ATOM     21  C   UNL     1      29.514 -22.801 -15.015  0.00  0.00    +0.452 C 
ENDBRANCH  17  21
ENDBRANCH   5  12
BRANCH   1  25
ATOM     22  F   UNL     1      35.543 -16.573 -20.807  0.00  0.00    -0.204 F 
ATOM     23  F   UNL     1      34.752 -19.545 -25.328  0.00  0.00    -0.202 F 
ATOM     24  F   UNL     1      34.973 -16.826 -25.497  0.00  0.00    -0.202 F 
ATOM     25  C   UNL     1      35.238 -18.692 -21.831  0.00  0.00    +0.006 C 
ATOM     26  C   UNL     1      35.351 -17.308 -21.911  0.00  0.00    +0.138 C 
ATOM     27  C   UNL     1      35.036 -19.452 -22.979  0.00  0.00    +0.030 C 
ATOM     28  C   UNL     1      34.947 -18.820 -24.219  0.00  0.00    +0.167 C 
ATOM     29  C   UNL     1      35.262 -16.676 -23.151  0.00  0.00    +0.061 C 
ATOM     30  C   UNL     1      35.061 -17.433 -24.306  0.00  0.00    +0.170 C 
ENDBRANCH   1  25
BRANCH   2  31
ATOM     31  N   UNL     1      37.821 -19.232 -20.423  0.00  0.00    +0.382 N 
ATOM     32  H   UNL     1      38.577 -19.738 -20.886  0.00  0.00    -0.089 HD
ATOM     33  H   UNL     1      38.141 -18.902 -19.513  0.00  0.00    -0.089 HD
ATOM     34  H   UNL     1      37.545 -18.436 -20.997  0.00  0.00    -0.089 HD
ENDBRANCH   2  31
TORSDOF 4
ENDMDL
MODEL 5
REMARK VINA RESULT:     -11.4      4.612      5.496
REMARK  Name = 11974440
REMARK  4 active torsions:
REMARK  status: ('A' for Active; 'I' for Inactive)
REMARK    1  A    between atoms: C_1  and  C_25
REMARK    2  A    between atoms: C_2  and  N_31
REMARK    3  A    between atoms: C_5  and  C_12
REMARK    4  A    between atoms: C_17  and  C_21
REMARK                            x       y       z     vdW  Elec       q    Type
REMARK                         _______ _______ _______ _____ _____    ______ ____
ROOT
ATOM      1  C   UNL     1      35.212 -21.075 -19.832  0.00  0.00    +0.009 C 
ATOM      2  C   UNL     1      33.828 -20.981 -19.137  0.00  0.00    -0.057 C 
ATOM      3  C   UNL     1      33.641 -22.147 -18.145  0.00  0.00    +0.009 C 
ATOM      4  C   UNL     1      36.348 -21.053 -18.782  0.00  0.00    +0.028 C 
ATOM      5  C   UNL     1      34.854 -22.389 -17.298  0.00  0.00    +0.025 C 
ATOM      6  C   UNL     1      36.068 -21.894 -17.571  0.00  0.00    -0.026 C 
ENDROOT
BRANCH   5  12
ATOM      7  O   UNL     1      33.619 -23.754 -15.881  0.00  0.00    -0.270 OA
ATOM      8  N   UNL     1      35.811 -23.321 -15.239  0.00  0.00    -0.267 N 
ATOM      9  N   UNL     1      38.103 -24.658 -14.494  0.00  0.00    -0.292 N 
ATOM     10  N   UNL     1      37.172 -25.910 -12.970  0.00  0.00    -0.132 NA
ATOM     11  N   UNL     1      38.493 -26.296 -13.119  0.00  0.00    -0.125 NA
ATOM     12  C   UNL     1      34.706 -23.209 -16.079  0.00  0.00    +0.245 C 
ATOM     13  C   UNL     1      37.102 -22.624 -15.403  0.00  0.00    +0.119 C 
ATOM     14  C   UNL     1      35.700 -24.141 -14.022  0.00  0.00    +0.160 C 
ATOM     15  C   UNL     1      38.230 -23.647 -15.521  0.00  0.00    +0.130 C 
ATOM     16  C   UNL     1      36.948 -24.920 -13.809  0.00  0.00    +0.164 A 
ATOM     17  C   UNL     1      39.034 -25.531 -14.041  0.00  0.00    +0.238 A 
BRANCH  17  21
ATOM     18  F   UNL     1      41.101 -24.396 -14.444  0.00  0.00    -0.163 F 
ATOM     19  F   UNL     1      41.220 -26.488 -13.885  0.00  0.00    -0.163 F 
ATOM     20  F   UNL     1      40.508 -25.933 -15.863  0.00  0.00    -0.163 F 
ATOM     21  C   UNL     1      40.419 -25.584 -14.539  0.00  0.00    +0.452 C 
ENDBRANCH  17  21
ENDBRANCH   5  12
BRANCH   1  25
ATOM     22  F   UNL     1      37.514 -19.416 -19.870  0.00  0.00    -0.204 F 
ATOM     23  F   UNL     1      33.821 -18.630 -23.827  0.00  0.00    -0.202 F 
ATOM     24  F   UNL     1      36.087 -17.103 -23.744  0.00  0.00    -0.202 F 
ATOM     25  C   UNL     1      35.451 -20.004 -20.886  0.00  0.00    +0.006 C 
ATOM     26  C   UNL     1      36.605 -19.230 -20.838  0.00  0.00    +0.138 C 
ATOM     27  C   UNL     1      34.508 -19.807 -21.890  0.00  0.00    +0.030 C 
ATOM     28  C   UNL     1      34.724 -18.826 -22.858  0.00  0.00    +0.167 C 
ATOM     29  C   UNL     1      36.821 -18.249 -21.806  0.00  0.00    +0.061 C 
ATOM     30  C   UNL     1      35.881 -18.047 -22.816  0.00  0.00    +0.170 C 
ENDBRANCH   1  25
BRANCH   2  31
ATOM     31  N   UNL     1      32.736 -20.996 -20.114  0.00  0.00    +0.382 N 
ATOM     32  H   UNL     1      33.006 -20.452 -20.934  0.00  0.00    -0.089 HD
ATOM     33  H   UNL     1      31.901 -20.588 -19.696  0.00  0.00    -0.089 HD
ATOM     34  H   UNL     1      32.543 -21.957 -20.393  0.00  0.00    -0.089 HD
ENDBRANCH   2  31
TORSDOF 4
ENDMDL
MODEL 6
REMARK VINA RESULT:     -11.1      9.677     14.970
REMARK  Name = 11974440
REMARK  4 active torsions:
REMARK  status: ('A' for Active; 'I' for Inactive)
REMARK    1  A    between atoms: C_1  and  C_25
REMARK    2  A    between atoms: C_2  and  N_31
REMARK    3  A    between atoms: C_5  and  C_12
REMARK    4  A    between atoms: C_17  and  C_21
REMARK                            x       y       z     vdW  Elec       q    Type
REMARK                         _______ _______ _______ _____ _____    ______ ____
ROOT
ATOM      1  C   UNL     1      33.134 -11.975 -23.259  0.00  0.00    +0.009 C 
ATOM      2  C   UNL     1      34.166 -10.817 -23.258  0.00  0.00    -0.057 C 
ATOM      3  C   UNL     1      33.455  -9.460 -23.072  0.00  0.00    +0.009 C 
ATOM      4  C   UNL     1      32.330 -11.985 -21.937  0.00  0.00    +0.028 C 
ATOM      5  C   UNL     1      32.414  -9.493 -21.995  0.00  0.00    +0.025 C 
ATOM      6  C   UNL     1      31.912 -10.620 -21.473  0.00  0.00    -0.026 C 
ENDROOT
BRANCH   5  12
ATOM      7  O   UNL     1      31.821  -8.097 -20.235  0.00  0.00    -0.270 OA
ATOM      8  N   UNL     1      31.600  -7.209 -22.372  0.00  0.00    -0.267 N 
ATOM      9  N   UNL     1      32.361  -5.003 -23.838  0.00  0.00    -0.292 N 
ATOM     10  N   UNL     1      31.693  -3.508 -22.396  0.00  0.00    -0.132 NA
ATOM     11  N   UNL     1      32.354  -2.867 -23.430  0.00  0.00    -0.125 NA
ATOM     12  C   UNL     1      31.917  -8.210 -21.458  0.00  0.00    +0.245 C 
ATOM     13  C   UNL     1      31.629  -7.332 -23.843  0.00  0.00    +0.119 C 
ATOM     14  C   UNL     1      31.113  -5.914 -21.869  0.00  0.00    +0.160 C 
ATOM     15  C   UNL     1      32.592  -6.303 -24.429  0.00  0.00    +0.130 C 
ATOM     16  C   UNL     1      31.707  -4.799 -22.653  0.00  0.00    +0.164 A 
ATOM     17  C   UNL     1      32.748  -3.784 -24.285  0.00  0.00    +0.238 A 
BRANCH  17  21
ATOM     18  F   UNL     1      34.716  -4.202 -25.579  0.00  0.00    -0.163 F 
ATOM     19  F   UNL     1      32.849  -4.003 -26.664  0.00  0.00    -0.163 F 
ATOM     20  F   UNL     1      33.782  -2.250 -25.779  0.00  0.00    -0.163 F 
ATOM     21  C   UNL     1      33.498  -3.570 -25.534  0.00  0.00    +0.452 C 
ENDBRANCH  17  21
ENDBRANCH   5  12
BRANCH   1  25
ATOM     22  F   UNL     1      33.034 -13.275 -25.778  0.00  0.00    -0.204 F 
ATOM     23  F   UNL     1      35.556 -15.928 -21.715  0.00  0.00    -0.202 F 
ATOM     24  F   UNL     1      35.386 -17.064 -24.196  0.00  0.00    -0.202 F 
ATOM     25  C   UNL     1      33.741 -13.346 -23.514  0.00  0.00    +0.006 C 
ATOM     26  C   UNL     1      33.652 -13.919 -24.779  0.00  0.00    +0.138 C 
ATOM     27  C   UNL     1      34.381 -14.018 -22.478  0.00  0.00    +0.030 C 
ATOM     28  C   UNL     1      34.938 -15.275 -22.709  0.00  0.00    +0.167 C 
ATOM     29  C   UNL     1      34.209 -15.176 -25.010  0.00  0.00    +0.061 C 
ATOM     30  C   UNL     1      34.853 -15.854 -23.974  0.00  0.00    +0.170 C 
ENDBRANCH   1  25
BRANCH   2  31
ATOM     31  N   UNL     1      34.942 -10.790 -24.501  0.00  0.00    +0.382 N 
ATOM     32  H   UNL     1      34.511 -11.413 -25.184  0.00  0.00    -0.089 HD
ATOM     33  H   UNL     1      35.895 -11.100 -24.313  0.00  0.00    -0.089 HD
ATOM     34  H   UNL     1      34.959  -9.839 -24.871  0.00  0.00    -0.089 HD
ENDBRANCH   2  31
TORSDOF 4
ENDMDL
MODEL 7
REMARK VINA RESULT:     -11.1      3.522      9.433
REMARK  Name = 11974440
REMARK  4 active torsions:
REMARK  status: ('A' for Active; 'I' for Inactive)
REMARK    1  A    between atoms: C_1  and  C_25
REMARK    2  A    between atoms: C_2  and  N_31
REMARK    3  A    between atoms: C_5  and  C_12
REMARK    4  A    between atoms: C_17  and  C_21
REMARK                            x       y       z     vdW  Elec       q    Type
REMARK                         _______ _______ _______ _____ _____    ______ ____
ROOT
ATOM      1  C   UNL     1      35.210 -20.750 -19.042  0.00  0.00    +0.009 C 
ATOM      2  C   UNL     1      33.932 -20.962 -19.895  0.00  0.00    -0.057 C 
ATOM      3  C   UNL     1      33.855 -19.911 -21.022  0.00  0.00    +0.009 C 
ATOM      4  C   UNL     1      36.475 -20.842 -19.927  0.00  0.00    +0.028 C 
ATOM      5  C   UNL     1      35.164 -19.717 -21.726  0.00  0.00    +0.025 C 
ATOM      6  C   UNL     1      36.341 -20.141 -21.247  0.00  0.00    -0.026 C 
ENDROOT
BRANCH   5  12
ATOM      7  O   UNL     1      34.946 -19.713 -24.038  0.00  0.00    -0.270 OA
ATOM      8  N   UNL     1      35.399 -17.660 -23.045  0.00  0.00    -0.267 N 
ATOM      9  N   UNL     1      34.425 -15.083 -22.970  0.00  0.00    -0.292 N 
ATOM     10  N   UNL     1      34.323 -14.797 -25.130  0.00  0.00    -0.132 NA
ATOM     11  N   UNL     1      33.766 -13.694 -24.507  0.00  0.00    -0.125 NA
ATOM     12  C   UNL     1      35.164 -19.032 -23.034  0.00  0.00    +0.245 C 
ATOM     13  C   UNL     1      35.737 -16.827 -21.874  0.00  0.00    +0.119 C 
ATOM     14  C   UNL     1      35.392 -16.947 -24.332  0.00  0.00    +0.160 C 
ATOM     15  C   UNL     1      34.692 -15.727 -21.702  0.00  0.00    +0.130 C 
ATOM     16  C   UNL     1      34.715 -15.631 -24.190  0.00  0.00    +0.164 A 
ATOM     17  C   UNL     1      33.837 -13.887 -23.208  0.00  0.00    +0.238 A 
BRANCH  17  21
ATOM     18  F   UNL     1      33.173 -11.684 -22.554  0.00  0.00    -0.163 F 
ATOM     19  F   UNL     1      32.155 -13.343 -21.598  0.00  0.00    -0.163 F 
ATOM     20  F   UNL     1      34.218 -12.895 -21.081  0.00  0.00    -0.163 F 
ATOM     21  C   UNL     1      33.360 -12.982 -22.148  0.00  0.00    +0.452 C 
ENDBRANCH  17  21
ENDBRANCH   5  12
BRANCH   1  25
ATOM     22  F   UNL     1      37.561 -20.995 -17.473  0.00  0.00    -0.204 F 
ATOM     23  F   UNL     1      33.310 -24.140 -16.078  0.00  0.00    -0.202 F 
ATOM     24  F   UNL     1      35.639 -24.272 -14.653  0.00  0.00    -0.202 F 
ATOM     25  C   UNL     1      35.328 -21.698 -17.857  0.00  0.00    +0.006 C 
ATOM     26  C   UNL     1      36.515 -21.761 -17.136  0.00  0.00    +0.138 C 
ATOM     27  C   UNL     1      34.244 -22.497 -17.506  0.00  0.00    +0.030 C 
ATOM     28  C   UNL     1      34.350 -23.367 -16.421  0.00  0.00    +0.167 C 
ATOM     29  C   UNL     1      36.621 -22.631 -16.051  0.00  0.00    +0.061 C 
ATOM     30  C   UNL     1      35.537 -23.434 -15.694  0.00  0.00    +0.170 C 
ENDBRANCH   1  25
BRANCH   2  31
ATOM     31  N   UNL     1      32.720 -20.882 -19.075  0.00  0.00    +0.382 N 
ATOM     32  H   UNL     1      31.899 -20.898 -19.681  0.00  0.00    -0.089 HD
ATOM     33  H   UNL     1      32.730 -20.017 -18.538  0.00  0.00    -0.089 HD
ATOM     34  H   UNL     1      32.687 -21.679 -18.439  0.00  0.00    -0.089 HD
ENDBRANCH   2  31
TORSDOF 4
ENDMDL
MODEL 8
REMARK VINA RESULT:     -11.0      3.832      4.578
REMARK  Name = 11974440
REMARK  4 active torsions:
REMARK  status: ('A' for Active; 'I' for Inactive)
REMARK    1  A    between atoms: C_1  and  C_25
REMARK    2  A    between atoms: C_2  and  N_31
REMARK    3  A    between atoms: C_5  and  C_12
REMARK    4  A    between atoms: C_17  and  C_21
REMARK                            x       y       z     vdW  Elec       q    Type
REMARK                         _______ _______ _______ _____ _____    ______ ____
ROOT
ATOM      1  C   UNL     1      34.824 -19.465 -20.366  0.00  0.00    +0.009 C 
ATOM      2  C   UNL     1      35.914 -20.545 -20.138  0.00  0.00    -0.057 C 
ATOM      3  C   UNL     1      35.647 -21.313 -18.828  0.00  0.00    +0.009 C 
ATOM      4  C   UNL     1      33.421 -20.114 -20.419  0.00  0.00    +0.028 C 
ATOM      5  C   UNL     1      34.209 -21.701 -18.664  0.00  0.00    +0.025 C 
ATOM      6  C   UNL     1      33.206 -21.177 -19.381  0.00  0.00    -0.026 C 
ENDROOT
BRANCH   5  12
ATOM      7  O   UNL     1      32.881 -23.439 -17.882  0.00  0.00    -0.270 OA
ATOM      8  N   UNL     1      34.695 -22.853 -16.552  0.00  0.00    -0.267 N 
ATOM      9  N   UNL     1      36.881 -24.000 -15.327  0.00  0.00    -0.292 N 
ATOM     10  N   UNL     1      35.791 -25.609 -14.336  0.00  0.00    -0.132 NA
ATOM     11  N   UNL     1      37.146 -25.793 -14.126  0.00  0.00    -0.125 NA
ATOM     12  C   UNL     1      33.869 -22.735 -17.666  0.00  0.00    +0.245 C 
ATOM     13  C   UNL     1      35.840 -21.981 -16.223  0.00  0.00    +0.119 C 
ATOM     14  C   UNL     1      34.391 -23.882 -15.545  0.00  0.00    +0.160 C 
ATOM     15  C   UNL     1      37.115 -22.816 -16.124  0.00  0.00    +0.130 C 
ATOM     16  C   UNL     1      35.644 -24.523 -15.066  0.00  0.00    +0.164 A 
ATOM     17  C   UNL     1      37.784 -24.815 -14.730  0.00  0.00    +0.238 A 
BRANCH  17  21
ATOM     18  F   UNL     1      39.631 -23.556 -15.582  0.00  0.00    -0.163 F 
ATOM     19  F   UNL     1      39.820 -24.341 -13.569  0.00  0.00    -0.163 F 
ATOM     20  F   UNL     1      39.929 -25.688 -15.272  0.00  0.00    -0.163 F 
ATOM     21  C   UNL     1      39.241 -24.605 -14.785  0.00  0.00    +0.452 C 
ENDBRANCH  17  21
ENDBRANCH   5  12
BRANCH   1  25
ATOM     22  F   UNL     1      35.025 -20.529 -22.988  0.00  0.00    -0.204 F 
ATOM     23  F   UNL     1      35.500 -15.106 -22.468  0.00  0.00    -0.202 F 
ATOM     24  F   UNL     1      35.673 -16.267 -24.937  0.00  0.00    -0.202 F 
ATOM     25  C   UNL     1      35.052 -18.605 -21.600  0.00  0.00    +0.006 C 
ATOM     26  C   UNL     1      35.139 -19.201 -22.853  0.00  0.00    +0.138 C 
ATOM     27  C   UNL     1      35.173 -17.226 -21.463  0.00  0.00    +0.030 C 
ATOM     28  C   UNL     1      35.382 -16.435 -22.592  0.00  0.00    +0.167 C 
ATOM     29  C   UNL     1      35.348 -18.410 -23.983  0.00  0.00    +0.061 C 
ATOM     30  C   UNL     1      35.469 -17.026 -23.852  0.00  0.00    +0.170 C 
ENDBRANCH   1  25
BRANCH   2  31
ATOM     31  N   UNL     1      37.254 -19.952 -20.087  0.00  0.00    +0.382 N 
ATOM     32  H   UNL     1      37.743 -20.290 -19.259  0.00  0.00    -0.089 HD
ATOM     33  H   UNL     1      37.174 -18.937 -20.045  0.00  0.00    -0.089 HD
ATOM     34  H   UNL     1      37.775 -20.219 -20.922  0.00  0.00    -0.089 HD
ENDBRANCH   2  31
TORSDOF 4
ENDMDL
MODEL 9
REMARK VINA RESULT:     -11.0      9.669     14.993
REMARK  Name = 11974440
REMARK  4 active torsions:
REMARK  status: ('A' for Active; 'I' for Inactive)
REMARK    1  A    between atoms: C_1  and  C_25
REMARK    2  A    between atoms: C_2  and  N_31
REMARK    3  A    between atoms: C_5  and  C_12
REMARK    4  A    between atoms: C_17  and  C_21
REMARK                            x       y       z     vdW  Elec       q    Type
REMARK                         _______ _______ _______ _____ _____    ______ ____
ROOT
ATOM      1  C   UNL     1      33.482 -11.854 -22.393  0.00  0.00    +0.009 C 
ATOM      2  C   UNL     1      32.086 -11.836 -21.716  0.00  0.00    -0.057 C 
ATOM      3  C   UNL     1      31.877 -10.517 -20.945  0.00  0.00    +0.009 C 
ATOM      4  C   UNL     1      33.630 -10.656 -23.360  0.00  0.00    +0.028 C 
ATOM      5  C   UNL     1      32.311  -9.313 -21.725  0.00  0.00    +0.025 C 
ATOM      6  C   UNL     1      33.087  -9.367 -22.815  0.00  0.00    -0.026 C 
ENDROOT
BRANCH   5  12
ATOM      7  O   UNL     1      31.738  -7.787 -20.070  0.00  0.00    -0.270 OA
ATOM      8  N   UNL     1      31.568  -7.036 -22.263  0.00  0.00    -0.267 N 
ATOM      9  N   UNL     1      32.412  -4.954 -23.860  0.00  0.00    -0.292 N 
ATOM     10  N   UNL     1      31.771  -3.349 -22.530  0.00  0.00    -0.132 NA
ATOM     11  N   UNL     1      32.462  -2.797 -23.594  0.00  0.00    -0.125 NA
ATOM     12  C   UNL     1      31.845  -7.983 -21.281  0.00  0.00    +0.245 C 
ATOM     13  C   UNL     1      31.612  -7.258 -23.722  0.00  0.00    +0.119 C 
ATOM     14  C   UNL     1      31.114  -5.697 -21.853  0.00  0.00    +0.160 C 
ATOM     15  C   UNL     1      32.612  -6.297 -24.362  0.00  0.00    +0.130 C 
ATOM     16  C   UNL     1      31.750  -4.655 -22.701  0.00  0.00    +0.164 A 
ATOM     17  C   UNL     1      32.840  -3.780 -24.381  0.00  0.00    +0.238 A 
BRANCH  17  21
ATOM     18  F   UNL     1      34.798  -4.360 -25.627  0.00  0.00    -0.163 F 
ATOM     19  F   UNL     1      32.953  -4.134 -26.744  0.00  0.00    -0.163 F 
ATOM     20  F   UNL     1      33.959  -2.380 -25.945  0.00  0.00    -0.163 F 
ATOM     21  C   UNL     1      33.611  -3.670 -25.632  0.00  0.00    +0.452 C 
ENDBRANCH  17  21
ENDBRANCH   5  12
BRANCH   1  25
ATOM     22  F   UNL     1      35.086 -13.903 -21.263  0.00  0.00    -0.204 F 
ATOM     23  F   UNL     1      33.117 -14.780 -26.289  0.00  0.00    -0.202 F 
ATOM     24  F   UNL     1      34.677 -16.671 -25.078  0.00  0.00    -0.202 F 
ATOM     25  C   UNL     1      33.804 -13.154 -23.114  0.00  0.00    +0.006 C 
ATOM     26  C   UNL     1      34.598 -14.112 -22.493  0.00  0.00    +0.138 C 
ATOM     27  C   UNL     1      33.302 -13.373 -24.393  0.00  0.00    +0.030 C 
ATOM     28  C   UNL     1      33.597 -14.563 -25.057  0.00  0.00    +0.167 C 
ATOM     29  C   UNL     1      34.893 -15.303 -23.157  0.00  0.00    +0.061 C 
ATOM     30  C   UNL     1      34.392 -15.528 -24.439  0.00  0.00    +0.170 C 
ENDBRANCH   1  25
BRANCH   2  31
ATOM     31  N   UNL     1      31.922 -12.966 -20.797  0.00  0.00    +0.382 N 
ATOM     32  H   UNL     1      32.808 -13.463 -20.708  0.00  0.00    -0.089 HD
ATOM     33  H   UNL     1      31.212 -13.599 -21.161  0.00  0.00    -0.089 HD
ATOM     34  H   UNL     1      31.634 -12.620 -19.881  0.00  0.00    -0.089 HD
ENDBRANCH   2  31
TORSDOF 4
ENDMDL
