MODEL 1
REMARK VINA RESULT:     -12.1      0.000      0.000
REMARK  Name = 198752
REMARK  6 active torsions:
REMARK  status: ('A' for Active; 'I' for Inactive)
REMARK    1  A    between atoms: C_1  and  C_3
REMARK    2  A    between atoms: C_1  and  C_16
REMARK    3  A    between atoms: N_2  and  C_9
REMARK    4  A    between atoms: C_9  and  C_10
REMARK    5  A    between atoms: C_16  and  C_18
REMARK    6  A    between atoms: C_18  and  C_20
REMARK                            x       y       z     vdW  Elec       q    Type
REMARK                         _______ _______ _______ _____ _____    ______ ____
ROOT
ATOM      1  C   UNL     1      34.060 -14.628 -24.566  0.00  0.00    +0.008 C 
ENDROOT
BRANCH   1   3
ATOM      2  N   UNL     1      35.366 -18.001 -22.204  0.00  0.00    +0.390 N 
ATOM      3  C   UNL     1      34.985 -15.662 -23.931  0.00  0.00    -0.004 C 
ATOM      4  C   UNL     1      34.612 -17.081 -24.374  0.00  0.00    -0.023 C 
ATOM      5  C   UNL     1      34.947 -15.571 -22.402  0.00  0.00    -0.023 C 
ATOM      6  C   UNL     1      35.471 -18.130 -23.664  0.00  0.00    -0.077 C 
ATOM      7  C   UNL     1      35.795 -16.669 -21.757  0.00  0.00    -0.077 C 
ATOM      8  H   UNL     1      34.386 -18.118 -21.948  0.00  0.00    -0.079 HD
BRANCH   2   9
ATOM      9  C   UNL     1      36.150 -19.042 -21.540  0.00  0.00    -0.050 C 
BRANCH   9  10
ATOM     10  C   UNL     1      35.290 -19.931 -20.683  0.00  0.00    -0.043 C 
ATOM     11  C   UNL     1      33.910 -19.791 -20.724  0.00  0.00    -0.006 C 
ATOM     12  C   UNL     1      35.888 -20.880 -19.865  0.00  0.00    -0.006 C 
ATOM     13  C   UNL     1      33.112 -20.615 -19.929  0.00  0.00    -0.000 C 
ATOM     14  C   UNL     1      35.091 -21.704 -19.072  0.00  0.00    -0.000 C 
ATOM     15  C   UNL     1      33.702 -21.571 -19.104  0.00  0.00    -0.000 C 
ENDBRANCH   9  10
ENDBRANCH   2   9
ENDBRANCH   1   3
BRANCH   1  16
ATOM     16  C   UNL     1      34.192 -13.265 -23.886  0.00  0.00    +0.069 C 
BRANCH  16  18
ATOM     17  O   UNL     1      34.008 -12.307 -26.091  0.00  0.00    -0.291 OA
ATOM     18  C   UNL     1      34.105 -12.081 -24.867  0.00  0.00    +0.173 C 
BRANCH  18  20
ATOM     19  N   UNL     1      31.863  -8.448 -22.549  0.00  0.00    -0.333 N 
ATOM     20  C   UNL     1      34.135 -10.717 -24.362  0.00  0.00    +0.036 C 
ATOM     21  C   UNL     1      34.179  -8.087 -23.364  0.00  0.00    -0.009 C 
ATOM     22  C   UNL     1      34.329  -6.679 -22.824  0.00  0.00    +0.028 C 
ATOM     23  C   UNL     1      33.026  -8.881 -23.173  0.00  0.00    +0.041 C 
ATOM     24  C   UNL     1      33.797  -6.511 -21.401  0.00  0.00    +0.006 C 
ATOM     25  C   UNL     1      32.279  -6.360 -21.314  0.00  0.00    +0.022 C 
ATOM     26  C   UNL     1      33.039 -10.202 -23.669  0.00  0.00    +0.017 C 
ATOM     27  C   UNL     1      31.499  -7.055 -22.420  0.00  0.00    +0.087 C 
ATOM     28  C   UNL     1      35.249  -9.920 -24.578  0.00  0.00    +0.003 C 
ATOM     29  C   UNL     1      35.270  -8.617 -24.085  0.00  0.00    -0.003 C 
ATOM     30  H   UNL     1      31.254  -9.125 -22.176  0.00  0.00    +0.147 HD
ENDBRANCH  18  20
ENDBRANCH  16  18
ENDBRANCH   1  16
TORSDOF 6
ENDMDL
MODEL 2
REMARK VINA RESULT:     -11.8      4.710     12.156
REMARK  Name = 198752
REMARK  6 active torsions:
REMARK  status: ('A' for Active; 'I' for Inactive)
REMARK    1  A    between atoms: C_1  and  C_3
REMARK    2  A    between atoms: C_1  and  C_16
REMARK    3  A    between atoms: N_2  and  C_9
REMARK    4  A    between atoms: C_9  and  C_10
REMARK    5  A    between atoms: C_16  and  C_18
REMARK    6  A    between atoms: C_18  and  C_20
REMARK                            x       y       z     vdW  Elec       q    Type
REMARK                         _______ _______ _______ _____ _____    ______ ____
ROOT
ATOM      1  C   UNL     1      36.450 -20.960 -19.095  0.00  0.00    +0.008 C 
ENDROOT
BRANCH   1   3
ATOM      2  N   UNL     1      35.571 -18.022 -22.136  0.00  0.00    +0.390 N 
ATOM      3  C   UNL     1      36.265 -20.336 -20.474  0.00  0.00    -0.004 C 
ATOM      4  C   UNL     1      37.217 -19.151 -20.674  0.00  0.00    -0.023 C 
ATOM      5  C   UNL     1      34.818 -19.878 -20.683  0.00  0.00    -0.023 C 
ATOM      6  C   UNL     1      36.969 -18.458 -22.016  0.00  0.00    -0.077 C 
ATOM      7  C   UNL     1      34.650 -19.160 -22.024  0.00  0.00    -0.077 C 
ATOM      8  H   UNL     1      35.374 -17.381 -21.368  0.00  0.00    -0.079 HD
BRANCH   2   9
ATOM      9  C   UNL     1      35.361 -17.316 -23.400  0.00  0.00    -0.050 C 
BRANCH   9  10
ATOM     10  C   UNL     1      34.939 -15.888 -23.181  0.00  0.00    -0.043 C 
ATOM     11  C   UNL     1      34.510 -15.129 -24.262  0.00  0.00    -0.006 C 
ATOM     12  C   UNL     1      34.983 -15.349 -21.903  0.00  0.00    -0.006 C 
ATOM     13  C   UNL     1      34.120 -13.805 -24.058  0.00  0.00    -0.000 C 
ATOM     14  C   UNL     1      34.592 -14.026 -21.700  0.00  0.00    -0.000 C 
ATOM     15  C   UNL     1      34.161 -13.254 -22.778  0.00  0.00    -0.000 C 
ENDBRANCH   9  10
ENDBRANCH   2   9
ENDBRANCH   1   3
BRANCH   1  16
ATOM     16  C   UNL     1      35.208 -21.739 -18.661  0.00  0.00    +0.069 C 
BRANCH  16  18
ATOM     17  O   UNL     1      36.491 -22.586 -16.804  0.00  0.00    -0.291 OA
ATOM     18  C   UNL     1      35.351 -22.399 -17.276  0.00  0.00    +0.173 C 
BRANCH  18  20
ATOM     19  N   UNL     1      30.508 -22.572 -16.958  0.00  0.00    -0.333 N 
ATOM     20  C   UNL     1      34.164 -22.796 -16.536  0.00  0.00    +0.036 C 
ATOM     21  C   UNL     1      31.854 -23.569 -15.129  0.00  0.00    -0.009 C 
ATOM     22  C   UNL     1      30.681 -24.074 -14.313  0.00  0.00    +0.028 C 
ATOM     23  C   UNL     1      31.719 -22.912 -16.372  0.00  0.00    +0.041 C 
ATOM     24  C   UNL     1      29.596 -24.746 -15.154  0.00  0.00    +0.006 C 
ATOM     25  C   UNL     1      28.658 -23.769 -15.862  0.00  0.00    +0.022 C 
ATOM     26  C   UNL     1      32.896 -22.552 -17.064  0.00  0.00    +0.017 C 
ATOM     27  C   UNL     1      29.276 -22.425 -16.215  0.00  0.00    +0.087 C 
ATOM     28  C   UNL     1      34.288 -23.408 -15.299  0.00  0.00    +0.003 C 
ATOM     29  C   UNL     1      33.144 -23.789 -14.601  0.00  0.00    -0.003 C 
ATOM     30  H   UNL     1      30.486 -22.421 -17.931  0.00  0.00    +0.147 HD
ENDBRANCH  18  20
ENDBRANCH  16  18
ENDBRANCH   1  16
TORSDOF 6
ENDMDL
MODEL 3
REMARK VINA RESULT:     -11.5      1.950     10.394
REMARK  Name = 198752
REMARK  6 active torsions:
REMARK  status: ('A' for Active; 'I' for Inactive)
REMARK    1  A    between atoms: C_1  and  C_3
REMARK    2  A    between atoms: C_1  and  C_16
REMARK    3  A    between atoms: N_2  and  C_9
REMARK    4  A    between atoms: C_9  and  C_10
REMARK    5  A    between atoms: C_16  and  C_18
REMARK    6  A    between atoms: C_18  and  C_20
REMARK                            x       y       z     vdW  Elec       q    Type
REMARK                         _______ _______ _______ _____ _____    ______ ____
ROOT
ATOM      1  C   UNL     1      35.074 -15.078 -22.457  0.00  0.00    +0.008 C 
ENDROOT
BRANCH   1   3
ATOM      2  N   UNL     1      32.767 -11.469 -21.896  0.00  0.00    +0.390 N 
ATOM      3  C   UNL     1      33.917 -14.086 -22.547  0.00  0.00    -0.004 C 
ATOM      4  C   UNL     1      34.351 -12.798 -23.254  0.00  0.00    -0.023 C 
ATOM      5  C   UNL     1      33.367 -13.753 -21.157  0.00  0.00    -0.023 C 
ATOM      6  C   UNL     1      33.226 -11.761 -23.261  0.00  0.00    -0.077 C 
ATOM      7  C   UNL     1      32.275 -12.684 -21.233  0.00  0.00    -0.077 C 
ATOM      8  H   UNL     1      33.563 -11.121 -21.363  0.00  0.00    -0.079 HD
BRANCH   2   9
ATOM      9  C   UNL     1      31.728 -10.439 -21.914  0.00  0.00    -0.050 C 
BRANCH   9  10
ATOM     10  C   UNL     1      32.263  -9.097 -21.493  0.00  0.00    -0.043 C 
ATOM     11  C   UNL     1      32.060  -8.657 -20.192  0.00  0.00    -0.006 C 
ATOM     12  C   UNL     1      32.953  -8.317 -22.411  0.00  0.00    -0.006 C 
ATOM     13  C   UNL     1      32.556  -7.413 -19.803  0.00  0.00    -0.000 C 
ATOM     14  C   UNL     1      33.449  -7.073 -22.022  0.00  0.00    -0.000 C 
ATOM     15  C   UNL     1      33.249  -6.621 -20.717  0.00  0.00    -0.000 C 
ENDBRANCH   9  10
ENDBRANCH   2   9
ENDBRANCH   1   3
BRANCH   1  16
ATOM     16  C   UNL     1      35.466 -15.610 -23.835  0.00  0.00    +0.069 C 
BRANCH  16  18
ATOM     17  O   UNL     1      34.914 -17.592 -25.092  0.00  0.00    -0.291 OA
ATOM     18  C   UNL     1      35.263 -17.129 -23.986  0.00  0.00    +0.173 C 
BRANCH  18  20
ATOM     19  N   UNL     1      33.456 -20.259 -20.741  0.00  0.00    -0.333 N 
ATOM     20  C   UNL     1      35.479 -18.007 -22.847  0.00  0.00    +0.036 C 
ATOM     21  C   UNL     1      35.876 -19.723 -20.653  0.00  0.00    -0.009 C 
ATOM     22  C   UNL     1      36.213 -20.655 -19.506  0.00  0.00    +0.028 C 
ATOM     23  C   UNL     1      34.586 -19.607 -21.217  0.00  0.00    +0.041 C 
ATOM     24  C   UNL     1      35.560 -22.031 -19.626  0.00  0.00    +0.006 C 
ATOM     25  C   UNL     1      34.093 -22.067 -19.198  0.00  0.00    +0.022 C 
ATOM     26  C   UNL     1      34.420 -18.753 -22.328  0.00  0.00    +0.017 C 
ATOM     27  C   UNL     1      33.334 -20.763 -19.392  0.00  0.00    +0.087 C 
ATOM     28  C   UNL     1      36.734 -18.098 -22.266  0.00  0.00    +0.003 C 
ATOM     29  C   UNL     1      36.931 -18.946 -21.179  0.00  0.00    -0.003 C 
ATOM     30  H   UNL     1      32.696 -20.384 -21.356  0.00  0.00    +0.147 HD
ENDBRANCH  18  20
ENDBRANCH  16  18
ENDBRANCH   1  16
TORSDOF 6
ENDMDL
MODEL 4
REMARK VINA RESULT:     -11.4      1.384      2.030
REMARK  Name = 198752
REMARK  6 active torsions:
REMARK  status: ('A' for Active; 'I' for Inactive)
REMARK    1  A    between atoms: C_1  and  C_3
REMARK    2  A    between atoms: C_1  and  C_16
REMARK    3  A    between atoms: N_2  and  C_9
REMARK    4  A    between atoms: C_9  and  C_10
REMARK    5  A    between atoms: C_16  and  C_18
REMARK    6  A    between atoms: C_18  and  C_20
REMARK                            x       y       z     vdW  Elec       q    Type
REMARK                         _______ _______ _______ _____ _____    ______ ____
ROOT
ATOM      1  C   UNL     1      34.244 -14.411 -24.163  0.00  0.00    +0.008 C 
ENDROOT
BRANCH   1   3
ATOM      2  N   UNL     1      35.394 -18.021 -22.088  0.00  0.00    +0.390 N 
ATOM      3  C   UNL     1      35.127 -15.500 -23.562  0.00  0.00    -0.004 C 
ATOM      4  C   UNL     1      34.835 -16.861 -24.201  0.00  0.00    -0.023 C 
ATOM      5  C   UNL     1      34.937 -15.590 -22.044  0.00  0.00    -0.023 C 
ATOM      6  C   UNL     1      35.646 -17.975 -23.535  0.00  0.00    -0.077 C 
ATOM      7  C   UNL     1      35.744 -16.745 -21.449  0.00  0.00    -0.077 C 
ATOM      8  H   UNL     1      34.397 -18.180 -21.947  0.00  0.00    -0.079 HD
BRANCH   2   9
ATOM      9  C   UNL     1      36.135 -19.122 -21.473  0.00  0.00    -0.050 C 
BRANCH   9  10
ATOM     10  C   UNL     1      35.247 -19.988 -20.621  0.00  0.00    -0.043 C 
ATOM     11  C   UNL     1      33.868 -19.867 -20.729  0.00  0.00    -0.006 C 
ATOM     12  C   UNL     1      35.817 -20.897 -19.741  0.00  0.00    -0.006 C 
ATOM     13  C   UNL     1      33.045 -20.670 -19.939  0.00  0.00    -0.000 C 
ATOM     14  C   UNL     1      34.994 -21.700 -18.952  0.00  0.00    -0.000 C 
ATOM     15  C   UNL     1      33.607 -21.586 -19.051  0.00  0.00    -0.000 C 
ENDBRANCH   9  10
ENDBRANCH   2   9
ENDBRANCH   1   3
BRANCH   1  16
ATOM     16  C   UNL     1      34.535 -13.045 -23.541  0.00  0.00    +0.069 C 
BRANCH  16  18
ATOM     17  O   UNL     1      32.366 -13.085 -22.488  0.00  0.00    -0.291 OA
ATOM     18  C   UNL     1      33.292 -12.372 -22.930  0.00  0.00    +0.173 C 
BRANCH  18  20
ATOM     19  N   UNL     1      35.109  -8.043 -24.172  0.00  0.00    -0.333 N 
ATOM     20  C   UNL     1      33.206 -10.922 -22.872  0.00  0.00    +0.036 C 
ATOM     21  C   UNL     1      33.052  -8.114 -22.787  0.00  0.00    -0.009 C 
ATOM     22  C   UNL     1      32.844  -6.614 -22.718  0.00  0.00    +0.028 C 
ATOM     23  C   UNL     1      34.099  -8.728 -23.511  0.00  0.00    +0.041 C 
ATOM     24  C   UNL     1      33.051  -5.907 -24.057  0.00  0.00    +0.006 C 
ATOM     25  C   UNL     1      34.516  -5.667 -24.419  0.00  0.00    +0.022 C 
ATOM     26  C   UNL     1      34.140 -10.138 -23.551  0.00  0.00    +0.017 C 
ATOM     27  C   UNL     1      35.494  -6.686 -23.854  0.00  0.00    +0.087 C 
ATOM     28  C   UNL     1      32.205 -10.312 -22.134  0.00  0.00    +0.003 C 
ATOM     29  C   UNL     1      32.129  -8.922 -22.090  0.00  0.00    -0.003 C 
ATOM     30  H   UNL     1      35.590  -8.505 -24.896  0.00  0.00    +0.147 HD
ENDBRANCH  18  20
ENDBRANCH  16  18
ENDBRANCH   1  16
TORSDOF 6
ENDMDL
MODEL 5
REMARK VINA RESULT:     -11.2      6.461     13.663
REMARK  Name = 198752
REMARK  6 active torsions:
REMARK  status: ('A' for Active; 'I' for Inactive)
REMARK    1  A    between atoms: C_1  and  C_3
REMARK    2  A    between atoms: C_1  and  C_16
REMARK    3  A    between atoms: N_2  and  C_9
REMARK    4  A    between atoms: C_9  and  C_10
REMARK    5  A    between atoms: C_16  and  C_18
REMARK    6  A    between atoms: C_18  and  C_20
REMARK                            x       y       z     vdW  Elec       q    Type
REMARK                         _______ _______ _______ _____ _____    ______ ____
ROOT
ATOM      1  C   UNL     1      32.876 -22.186 -18.030  0.00  0.00    +0.008 C 
ENDROOT
BRANCH   1   3
ATOM      2  N   UNL     1      35.666 -19.781 -20.285  0.00  0.00    +0.390 N 
ATOM      3  C   UNL     1      33.819 -21.755 -19.148  0.00  0.00    -0.004 C 
ATOM      4  C   UNL     1      35.246 -21.564 -18.623  0.00  0.00    -0.023 C 
ATOM      5  C   UNL     1      33.334 -20.460 -19.810  0.00  0.00    -0.023 C 
ATOM      6  C   UNL     1      36.176 -21.035 -19.716  0.00  0.00    -0.077 C 
ATOM      7  C   UNL     1      34.328 -19.968 -20.864  0.00  0.00    -0.077 C 
ATOM      8  H   UNL     1      35.589 -19.101 -19.530  0.00  0.00    -0.079 HD
BRANCH   2   9
ATOM      9  C   UNL     1      36.590 -19.261 -21.292  0.00  0.00    -0.050 C 
BRANCH   9  10
ATOM     10  C   UNL     1      35.867 -18.537 -22.396  0.00  0.00    -0.043 C 
ATOM     11  C   UNL     1      35.319 -19.263 -23.445  0.00  0.00    -0.006 C 
ATOM     12  C   UNL     1      35.758 -17.154 -22.351  0.00  0.00    -0.006 C 
ATOM     13  C   UNL     1      34.649 -18.591 -24.468  0.00  0.00    -0.000 C 
ATOM     14  C   UNL     1      35.088 -16.483 -23.373  0.00  0.00    -0.000 C 
ATOM     15  C   UNL     1      34.534 -17.202 -24.433  0.00  0.00    -0.000 C 
ENDBRANCH   9  10
ENDBRANCH   2   9
ENDBRANCH   1   3
BRANCH   1  16
ATOM     16  C   UNL     1      33.440 -23.371 -17.245  0.00  0.00    +0.069 C 
BRANCH  16  18
ATOM     17  O   UNL     1      32.173 -22.742 -15.294  0.00  0.00    -0.291 OA
ATOM     18  C   UNL     1      33.225 -23.258 -15.725  0.00  0.00    +0.173 C 
BRANCH  18  20
ATOM     19  N   UNL     1      37.574 -25.311 -15.048  0.00  0.00    -0.333 N 
ATOM     20  C   UNL     1      34.242 -23.749 -14.809  0.00  0.00    +0.036 C 
ATOM     21  C   UNL     1      36.231 -24.692 -13.057  0.00  0.00    -0.009 C 
ATOM     22  C   UNL     1      37.254 -25.122 -12.024  0.00  0.00    +0.028 C 
ATOM     23  C   UNL     1      36.447 -24.764 -14.451  0.00  0.00    +0.041 C 
ATOM     24  C   UNL     1      38.681 -24.694 -12.363  0.00  0.00    +0.006 C 
ATOM     25  C   UNL     1      39.374 -25.587 -13.392  0.00  0.00    +0.022 C 
ATOM     26  C   UNL     1      35.439 -24.267 -15.305  0.00  0.00    +0.017 C 
ATOM     27  C   UNL     1      38.445 -26.260 -14.391  0.00  0.00    +0.087 C 
ATOM     28  C   UNL     1      34.022 -23.717 -13.441  0.00  0.00    +0.003 C 
ATOM     29  C   UNL     1      35.006 -24.185 -12.573  0.00  0.00    -0.003 C 
ATOM     30  H   UNL     1      37.793 -25.039 -15.969  0.00  0.00    +0.147 HD
ENDBRANCH  18  20
ENDBRANCH  16  18
ENDBRANCH   1  16
TORSDOF 6
ENDMDL
MODEL 6
REMARK VINA RESULT:     -11.2      4.661     12.703
REMARK  Name = 198752
REMARK  6 active torsions:
REMARK  status: ('A' for Active; 'I' for Inactive)
REMARK    1  A    between atoms: C_1  and  C_3
REMARK    2  A    between atoms: C_1  and  C_16
REMARK    3  A    between atoms: N_2  and  C_9
REMARK    4  A    between atoms: C_9  and  C_10
REMARK    5  A    between atoms: C_16  and  C_18
REMARK    6  A    between atoms: C_18  and  C_20
REMARK                            x       y       z     vdW  Elec       q    Type
REMARK                         _______ _______ _______ _____ _____    ______ ____
ROOT
ATOM      1  C   UNL     1      35.632 -21.478 -18.949  0.00  0.00    +0.008 C 
ENDROOT
BRANCH   1   3
ATOM      2  N   UNL     1      35.682 -18.178 -21.735  0.00  0.00    +0.390 N 
ATOM      3  C   UNL     1      35.780 -20.709 -20.258  0.00  0.00    -0.004 C 
ATOM      4  C   UNL     1      36.885 -19.653 -20.155  0.00  0.00    -0.023 C 
ATOM      5  C   UNL     1      34.460 -20.040 -20.657  0.00  0.00    -0.023 C 
ATOM      6  C   UNL     1      36.971 -18.811 -21.430  0.00  0.00    -0.077 C 
ATOM      7  C   UNL     1      34.627 -19.185 -21.914  0.00  0.00    -0.077 C 
ATOM      8  H   UNL     1      35.423 -17.591 -20.943  0.00  0.00    -0.079 HD
BRANCH   2   9
ATOM      9  C   UNL     1      35.792 -17.336 -22.926  0.00  0.00    -0.050 C 
BRANCH   9  10
ATOM     10  C   UNL     1      35.236 -15.957 -22.692  0.00  0.00    -0.043 C 
ATOM     11  C   UNL     1      35.031 -15.516 -21.392  0.00  0.00    -0.006 C 
ATOM     12  C   UNL     1      34.937 -15.146 -23.777  0.00  0.00    -0.006 C 
ATOM     13  C   UNL     1      34.515 -14.238 -21.174  0.00  0.00    -0.000 C 
ATOM     14  C   UNL     1      34.422 -13.869 -23.560  0.00  0.00    -0.000 C 
ATOM     15  C   UNL     1      34.211 -13.415 -22.257  0.00  0.00    -0.000 C 
ENDBRANCH   9  10
ENDBRANCH   2   9
ENDBRANCH   1   3
BRANCH   1  16
ATOM     16  C   UNL     1      34.534 -22.538 -19.041  0.00  0.00    +0.069 C 
BRANCH  16  18
ATOM     17  O   UNL     1      32.363 -21.975 -18.157  0.00  0.00    -0.291 OA
ATOM     18  C   UNL     1      33.494 -22.443 -17.909  0.00  0.00    +0.173 C 
BRANCH  18  20
ATOM     19  N   UNL     1      36.875 -23.908 -14.746  0.00  0.00    -0.333 N 
ATOM     20  C   UNL     1      33.835 -22.895 -16.570  0.00  0.00    +0.036 C 
ATOM     21  C   UNL     1      34.521 -23.757 -13.981  0.00  0.00    -0.009 C 
ATOM     22  C   UNL     1      34.784 -24.164 -12.545  0.00  0.00    +0.028 C 
ATOM     23  C   UNL     1      35.535 -23.614 -14.955  0.00  0.00    +0.041 C 
ATOM     24  C   UNL     1      36.014 -23.491 -11.936  0.00  0.00    +0.006 C 
ATOM     25  C   UNL     1      37.342 -24.132 -12.340  0.00  0.00    +0.022 C 
ATOM     26  C   UNL     1      35.164 -23.163 -16.239  0.00  0.00    +0.017 C 
ATOM     27  C   UNL     1      37.346 -24.798 -13.708  0.00  0.00    +0.087 C 
ATOM     28  C   UNL     1      32.841 -23.073 -15.621  0.00  0.00    +0.003 C 
ATOM     29  C   UNL     1      33.180 -23.501 -14.340  0.00  0.00    -0.003 C 
ATOM     30  H   UNL     1      37.542 -23.490 -15.338  0.00  0.00    +0.147 HD
ENDBRANCH  18  20
ENDBRANCH  16  18
ENDBRANCH   1  16
TORSDOF 6
ENDMDL
MODEL 7
REMARK VINA RESULT:     -11.1      4.775     12.947
REMARK  Name = 198752
REMARK  6 active torsions:
REMARK  status: ('A' for Active; 'I' for Inactive)
REMARK    1  A    between atoms: C_1  and  C_3
REMARK    2  A    between atoms: C_1  and  C_16
REMARK    3  A    between atoms: N_2  and  C_9
REMARK    4  A    between atoms: C_9  and  C_10
REMARK    5  A    between atoms: C_16  and  C_18
REMARK    6  A    between atoms: C_18  and  C_20
REMARK                            x       y       z     vdW  Elec       q    Type
REMARK                         _______ _______ _______ _____ _____    ______ ____
ROOT
ATOM      1  C   UNL     1      35.449 -20.908 -19.446  0.00  0.00    +0.008 C 
ENDROOT
BRANCH   1   3
ATOM      2  N   UNL     1      35.475 -17.842 -22.488  0.00  0.00    +0.390 N 
ATOM      3  C   UNL     1      35.606 -20.242 -20.810  0.00  0.00    -0.004 C 
ATOM      4  C   UNL     1      36.680 -19.149 -20.769  0.00  0.00    -0.023 C 
ATOM      5  C   UNL     1      34.279 -19.645 -21.289  0.00  0.00    -0.023 C 
ATOM      6  C   UNL     1      36.774 -18.410 -22.105  0.00  0.00    -0.077 C 
ATOM      7  C   UNL     1      34.452 -18.890 -22.608  0.00  0.00    -0.077 C 
ATOM      8  H   UNL     1      35.182 -17.200 -21.752  0.00  0.00    -0.079 HD
BRANCH   2   9
ATOM      9  C   UNL     1      35.591 -17.095 -23.741  0.00  0.00    -0.050 C 
BRANCH   9  10
ATOM     10  C   UNL     1      34.895 -15.762 -23.666  0.00  0.00    -0.043 C 
ATOM     11  C   UNL     1      34.160 -15.314 -24.754  0.00  0.00    -0.006 C 
ATOM     12  C   UNL     1      34.996 -15.001 -22.510  0.00  0.00    -0.006 C 
ATOM     13  C   UNL     1      33.515 -14.078 -24.685  0.00  0.00    -0.000 C 
ATOM     14  C   UNL     1      34.352 -13.767 -22.440  0.00  0.00    -0.000 C 
ATOM     15  C   UNL     1      33.611 -13.305 -23.528  0.00  0.00    -0.000 C 
ENDBRANCH   9  10
ENDBRANCH   2   9
ENDBRANCH   1   3
BRANCH   1  16
ATOM     16  C   UNL     1      36.761 -21.531 -18.971  0.00  0.00    +0.069 C 
BRANCH  16  18
ATOM     17  O   UNL     1      37.656 -20.092 -17.256  0.00  0.00    -0.291 OA
ATOM     18  C   UNL     1      37.111 -21.186 -17.511  0.00  0.00    +0.173 C 
BRANCH  18  20
ATOM     19  N   UNL     1      38.669 -24.435 -14.255  0.00  0.00    -0.333 N 
ATOM     20  C   UNL     1      36.806 -22.131 -16.449  0.00  0.00    +0.036 C 
ATOM     21  C   UNL     1      36.239 -23.953 -14.381  0.00  0.00    -0.009 C 
ATOM     22  C   UNL     1      35.827 -24.869 -13.246  0.00  0.00    +0.028 C 
ATOM     23  C   UNL     1      37.579 -23.757 -14.783  0.00  0.00    +0.041 C 
ATOM     24  C   UNL     1      36.740 -24.776 -12.024  0.00  0.00    +0.006 C 
ATOM     25  C   UNL     1      38.045 -25.561 -12.157  0.00  0.00    +0.022 C 
ATOM     26  C   UNL     1      37.835 -22.824 -15.811  0.00  0.00    +0.017 C 
ATOM     27  C   UNL     1      38.565 -25.709 -13.579  0.00  0.00    +0.087 C 
ATOM     28  C   UNL     1      35.490 -22.356 -16.075  0.00  0.00    +0.003 C 
ATOM     29  C   UNL     1      35.209 -23.259 -15.052  0.00  0.00    -0.003 C 
ATOM     30  H   UNL     1      39.561 -24.028 -14.346  0.00  0.00    +0.147 HD
ENDBRANCH  18  20
ENDBRANCH  16  18
ENDBRANCH   1  16
TORSDOF 6
ENDMDL
MODEL 8
REMARK VINA RESULT:     -11.1      2.925      4.610
REMARK  Name = 198752
REMARK  6 active torsions:
REMARK  status: ('A' for Active; 'I' for Inactive)
REMARK    1  A    between atoms: C_1  and  C_3
REMARK    2  A    between atoms: C_1  and  C_16
REMARK    3  A    between atoms: N_2  and  C_9
REMARK    4  A    between atoms: C_9  and  C_10
REMARK    5  A    between atoms: C_16  and  C_18
REMARK    6  A    between atoms: C_18  and  C_20
REMARK                            x       y       z     vdW  Elec       q    Type
REMARK                         _______ _______ _______ _____ _____    ______ ____
ROOT
ATOM      1  C   UNL     1      31.872 -11.959 -20.172  0.00  0.00    +0.008 C 
ENDROOT
BRANCH   1   3
ATOM      2  N   UNL     1      34.238 -14.512 -22.729  0.00  0.00    +0.390 N 
ATOM      3  C   UNL     1      33.052 -12.468 -20.993  0.00  0.00    -0.004 C 
ATOM      4  C   UNL     1      32.673 -12.613 -22.471  0.00  0.00    -0.023 C 
ATOM      5  C   UNL     1      33.561 -13.810 -20.455  0.00  0.00    -0.023 C 
ATOM      6  C   UNL     1      33.821 -13.217 -23.283  0.00  0.00    -0.077 C 
ATOM      7  C   UNL     1      34.679 -14.374 -21.335  0.00  0.00    -0.077 C 
ATOM      8  H   UNL     1      33.431 -15.136 -22.744  0.00  0.00    -0.079 HD
BRANCH   2   9
ATOM      9  C   UNL     1      35.300 -15.101 -23.545  0.00  0.00    -0.050 C 
BRANCH   9  10
ATOM     10  C   UNL     1      35.232 -16.605 -23.553  0.00  0.00    -0.043 C 
ATOM     11  C   UNL     1      34.476 -17.250 -24.522  0.00  0.00    -0.006 C 
ATOM     12  C   UNL     1      35.926 -17.326 -22.591  0.00  0.00    -0.006 C 
ATOM     13  C   UNL     1      34.413 -18.643 -24.529  0.00  0.00    -0.000 C 
ATOM     14  C   UNL     1      35.863 -18.719 -22.598  0.00  0.00    -0.000 C 
ATOM     15  C   UNL     1      35.106 -19.378 -23.567  0.00  0.00    -0.000 C 
ENDBRANCH   9  10
ENDBRANCH   2   9
ENDBRANCH   1   3
BRANCH   1  16
ATOM     16  C   UNL     1      31.423 -10.573 -20.634  0.00  0.00    +0.069 C 
BRANCH  16  18
ATOM     17  O   UNL     1      32.587  -9.592 -18.765  0.00  0.00    -0.291 OA
ATOM     18  C   UNL     1      32.162  -9.422 -19.926  0.00  0.00    +0.173 C 
BRANCH  18  20
ATOM     19  N   UNL     1      34.007  -6.968 -23.690  0.00  0.00    -0.333 N 
ATOM     20  C   UNL     1      32.358  -8.155 -20.613  0.00  0.00    +0.036 C 
ATOM     21  C   UNL     1      32.736  -5.717 -21.966  0.00  0.00    -0.009 C 
ATOM     22  C   UNL     1      32.835  -4.361 -22.635  0.00  0.00    +0.028 C 
ATOM     23  C   UNL     1      33.263  -6.905 -22.520  0.00  0.00    +0.041 C 
ATOM     24  C   UNL     1      32.582  -4.403 -24.142  0.00  0.00    +0.006 C 
ATOM     25  C   UNL     1      33.781  -4.874 -24.965  0.00  0.00    +0.022 C 
ATOM     26  C   UNL     1      33.043  -8.115 -21.828  0.00  0.00    +0.017 C 
ATOM     27  C   UNL     1      34.715  -5.837 -24.248  0.00  0.00    +0.087 C 
ATOM     28  C   UNL     1      31.875  -6.980 -20.057  0.00  0.00    +0.003 C 
ATOM     29  C   UNL     1      32.064  -5.773 -20.726  0.00  0.00    -0.003 C 
ATOM     30  H   UNL     1      34.056  -7.829 -24.166  0.00  0.00    +0.147 HD
ENDBRANCH  18  20
ENDBRANCH  16  18
ENDBRANCH   1  16
TORSDOF 6
ENDMDL
MODEL 9
REMARK VINA RESULT:     -11.0      3.337      6.679
REMARK  Name = 198752
REMARK  6 active torsions:
REMARK  status: ('A' for Active; 'I' for Inactive)
REMARK    1  A    between atoms: C_1  and  C_3
REMARK    2  A    between atoms: C_1  and  C_16
REMARK    3  A    between atoms: N_2  and  C_9
REMARK    4  A    between atoms: C_9  and  C_10
REMARK    5  A    between atoms: C_16  and  C_18
REMARK    6  A    between atoms: C_18  and  C_20
REMARK                            x       y       z     vdW  Elec       q    Type
REMARK                         _______ _______ _______ _____ _____    ______ ____
ROOT
ATOM      1  C   UNL     1      36.582 -19.745 -20.193  0.00  0.00    +0.008 C 
ENDROOT
BRANCH   1   3
ATOM      2  N   UNL     1      34.363 -22.389 -17.596  0.00  0.00    +0.390 N 
ATOM      3  C   UNL     1      36.038 -21.035 -19.585  0.00  0.00    -0.004 C 
ATOM      4  C   UNL     1      34.511 -21.097 -19.700  0.00  0.00    -0.023 C 
ATOM      5  C   UNL     1      36.452 -21.169 -18.116  0.00  0.00    -0.023 C 
ATOM      6  C   UNL     1      33.951 -22.339 -19.005  0.00  0.00    -0.077 C 
ATOM      7  C   UNL     1      35.826 -22.409 -17.473  0.00  0.00    -0.077 C 
ATOM      8  H   UNL     1      34.020 -21.545 -17.137  0.00  0.00    -0.079 HD
BRANCH   2   9
ATOM      9  C   UNL     1      33.778 -23.553 -16.931  0.00  0.00    -0.050 C 
BRANCH   9  10
ATOM     10  C   UNL     1      32.626 -23.170 -16.041  0.00  0.00    -0.043 C 
ATOM     11  C   UNL     1      31.382 -22.918 -16.604  0.00  0.00    -0.006 C 
ATOM     12  C   UNL     1      32.822 -23.075 -14.670  0.00  0.00    -0.006 C 
ATOM     13  C   UNL     1      30.315 -22.562 -15.779  0.00  0.00    -0.000 C 
ATOM     14  C   UNL     1      31.755 -22.721 -13.846  0.00  0.00    -0.000 C 
ATOM     15  C   UNL     1      30.501 -22.463 -14.401  0.00  0.00    -0.000 C 
ENDBRANCH   9  10
ENDBRANCH   2   9
ENDBRANCH   1   3
BRANCH   1  16
ATOM     16  C   UNL     1      35.658 -19.207 -21.285  0.00  0.00    +0.069 C 
BRANCH  16  18
ATOM     17  O   UNL     1      37.572 -18.478 -22.557  0.00  0.00    -0.291 OA
ATOM     18  C   UNL     1      36.369 -18.278 -22.287  0.00  0.00    +0.173 C 
BRANCH  18  20
ATOM     19  N   UNL     1      34.390 -13.858 -21.913  0.00  0.00    -0.333 N 
ATOM     20  C   UNL     1      35.639 -17.183 -22.905  0.00  0.00    +0.036 C 
ATOM     21  C   UNL     1      34.242 -15.045 -24.086  0.00  0.00    -0.009 C 
ATOM     22  C   UNL     1      33.530 -13.936 -24.835  0.00  0.00    +0.028 C 
ATOM     23  C   UNL     1      34.656 -14.942 -22.739  0.00  0.00    +0.041 C 
ATOM     24  C   UNL     1      34.106 -12.547 -24.561  0.00  0.00    +0.006 C 
ATOM     25  C   UNL     1      33.644 -11.927 -23.243  0.00  0.00    +0.022 C 
ATOM     26  C   UNL     1      35.370 -16.022 -22.179  0.00  0.00    +0.017 C 
ATOM     27  C   UNL     1      33.311 -12.924 -22.144  0.00  0.00    +0.087 C 
ATOM     28  C   UNL     1      35.198 -17.292 -24.214  0.00  0.00    +0.003 C 
ATOM     29  C   UNL     1      34.505 -16.234 -24.799  0.00  0.00    -0.003 C 
ATOM     30  H   UNL     1      34.966 -13.719 -21.127  0.00  0.00    +0.147 HD
ENDBRANCH  18  20
ENDBRANCH  16  18
ENDBRANCH   1  16
TORSDOF 6
ENDMDL
