MODEL 1
REMARK VINA RESULT:     -11.9      0.000      0.000
REMARK  Name = 9969613
REMARK  5 active torsions:
REMARK  status: ('A' for Active; 'I' for Inactive)
REMARK    1  A    between atoms: C_3  and  O_7
REMARK    2  A    between atoms: C_4  and  O_17
REMARK    3  A    between atoms: O_7  and  C_13
REMARK    4  A    between atoms: O_17  and  C_21
REMARK    5  A    between atoms: C_18  and  N_24
REMARK                            x       y       z     vdW  Elec       q    Type
REMARK                         _______ _______ _______ _____ _____    ______ ____
ROOT
ATOM      1  N   UNL     1      35.932 -17.343 -22.601  0.00  0.00    -0.283 NA
ATOM      2  N   UNL     1      34.615 -17.222 -24.616  0.00  0.00    -0.151 NA
ATOM      3  C   UNL     1      35.567 -18.631 -22.500  0.00  0.00    +0.296 C 
ATOM      4  C   UNL     1      35.425 -16.704 -23.672  0.00  0.00    +0.260 C 
ATOM      5  C   UNL     1      34.750 -19.287 -23.387  0.00  0.00    +0.094 C 
ATOM      6  C   UNL     1      34.296 -18.522 -24.442  0.00  0.00    +0.119 C 
ENDROOT
BRANCH   3   7
ATOM      7  O   UNL     1      36.064 -19.331 -21.413  0.00  0.00    -0.427 OA
BRANCH   7  13
ATOM      8  O   UNL     1      34.959 -22.672 -18.116  0.00  0.00    -0.435 OA
ATOM      9  O   UNL     1      32.606 -22.182 -18.283  0.00  0.00    -0.435 OA
ATOM     10  C   UNL     1      34.699 -21.685 -19.016  0.00  0.00    +0.179 C 
ATOM     11  C   UNL     1      33.355 -21.405 -19.112  0.00  0.00    +0.177 C 
ATOM     12  C   UNL     1      35.636 -21.011 -19.772  0.00  0.00    +0.078 C 
ATOM     13  C   UNL     1      35.176 -20.023 -20.647  0.00  0.00    +0.151 C 
ATOM     14  C   UNL     1      32.874 -20.435 -19.968  0.00  0.00    +0.043 C 
ATOM     15  C   UNL     1      33.629 -22.982 -17.656  0.00  0.00    +0.429 C 
ATOM     16  C   UNL     1      33.803 -19.738 -20.745  0.00  0.00    +0.041 C 
ENDBRANCH   7  13
ENDBRANCH   3   7
BRANCH   4  17
ATOM     17  O   UNL     1      35.771 -15.381 -23.819  0.00  0.00    -0.383 OA
BRANCH  17  21
ATOM     18  C   UNL     1      33.265 -12.562 -22.086  0.00  0.00    +0.057 C 
ATOM     19  C   UNL     1      33.595 -12.464 -23.438  0.00  0.00    +0.018 C 
ATOM     20  C   UNL     1      33.777 -13.607 -21.317  0.00  0.00    +0.018 C 
ATOM     21  C   UNL     1      34.939 -14.445 -23.243  0.00  0.00    +0.160 C 
ATOM     22  C   UNL     1      34.437 -13.412 -24.020  0.00  0.00    +0.040 C 
ATOM     23  C   UNL     1      34.619 -14.554 -21.899  0.00  0.00    +0.040 C 
BRANCH  18  24
ATOM     24  N   UNL     1      32.430 -11.624 -21.509  0.00  0.00    -0.246 N 
ATOM     25  N   UNL     1      31.192  -9.783 -21.285  0.00  0.00    -0.224 NA
ATOM     26  C   UNL     1      31.894 -11.672 -20.247  0.00  0.00    +0.092 C 
ATOM     27  C   UNL     1      31.975 -10.467 -22.090  0.00  0.00    +0.172 C 
ATOM     28  C   UNL     1      31.138 -10.528 -20.134  0.00  0.00    +0.117 C 
ENDBRANCH  18  24
ENDBRANCH  17  21
ENDBRANCH   4  17
TORSDOF 5
ENDMDL
MODEL 2
REMARK VINA RESULT:     -11.9      4.185      8.033
REMARK  Name = 9969613
REMARK  5 active torsions:
REMARK  status: ('A' for Active; 'I' for Inactive)
REMARK    1  A    between atoms: C_3  and  O_7
REMARK    2  A    between atoms: C_4  and  O_17
REMARK    3  A    between atoms: O_7  and  C_13
REMARK    4  A    between atoms: O_17  and  C_21
REMARK    5  A    between atoms: C_18  and  N_24
REMARK                            x       y       z     vdW  Elec       q    Type
REMARK                         _______ _______ _______ _____ _____    ______ ____
ROOT
ATOM      1  N   UNL     1      33.571 -23.182 -16.280  0.00  0.00    -0.283 NA
ATOM      2  N   UNL     1      35.856 -22.518 -16.666  0.00  0.00    -0.151 NA
ATOM      3  C   UNL     1      33.796 -23.007 -14.968  0.00  0.00    +0.296 C 
ATOM      4  C   UNL     1      34.635 -22.922 -17.065  0.00  0.00    +0.260 C 
ATOM      5  C   UNL     1      34.988 -22.599 -14.423  0.00  0.00    +0.094 C 
ATOM      6  C   UNL     1      35.998 -22.366 -15.332  0.00  0.00    +0.119 C 
ENDROOT
BRANCH   3   7
ATOM      7  O   UNL     1      32.731 -23.262 -14.120  0.00  0.00    -0.427 OA
BRANCH   7  13
ATOM      8  O   UNL     1      28.909 -21.890 -16.720  0.00  0.00    -0.435 OA
ATOM      9  O   UNL     1      27.840 -24.031 -16.438  0.00  0.00    -0.435 OA
ATOM     10  C   UNL     1      29.658 -22.747 -15.975  0.00  0.00    +0.179 C 
ATOM     11  C   UNL     1      29.048 -23.971 -15.814  0.00  0.00    +0.177 C 
ATOM     12  C   UNL     1      30.892 -22.473 -15.422  0.00  0.00    +0.078 C 
ATOM     13  C   UNL     1      31.512 -23.486 -14.684  0.00  0.00    +0.151 C 
ATOM     14  C   UNL     1      29.639 -24.987 -15.091  0.00  0.00    +0.043 C 
ATOM     15  C   UNL     1      27.759 -22.709 -17.010  0.00  0.00    +0.429 C 
ATOM     16  C   UNL     1      30.888 -24.734 -14.519  0.00  0.00    +0.041 C 
ENDBRANCH   7  13
ENDBRANCH   3   7
BRANCH   4  17
ATOM     17  O   UNL     1      34.454 -23.087 -18.418  0.00  0.00    -0.383 OA
BRANCH  17  21
ATOM     18  C   UNL     1      34.941 -19.734 -20.817  0.00  0.00    +0.057 C 
ATOM     19  C   UNL     1      33.663 -20.135 -20.430  0.00  0.00    +0.018 C 
ATOM     20  C   UNL     1      36.057 -20.461 -20.398  0.00  0.00    +0.018 C 
ATOM     21  C   UNL     1      34.616 -21.974 -19.215  0.00  0.00    +0.160 C 
ATOM     22  C   UNL     1      33.499 -21.261 -19.623  0.00  0.00    +0.040 C 
ATOM     23  C   UNL     1      35.892 -21.588 -19.592  0.00  0.00    +0.040 C 
BRANCH  18  24
ATOM     24  N   UNL     1      35.104 -18.618 -21.616  0.00  0.00    -0.246 N 
ATOM     25  N   UNL     1      35.075 -17.324 -23.431  0.00  0.00    -0.224 NA
ATOM     26  C   UNL     1      35.586 -17.395 -21.223  0.00  0.00    +0.092 C 
ATOM     27  C   UNL     1      34.811 -18.520 -22.953  0.00  0.00    +0.172 C 
ATOM     28  C   UNL     1      35.559 -16.618 -22.358  0.00  0.00    +0.117 C 
ENDBRANCH  18  24
ENDBRANCH  17  21
ENDBRANCH   4  17
TORSDOF 5
ENDMDL
MODEL 3
REMARK VINA RESULT:     -11.7      4.387      8.306
REMARK  Name = 9969613
REMARK  5 active torsions:
REMARK  status: ('A' for Active; 'I' for Inactive)
REMARK    1  A    between atoms: C_3  and  O_7
REMARK    2  A    between atoms: C_4  and  O_17
REMARK    3  A    between atoms: O_7  and  C_13
REMARK    4  A    between atoms: O_17  and  C_21
REMARK    5  A    between atoms: C_18  and  N_24
REMARK                            x       y       z     vdW  Elec       q    Type
REMARK                         _______ _______ _______ _____ _____    ______ ____
ROOT
ATOM      1  N   UNL     1      34.778 -23.033 -16.516  0.00  0.00    -0.283 NA
ATOM      2  N   UNL     1      32.387 -22.991 -16.818  0.00  0.00    -0.151 NA
ATOM      3  C   UNL     1      34.563 -22.894 -15.198  0.00  0.00    +0.296 C 
ATOM      4  C   UNL     1      33.656 -23.074 -17.261  0.00  0.00    +0.260 C 
ATOM      5  C   UNL     1      33.327 -22.798 -14.610  0.00  0.00    +0.094 C 
ATOM      6  C   UNL     1      32.258 -22.853 -15.481  0.00  0.00    +0.119 C 
ENDROOT
BRANCH   3   7
ATOM      7  O   UNL     1      35.688 -22.847 -14.391  0.00  0.00    -0.427 OA
BRANCH   7  13
ATOM      8  O   UNL     1      40.138 -24.679 -14.697  0.00  0.00    -0.435 OA
ATOM      9  O   UNL     1      39.302 -26.938 -14.682  0.00  0.00    -0.435 OA
ATOM     10  C   UNL     1      38.781 -24.726 -14.614  0.00  0.00    +0.179 C 
ATOM     11  C   UNL     1      38.302 -26.017 -14.604  0.00  0.00    +0.177 C 
ATOM     12  C   UNL     1      37.935 -23.639 -14.544  0.00  0.00    +0.078 C 
ATOM     13  C   UNL     1      36.562 -23.889 -14.462  0.00  0.00    +0.151 C 
ATOM     14  C   UNL     1      36.952 -26.291 -14.525  0.00  0.00    +0.043 C 
ATOM     15  C   UNL     1      40.461 -26.082 -14.740  0.00  0.00    +0.429 C 
ATOM     16  C   UNL     1      36.074 -25.207 -14.454  0.00  0.00    +0.041 C 
ENDBRANCH   7  13
ENDBRANCH   3   7
BRANCH   4  17
ATOM     17  O   UNL     1      33.825 -23.216 -18.619  0.00  0.00    -0.383 OA
BRANCH  17  21
ATOM     18  C   UNL     1      34.741 -19.793 -20.782  0.00  0.00    +0.057 C 
ATOM     19  C   UNL     1      33.410 -20.115 -20.516  0.00  0.00    +0.018 C 
ATOM     20  C   UNL     1      35.765 -20.622 -20.321  0.00  0.00    +0.018 C 
ATOM     21  C   UNL     1      34.130 -22.079 -19.337  0.00  0.00    +0.160 C 
ATOM     22  C   UNL     1      33.103 -21.265 -19.789  0.00  0.00    +0.040 C 
ATOM     23  C   UNL     1      35.457 -21.772 -19.594  0.00  0.00    +0.040 C 
BRANCH  18  24
ATOM     24  N   UNL     1      35.047 -18.653 -21.502  0.00  0.00    -0.246 N 
ATOM     25  N   UNL     1      35.249 -17.270 -23.238  0.00  0.00    -0.224 NA
ATOM     26  C   UNL     1      35.591 -17.495 -21.008  0.00  0.00    +0.092 C 
ATOM     27  C   UNL     1      34.861 -18.463 -22.848  0.00  0.00    +0.172 C 
ATOM     28  C   UNL     1      35.706 -16.661 -22.096  0.00  0.00    +0.117 C 
ENDBRANCH  18  24
ENDBRANCH  17  21
ENDBRANCH   4  17
TORSDOF 5
ENDMDL
MODEL 4
REMARK VINA RESULT:     -11.4      6.343     11.957
REMARK  Name = 9969613
REMARK  5 active torsions:
REMARK  status: ('A' for Active; 'I' for Inactive)
REMARK    1  A    between atoms: C_3  and  O_7
REMARK    2  A    between atoms: C_4  and  O_17
REMARK    3  A    between atoms: O_7  and  C_13
REMARK    4  A    between atoms: O_17  and  C_21
REMARK    5  A    between atoms: C_18  and  N_24
REMARK                            x       y       z     vdW  Elec       q    Type
REMARK                         _______ _______ _______ _____ _____    ______ ____
ROOT
ATOM      1  N   UNL     1      34.536 -23.194 -16.331  0.00  0.00    -0.283 NA
ATOM      2  N   UNL     1      32.899 -22.946 -14.580  0.00  0.00    -0.151 NA
ATOM      3  C   UNL     1      33.528 -23.121 -17.215  0.00  0.00    +0.296 C 
ATOM      4  C   UNL     1      34.154 -23.101 -15.043  0.00  0.00    +0.260 C 
ATOM      5  C   UNL     1      32.205 -22.965 -16.885  0.00  0.00    +0.094 C 
ATOM      6  C   UNL     1      31.944 -22.882 -15.533  0.00  0.00    +0.119 C 
ENDROOT
BRANCH   3   7
ATOM      7  O   UNL     1      33.873 -23.213 -18.553  0.00  0.00    -0.427 OA
BRANCH   7  13
ATOM      8  O   UNL     1      37.021 -19.947 -20.187  0.00  0.00    -0.435 OA
ATOM      9  O   UNL     1      35.264 -18.608 -21.149  0.00  0.00    -0.435 OA
ATOM     10  C   UNL     1      35.790 -20.488 -19.984  0.00  0.00    +0.179 C 
ATOM     11  C   UNL     1      34.785 -19.724 -20.534  0.00  0.00    +0.177 C 
ATOM     12  C   UNL     1      35.521 -21.663 -19.313  0.00  0.00    +0.078 C 
ATOM     13  C   UNL     1      34.186 -22.060 -19.206  0.00  0.00    +0.151 C 
ATOM     14  C   UNL     1      33.458 -20.092 -20.442  0.00  0.00    +0.043 C 
ATOM     15  C   UNL     1      36.681 -18.756 -20.925  0.00  0.00    +0.429 C 
ATOM     16  C   UNL     1      33.161 -21.279 -19.766  0.00  0.00    +0.041 C 
ENDBRANCH   7  13
ENDBRANCH   3   7
BRANCH   4  17
ATOM     17  O   UNL     1      35.152 -23.170 -14.099  0.00  0.00    -0.383 OA
BRANCH  17  21
ATOM     18  C   UNL     1      38.318 -25.741 -14.875  0.00  0.00    +0.057 C 
ATOM     19  C   UNL     1      38.561 -24.389 -14.631  0.00  0.00    +0.018 C 
ATOM     20  C   UNL     1      37.011 -26.229 -14.858  0.00  0.00    +0.018 C 
ATOM     21  C   UNL     1      36.203 -24.024 -14.357  0.00  0.00    +0.160 C 
ATOM     22  C   UNL     1      37.497 -23.526 -14.370  0.00  0.00    +0.040 C 
ATOM     23  C   UNL     1      35.947 -25.364 -14.597  0.00  0.00    +0.040 C 
BRANCH  18  24
ATOM     24  N   UNL     1      39.372 -26.598 -15.133  0.00  0.00    -0.246 N 
ATOM     25  N   UNL     1      41.382 -27.547 -14.969  0.00  0.00    -0.224 NA
ATOM     26  C   UNL     1      39.400 -27.600 -16.069  0.00  0.00    +0.092 C 
ATOM     27  C   UNL     1      40.588 -26.610 -14.500  0.00  0.00    +0.172 C 
ATOM     28  C   UNL     1      40.647 -28.168 -15.949  0.00  0.00    +0.117 C 
ENDBRANCH  18  24
ENDBRANCH  17  21
ENDBRANCH   4  17
TORSDOF 5
ENDMDL
MODEL 5
REMARK VINA RESULT:     -11.1      2.978      9.203
REMARK  Name = 9969613
REMARK  5 active torsions:
REMARK  status: ('A' for Active; 'I' for Inactive)
REMARK    1  A    between atoms: C_3  and  O_7
REMARK    2  A    between atoms: C_4  and  O_17
REMARK    3  A    between atoms: O_7  and  C_13
REMARK    4  A    between atoms: O_17  and  C_21
REMARK    5  A    between atoms: C_18  and  N_24
REMARK                            x       y       z     vdW  Elec       q    Type
REMARK                         _______ _______ _______ _____ _____    ______ ____
ROOT
ATOM      1  N   UNL     1      35.010 -15.344 -22.907  0.00  0.00    -0.283 NA
ATOM      2  N   UNL     1      34.612 -16.296 -25.085  0.00  0.00    -0.151 NA
ATOM      3  C   UNL     1      34.089 -14.413 -23.202  0.00  0.00    +0.296 C 
ATOM      4  C   UNL     1      35.221 -16.246 -23.885  0.00  0.00    +0.260 C 
ATOM      5  C   UNL     1      33.393 -14.343 -24.383  0.00  0.00    +0.094 C 
ATOM      6  C   UNL     1      33.700 -15.325 -25.302  0.00  0.00    +0.119 C 
ENDROOT
BRANCH   3   7
ATOM      7  O   UNL     1      33.838 -13.462 -22.226  0.00  0.00    -0.427 OA
BRANCH   7  13
ATOM      8  O   UNL     1      31.401  -9.308 -21.984  0.00  0.00    -0.435 OA
ATOM      9  O   UNL     1      32.696  -8.345 -23.773  0.00  0.00    -0.435 OA
ATOM     10  C   UNL     1      32.339 -10.168 -22.464  0.00  0.00    +0.179 C 
ATOM     11  C   UNL     1      33.080  -9.618 -23.486  0.00  0.00    +0.177 C 
ATOM     12  C   UNL     1      32.565 -11.454 -22.016  0.00  0.00    +0.078 C 
ATOM     13  C   UNL     1      33.578 -12.189 -22.635  0.00  0.00    +0.151 C 
ATOM     14  C   UNL     1      34.086 -10.323 -24.115  0.00  0.00    +0.043 C 
ATOM     15  C   UNL     1      31.633  -8.155 -22.817  0.00  0.00    +0.429 C 
ATOM     16  C   UNL     1      34.333 -11.628 -23.679  0.00  0.00    +0.041 C 
ENDBRANCH   7  13
ENDBRANCH   3   7
BRANCH   4  17
ATOM     17  O   UNL     1      36.156 -17.222 -23.629  0.00  0.00    -0.383 OA
BRANCH  17  21
ATOM     18  C   UNL     1      35.253 -19.984 -20.665  0.00  0.00    +0.057 C 
ATOM     19  C   UNL     1      36.501 -19.360 -20.680  0.00  0.00    +0.018 C 
ATOM     20  C   UNL     1      34.309 -19.679 -21.646  0.00  0.00    +0.018 C 
ATOM     21  C   UNL     1      35.856 -18.139 -22.645  0.00  0.00    +0.160 C 
ATOM     22  C   UNL     1      36.803 -18.432 -21.677  0.00  0.00    +0.040 C 
ATOM     23  C   UNL     1      34.612 -18.751 -22.642  0.00  0.00    +0.040 C 
BRANCH  18  24
ATOM     24  N   UNL     1      34.952 -20.904 -19.677  0.00  0.00    -0.246 N 
ATOM     25  N   UNL     1      35.251 -22.366 -18.022  0.00  0.00    -0.224 NA
ATOM     26  C   UNL     1      33.701 -21.340 -19.320  0.00  0.00    +0.092 C 
ATOM     27  C   UNL     1      35.847 -21.552 -18.865  0.00  0.00    +0.172 C 
ATOM     28  C   UNL     1      33.913 -22.239 -18.301  0.00  0.00    +0.117 C 
ENDBRANCH  18  24
ENDBRANCH  17  21
ENDBRANCH   4  17
TORSDOF 5
ENDMDL
MODEL 6
REMARK VINA RESULT:     -11.1      3.948      7.201
REMARK  Name = 9969613
REMARK  5 active torsions:
REMARK  status: ('A' for Active; 'I' for Inactive)
REMARK    1  A    between atoms: C_3  and  O_7
REMARK    2  A    between atoms: C_4  and  O_17
REMARK    3  A    between atoms: O_7  and  C_13
REMARK    4  A    between atoms: O_17  and  C_21
REMARK    5  A    between atoms: C_18  and  N_24
REMARK                            x       y       z     vdW  Elec       q    Type
REMARK                         _______ _______ _______ _____ _____    ______ ____
ROOT
ATOM      1  N   UNL     1      36.128 -22.032 -17.321  0.00  0.00    -0.283 NA
ATOM      2  N   UNL     1      34.612 -21.939 -19.192  0.00  0.00    -0.151 NA
ATOM      3  C   UNL     1      35.134 -22.584 -16.608  0.00  0.00    +0.296 C 
ATOM      4  C   UNL     1      35.802 -21.738 -18.594  0.00  0.00    +0.260 C 
ATOM      5  C   UNL     1      33.875 -22.846 -17.088  0.00  0.00    +0.094 C 
ATOM      6  C   UNL     1      33.667 -22.498 -18.406  0.00  0.00    +0.119 C 
ENDROOT
BRANCH   3   7
ATOM      7  O   UNL     1      35.422 -22.904 -15.291  0.00  0.00    -0.427 OA
BRANCH   7  13
ATOM      8  O   UNL     1      39.859 -24.527 -14.324  0.00  0.00    -0.435 OA
ATOM      9  O   UNL     1      39.123 -26.821 -14.369  0.00  0.00    -0.435 OA
ATOM     10  C   UNL     1      38.529 -24.638 -14.587  0.00  0.00    +0.179 C 
ATOM     11  C   UNL     1      38.107 -25.948 -14.612  0.00  0.00    +0.177 C 
ATOM     12  C   UNL     1      37.657 -23.591 -14.810  0.00  0.00    +0.078 C 
ATOM     13  C   UNL     1      36.319 -23.904 -15.066  0.00  0.00    +0.151 C 
ATOM     14  C   UNL     1      36.792 -26.283 -14.863  0.00  0.00    +0.043 C 
ATOM     15  C   UNL     1      40.229 -25.914 -14.187  0.00  0.00    +0.429 C 
ATOM     16  C   UNL     1      35.890 -25.242 -15.093  0.00  0.00    +0.041 C 
ENDBRANCH   7  13
ENDBRANCH   3   7
BRANCH   4  17
ATOM     17  O   UNL     1      36.789 -21.171 -19.366  0.00  0.00    -0.383 OA
BRANCH  17  21
ATOM     18  C   UNL     1      35.616 -18.319 -22.146  0.00  0.00    +0.057 C 
ATOM     19  C   UNL     1      34.731 -19.328 -21.766  0.00  0.00    +0.018 C 
ATOM     20  C   UNL     1      36.895 -18.268 -21.592  0.00  0.00    +0.018 C 
ATOM     21  C   UNL     1      36.399 -20.223 -20.289  0.00  0.00    +0.160 C 
ATOM     22  C   UNL     1      35.125 -20.286 -20.831  0.00  0.00    +0.040 C 
ATOM     23  C   UNL     1      37.289 -19.227 -20.658  0.00  0.00    +0.040 C 
BRANCH  18  24
ATOM     24  N   UNL     1      35.225 -17.369 -23.071  0.00  0.00    -0.246 N 
ATOM     25  N   UNL     1      34.408 -16.496 -24.952  0.00  0.00    -0.224 NA
ATOM     26  C   UNL     1      35.311 -16.007 -22.931  0.00  0.00    +0.092 C 
ATOM     27  C   UNL     1      34.675 -17.609 -24.305  0.00  0.00    +0.172 C 
ATOM     28  C   UNL     1      34.803 -15.494 -24.101  0.00  0.00    +0.117 C 
ENDBRANCH  18  24
ENDBRANCH  17  21
ENDBRANCH   4  17
TORSDOF 5
ENDMDL
MODEL 7
REMARK VINA RESULT:     -11.0      2.998      9.079
REMARK  Name = 9969613
REMARK  5 active torsions:
REMARK  status: ('A' for Active; 'I' for Inactive)
REMARK    1  A    between atoms: C_3  and  O_7
REMARK    2  A    between atoms: C_4  and  O_17
REMARK    3  A    between atoms: O_7  and  C_13
REMARK    4  A    between atoms: O_17  and  C_21
REMARK    5  A    between atoms: C_18  and  N_24
REMARK                            x       y       z     vdW  Elec       q    Type
REMARK                         _______ _______ _______ _____ _____    ______ ____
ROOT
ATOM      1  N   UNL     1      34.906 -15.245 -22.862  0.00  0.00    -0.283 NA
ATOM      2  N   UNL     1      34.454 -15.778 -25.169  0.00  0.00    -0.151 NA
ATOM      3  C   UNL     1      34.015 -14.246 -22.971  0.00  0.00    +0.296 C 
ATOM      4  C   UNL     1      35.075 -15.965 -23.988  0.00  0.00    +0.260 C 
ATOM      5  C   UNL     1      33.312 -13.943 -24.110  0.00  0.00    +0.094 C 
ATOM      6  C   UNL     1      33.575 -14.754 -25.195  0.00  0.00    +0.119 C 
ENDROOT
BRANCH   3   7
ATOM      7  O   UNL     1      33.808 -13.477 -21.838  0.00  0.00    -0.427 OA
BRANCH   7  13
ATOM      8  O   UNL     1      33.346  -9.114 -23.840  0.00  0.00    -0.435 OA
ATOM      9  O   UNL     1      31.365  -8.639 -22.552  0.00  0.00    -0.435 OA
ATOM     10  C   UNL     1      33.005 -10.143 -23.017  0.00  0.00    +0.179 C 
ATOM     11  C   UNL     1      31.873  -9.872 -22.282  0.00  0.00    +0.177 C 
ATOM     12  C   UNL     1      33.680 -11.340 -22.895  0.00  0.00    +0.078 C 
ATOM     13  C   UNL     1      33.176 -12.281 -21.993  0.00  0.00    +0.151 C 
ATOM     14  C   UNL     1      31.355 -10.783 -21.384  0.00  0.00    +0.043 C 
ATOM     15  C   UNL     1      32.303  -8.165 -23.540  0.00  0.00    +0.429 C 
ATOM     16  C   UNL     1      32.021 -12.003 -21.241  0.00  0.00    +0.041 C 
ENDBRANCH   7  13
ENDBRANCH   3   7
BRANCH   4  17
ATOM     17  O   UNL     1      35.977 -17.001 -23.925  0.00  0.00    -0.383 OA
BRANCH  17  21
ATOM     18  C   UNL     1      35.470 -19.773 -20.878  0.00  0.00    +0.057 C 
ATOM     19  C   UNL     1      36.673 -19.078 -20.995  0.00  0.00    +0.018 C 
ATOM     20  C   UNL     1      34.437 -19.537 -21.785  0.00  0.00    +0.018 C 
ATOM     21  C   UNL     1      35.808 -17.921 -22.913  0.00  0.00    +0.160 C 
ATOM     22  C   UNL     1      36.843 -18.146 -22.019  0.00  0.00    +0.040 C 
ATOM     23  C   UNL     1      34.607 -18.605 -22.809  0.00  0.00    +0.040 C 
BRANCH  18  24
ATOM     24  N   UNL     1      35.300 -20.697 -19.863  0.00  0.00    -0.246 N 
ATOM     25  N   UNL     1      35.805 -22.071 -18.182  0.00  0.00    -0.224 NA
ATOM     26  C   UNL     1      34.118 -21.269 -19.467  0.00  0.00    +0.092 C 
ATOM     27  C   UNL     1      36.283 -21.214 -19.057  0.00  0.00    +0.172 C 
ATOM     28  C   UNL     1      34.456 -22.110 -18.432  0.00  0.00    +0.117 C 
ENDBRANCH  18  24
ENDBRANCH  17  21
ENDBRANCH   4  17
TORSDOF 5
ENDMDL
MODEL 8
REMARK VINA RESULT:     -11.0      2.774      8.433
REMARK  Name = 9969613
REMARK  5 active torsions:
REMARK  status: ('A' for Active; 'I' for Inactive)
REMARK    1  A    between atoms: C_3  and  O_7
REMARK    2  A    between atoms: C_4  and  O_17
REMARK    3  A    between atoms: O_7  and  C_13
REMARK    4  A    between atoms: O_17  and  C_21
REMARK    5  A    between atoms: C_18  and  N_24
REMARK                            x       y       z     vdW  Elec       q    Type
REMARK                         _______ _______ _______ _____ _____    ______ ____
ROOT
ATOM      1  N   UNL     1      35.963 -16.459 -22.838  0.00  0.00    -0.283 NA
ATOM      2  N   UNL     1      34.995 -18.341 -23.991  0.00  0.00    -0.151 NA
ATOM      3  C   UNL     1      35.219 -15.661 -23.621  0.00  0.00    +0.296 C 
ATOM      4  C   UNL     1      35.804 -17.775 -23.074  0.00  0.00    +0.260 C 
ATOM      5  C   UNL     1      34.355 -16.101 -24.593  0.00  0.00    +0.094 C 
ATOM      6  C   UNL     1      34.282 -17.471 -24.737  0.00  0.00    +0.119 C 
ENDROOT
BRANCH   3   7
ATOM      7  O   UNL     1      35.349 -14.298 -23.416  0.00  0.00    -0.427 OA
BRANCH   7  13
ATOM      8  O   UNL     1      32.181 -10.775 -22.519  0.00  0.00    -0.435 OA
ATOM      9  O   UNL     1      31.587 -11.733 -20.390  0.00  0.00    -0.435 OA
ATOM     10  C   UNL     1      32.870 -11.918 -22.257  0.00  0.00    +0.179 C 
ATOM     11  C   UNL     1      32.531 -12.467 -21.041  0.00  0.00    +0.177 C 
ATOM     12  C   UNL     1      33.810 -12.504 -23.080  0.00  0.00    +0.078 C 
ATOM     13  C   UNL     1      34.415 -13.684 -22.638  0.00  0.00    +0.151 C 
ATOM     14  C   UNL     1      33.114 -13.630 -20.581  0.00  0.00    +0.043 C 
ATOM     15  C   UNL     1      31.370 -10.664 -21.332  0.00  0.00    +0.429 C 
ATOM     16  C   UNL     1      34.070 -14.242 -21.395  0.00  0.00    +0.041 C 
ENDBRANCH   7  13
ENDBRANCH   3   7
BRANCH   4  17
ATOM     17  O   UNL     1      36.545 -18.633 -22.296  0.00  0.00    -0.383 OA
BRANCH  17  21
ATOM     18  C   UNL     1      34.485 -20.935 -19.523  0.00  0.00    +0.057 C 
ATOM     19  C   UNL     1      35.880 -20.938 -19.533  0.00  0.00    +0.018 C 
ATOM     20  C   UNL     1      33.782 -20.158 -20.444  0.00  0.00    +0.018 C 
ATOM     21  C   UNL     1      35.861 -19.397 -21.375  0.00  0.00    +0.160 C 
ATOM     22  C   UNL     1      36.572 -20.164 -20.465  0.00  0.00    +0.040 C 
ATOM     23  C   UNL     1      34.475 -19.385 -21.376  0.00  0.00    +0.040 C 
BRANCH  18  24
ATOM     24  N   UNL     1      33.798 -21.701 -18.599  0.00  0.00    -0.246 N 
ATOM     25  N   UNL     1      32.094 -22.537 -17.431  0.00  0.00    -0.224 NA
ATOM     26  C   UNL     1      34.339 -22.619 -17.735  0.00  0.00    +0.092 C 
ATOM     27  C   UNL     1      32.445 -21.692 -18.375  0.00  0.00    +0.172 C 
ATOM     28  C   UNL     1      33.270 -23.118 -17.027  0.00  0.00    +0.117 C 
ENDBRANCH  18  24
ENDBRANCH  17  21
ENDBRANCH   4  17
TORSDOF 5
ENDMDL
MODEL 9
REMARK VINA RESULT:     -10.8      4.024      9.787
REMARK  Name = 9969613
REMARK  5 active torsions:
REMARK  status: ('A' for Active; 'I' for Inactive)
REMARK    1  A    between atoms: C_3  and  O_7
REMARK    2  A    between atoms: C_4  and  O_17
REMARK    3  A    between atoms: O_7  and  C_13
REMARK    4  A    between atoms: O_17  and  C_21
REMARK    5  A    between atoms: C_18  and  N_24
REMARK                            x       y       z     vdW  Elec       q    Type
REMARK                         _______ _______ _______ _____ _____    ______ ____
ROOT
ATOM      1  N   UNL     1      36.009 -20.334 -20.018  0.00  0.00    -0.283 NA
ATOM      2  N   UNL     1      33.792 -21.163 -19.563  0.00  0.00    -0.151 NA
ATOM      3  C   UNL     1      35.454 -19.467 -20.879  0.00  0.00    +0.296 C 
ATOM      4  C   UNL     1      35.129 -21.145 -19.401  0.00  0.00    +0.260 C 
ATOM      5  C   UNL     1      34.110 -19.374 -21.143  0.00  0.00    +0.094 C 
ATOM      6  C   UNL     1      33.314 -20.259 -20.446  0.00  0.00    +0.119 C 
ENDROOT
BRANCH   3   7
ATOM      7  O   UNL     1      36.320 -18.611 -21.540  0.00  0.00    -0.427 OA
BRANCH   7  13
ATOM      8  O   UNL     1      34.723 -14.288 -22.958  0.00  0.00    -0.435 OA
ATOM      9  O   UNL     1      34.198 -15.110 -25.162  0.00  0.00    -0.435 OA
ATOM     10  C   UNL     1      35.018 -15.609 -23.101  0.00  0.00    +0.179 C 
ATOM     11  C   UNL     1      34.719 -16.079 -24.360  0.00  0.00    +0.177 C 
ATOM     12  C   UNL     1      35.555 -16.428 -22.130  0.00  0.00    +0.078 C 
ATOM     13  C   UNL     1      35.790 -17.765 -22.465  0.00  0.00    +0.151 C 
ATOM     14  C   UNL     1      34.940 -17.393 -24.716  0.00  0.00    +0.043 C 
ATOM     15  C   UNL     1      34.205 -13.979 -24.267  0.00  0.00    +0.429 C 
ATOM     16  C   UNL     1      35.484 -18.244 -23.750  0.00  0.00    +0.041 C 
ENDBRANCH   7  13
ENDBRANCH   3   7
BRANCH   4  17
ATOM     17  O   UNL     1      35.651 -22.052 -18.508  0.00  0.00    -0.383 OA
BRANCH  17  21
ATOM     18  C   UNL     1      33.169 -23.329 -15.435  0.00  0.00    +0.057 C 
ATOM     19  C   UNL     1      34.474 -22.926 -15.155  0.00  0.00    +0.018 C 
ATOM     20  C   UNL     1      32.697 -23.303 -16.748  0.00  0.00    +0.018 C 
ATOM     21  C   UNL     1      34.826 -22.476 -17.487  0.00  0.00    +0.160 C 
ATOM     22  C   UNL     1      35.308 -22.496 -16.188  0.00  0.00    +0.040 C 
ATOM     23  C   UNL     1      33.531 -22.874 -17.780  0.00  0.00    +0.040 C 
BRANCH  18  24
ATOM     24  N   UNL     1      32.341 -23.755 -14.412  0.00  0.00    -0.246 N 
ATOM     25  N   UNL     1      31.593 -24.963 -12.695  0.00  0.00    -0.224 NA
ATOM     26  C   UNL     1      31.143 -23.198 -14.045  0.00  0.00    +0.092 C 
ATOM     27  C   UNL     1      32.565 -24.812 -13.567  0.00  0.00    +0.172 C 
ATOM     28  C   UNL     1      30.703 -23.960 -12.988  0.00  0.00    +0.117 C 
ENDBRANCH  18  24
ENDBRANCH  17  21
ENDBRANCH   4  17
TORSDOF 5
ENDMDL
