MODEL 1
REMARK VINA RESULT:     -11.6      0.000      0.000
REMARK  Name = 23586145
REMARK  7 active torsions:
REMARK  status: ('A' for Active; 'I' for Inactive)
REMARK    1  A    between atoms: C_5  and  O_24
REMARK    2  A    between atoms: C_7  and  N_10
REMARK    3  A    between atoms: N_10  and  C_12
REMARK    4  A    between atoms: C_15  and  S_18
REMARK    5  A    between atoms: S_18  and  N_21
REMARK    6  A    between atoms: O_24  and  C_25
REMARK    7  A    between atoms: C_25  and  C_26
REMARK                            x       y       z     vdW  Elec       q    Type
REMARK                         _______ _______ _______ _____ _____    ______ ____
ROOT
ATOM      1  N   UNL     1      32.577 -23.129 -14.247  0.00  0.00    -0.299 NA
ATOM      2  N   UNL     1      31.643 -22.684 -16.418  0.00  0.00    -0.106 N 
ATOM      3  N   UNL     1      30.421 -22.448 -16.963  0.00  0.00    -0.139 NA
ATOM      4  N   UNL     1      30.223 -22.763 -14.716  0.00  0.00    -0.145 NA
ATOM      5  C   UNL     1      33.717 -23.180 -14.856  0.00  0.00    +0.291 C 
ATOM      6  C   UNL     1      33.980 -22.994 -16.300  0.00  0.00    +0.105 C 
ATOM      7  C   UNL     1      32.893 -22.745 -17.053  0.00  0.00    +0.142 C 
ATOM      8  C   UNL     1      31.496 -22.874 -15.039  0.00  0.00    +0.178 C 
ATOM      9  C   UNL     1      29.619 -22.508 -15.905  0.00  0.00    +0.230 C 
ENDROOT
BRANCH   7  10
ATOM     10  N   UNL     1      32.928 -22.544 -18.402  0.00  0.00    -0.299 N 
ATOM     11  H   UNL     1      32.315 -23.101 -18.935  0.00  0.00    +0.153 HD
BRANCH  10  12
ATOM     12  C   UNL     1      33.723 -21.649 -19.128  0.00  0.00    +0.049 C 
ATOM     13  C   UNL     1      35.120 -21.722 -19.054  0.00  0.00    +0.016 C 
ATOM     14  C   UNL     1      33.131 -20.671 -19.936  0.00  0.00    +0.016 C 
ATOM     15  C   UNL     1      35.314 -19.858 -20.579  0.00  0.00    +0.122 C 
ATOM     16  C   UNL     1      35.912 -20.830 -19.777  0.00  0.00    +0.021 C 
ATOM     17  C   UNL     1      33.923 -19.779 -20.660  0.00  0.00    +0.021 C 
BRANCH  15  18
ATOM     18  S   UNL     1      36.306 -18.742 -21.484  0.00  0.00    +0.057 S 
ATOM     19  O   UNL     1      37.669 -18.826 -20.981  0.00  0.00    -0.153 OA
ATOM     20  O   UNL     1      36.045 -18.938 -22.904  0.00  0.00    -0.153 OA
BRANCH  18  21
ATOM     21  N   UNL     1      35.631 -17.247 -21.005  0.00  0.00    -0.203 NA
ATOM     22  H   UNL     1      35.940 -17.023 -20.059  0.00  0.00    +0.144 HD
ATOM     23  H   UNL     1      34.614 -17.311 -21.024  0.00  0.00    +0.144 HD
ENDBRANCH  18  21
ENDBRANCH  15  18
ENDBRANCH  10  12
ENDBRANCH   7  10
BRANCH   5  24
ATOM     24  O   UNL     1      34.828 -23.423 -14.169  0.00  0.00    -0.451 OA
BRANCH  24  25
ATOM     25  C   UNL     1      36.026 -22.985 -14.782  0.00  0.00    +0.208 C 
BRANCH  25  26
ATOM     26  C   UNL     1      37.200 -23.701 -14.117  0.00  0.00    +0.044 C 
ATOM     27  C   UNL     1      37.209 -23.436 -12.605  0.00  0.00    +0.004 C 
ATOM     28  C   UNL     1      37.154 -25.206 -14.408  0.00  0.00    +0.004 C 
ATOM     29  C   UNL     1      38.345 -24.183 -11.909  0.00  0.00    +0.000 C 
ATOM     30  C   UNL     1      38.290 -25.951 -13.708  0.00  0.00    +0.000 C 
ATOM     31  C   UNL     1      38.300 -25.678 -12.208  0.00  0.00    +0.000 C 
ENDBRANCH  25  26
ENDBRANCH  24  25
ENDBRANCH   5  24
TORSDOF 7
ENDMDL
MODEL 2
REMARK VINA RESULT:     -11.6      3.494      7.267
REMARK  Name = 23586145
REMARK  7 active torsions:
REMARK  status: ('A' for Active; 'I' for Inactive)
REMARK    1  A    between atoms: C_5  and  O_24
REMARK    2  A    between atoms: C_7  and  N_10
REMARK    3  A    between atoms: N_10  and  C_12
REMARK    4  A    between atoms: C_15  and  S_18
REMARK    5  A    between atoms: S_18  and  N_21
REMARK    6  A    between atoms: O_24  and  C_25
REMARK    7  A    between atoms: C_25  and  C_26
REMARK                            x       y       z     vdW  Elec       q    Type
REMARK                         _______ _______ _______ _____ _____    ______ ____
ROOT
ATOM      1  N   UNL     1      31.753 -23.340 -16.134  0.00  0.00    -0.299 NA
ATOM      2  N   UNL     1      32.562 -24.317 -14.091  0.00  0.00    -0.106 N 
ATOM      3  N   UNL     1      32.046 -24.820 -12.939  0.00  0.00    -0.139 NA
ATOM      4  N   UNL     1      30.363 -24.112 -14.300  0.00  0.00    -0.145 NA
ATOM      5  C   UNL     1      33.000 -23.248 -16.468  0.00  0.00    +0.291 C 
ATOM      6  C   UNL     1      34.180 -23.668 -15.682  0.00  0.00    +0.105 C 
ATOM      7  C   UNL     1      33.905 -24.205 -14.480  0.00  0.00    +0.142 C 
ATOM      8  C   UNL     1      31.510 -23.889 -14.909  0.00  0.00    +0.178 C 
ATOM      9  C   UNL     1      30.738 -24.672 -13.121  0.00  0.00    +0.230 C 
ENDROOT
BRANCH   7  10
ATOM     10  N   UNL     1      34.855 -24.654 -13.607  0.00  0.00    -0.299 N 
ATOM     11  H   UNL     1      34.548 -24.816 -12.686  0.00  0.00    +0.153 HD
BRANCH  10  12
ATOM     12  C   UNL     1      36.209 -24.911 -13.853  0.00  0.00    +0.049 C 
ATOM     13  C   UNL     1      37.199 -24.096 -13.290  0.00  0.00    +0.016 C 
ATOM     14  C   UNL     1      36.589 -25.986 -14.666  0.00  0.00    +0.016 C 
ATOM     15  C   UNL     1      38.917 -25.426 -14.347  0.00  0.00    +0.122 C 
ATOM     16  C   UNL     1      38.548 -24.353 -13.536  0.00  0.00    +0.021 C 
ATOM     17  C   UNL     1      37.937 -26.243 -14.912  0.00  0.00    +0.021 C 
BRANCH  15  18
ATOM     18  S   UNL     1      40.606 -25.747 -14.654  0.00  0.00    +0.057 S 
ATOM     19  O   UNL     1      41.306 -24.474 -14.748  0.00  0.00    -0.153 OA
ATOM     20  O   UNL     1      41.064 -26.757 -13.710  0.00  0.00    -0.153 OA
BRANCH  18  21
ATOM     21  N   UNL     1      40.524 -26.448 -16.211  0.00  0.00    -0.203 NA
ATOM     22  H   UNL     1      41.469 -26.589 -16.569  0.00  0.00    +0.144 HD
ATOM     23  H   UNL     1      40.012 -25.828 -16.837  0.00  0.00    +0.144 HD
ENDBRANCH  18  21
ENDBRANCH  15  18
ENDBRANCH  10  12
ENDBRANCH   7  10
BRANCH   5  24
ATOM     24  O   UNL     1      33.337 -22.726 -17.643  0.00  0.00    -0.451 OA
BRANCH  24  25
ATOM     25  C   UNL     1      34.712 -22.432 -17.801  0.00  0.00    +0.208 C 
BRANCH  25  26
ATOM     26  C   UNL     1      34.910 -21.751 -19.154  0.00  0.00    +0.044 C 
ATOM     27  C   UNL     1      33.710 -20.853 -19.489  0.00  0.00    +0.004 C 
ATOM     28  C   UNL     1      36.216 -20.947 -19.171  0.00  0.00    +0.004 C 
ATOM     29  C   UNL     1      33.908 -20.121 -20.815  0.00  0.00    +0.000 C 
ATOM     30  C   UNL     1      36.409 -20.214 -20.498  0.00  0.00    +0.000 C 
ATOM     31  C   UNL     1      35.212 -19.330 -20.831  0.00  0.00    +0.000 C 
ENDBRANCH  25  26
ENDBRANCH  24  25
ENDBRANCH   5  24
TORSDOF 7
ENDMDL
MODEL 3
REMARK VINA RESULT:     -11.5      3.984      7.315
REMARK  Name = 23586145
REMARK  7 active torsions:
REMARK  status: ('A' for Active; 'I' for Inactive)
REMARK    1  A    between atoms: C_5  and  O_24
REMARK    2  A    between atoms: C_7  and  N_10
REMARK    3  A    between atoms: N_10  and  C_12
REMARK    4  A    between atoms: C_15  and  S_18
REMARK    5  A    between atoms: S_18  and  N_21
REMARK    6  A    between atoms: O_24  and  C_25
REMARK    7  A    between atoms: C_25  and  C_26
REMARK                            x       y       z     vdW  Elec       q    Type
REMARK                         _______ _______ _______ _____ _____    ______ ____
ROOT
ATOM      1  N   UNL     1      37.343 -23.466 -13.550  0.00  0.00    -0.299 NA
ATOM      2  N   UNL     1      35.430 -24.242 -12.316  0.00  0.00    -0.106 N 
ATOM      3  N   UNL     1      35.097 -24.495 -11.023  0.00  0.00    -0.139 NA
ATOM      4  N   UNL     1      37.249 -23.760 -11.142  0.00  0.00    -0.145 NA
ATOM      5  C   UNL     1      36.597 -23.602 -14.599  0.00  0.00    +0.291 C 
ATOM      6  C   UNL     1      35.194 -24.066 -14.658  0.00  0.00    +0.105 C 
ATOM      7  C   UNL     1      34.645 -24.380 -13.471  0.00  0.00    +0.142 C 
ATOM      8  C   UNL     1      36.755 -23.793 -12.363  0.00  0.00    +0.178 C 
ATOM      9  C   UNL     1      36.216 -24.190 -10.374  0.00  0.00    +0.230 C 
ENDROOT
BRANCH   7  10
ATOM     10  N   UNL     1      33.364 -24.825 -13.315  0.00  0.00    -0.299 N 
ATOM     11  H   UNL     1      33.240 -25.557 -12.668  0.00  0.00    +0.153 HD
BRANCH  10  12
ATOM     12  C   UNL     1      32.204 -24.377 -13.957  0.00  0.00    +0.049 C 
ATOM     13  C   UNL     1      32.148 -23.088 -14.502  0.00  0.00    +0.016 C 
ATOM     14  C   UNL     1      31.085 -25.213 -14.062  0.00  0.00    +0.016 C 
ATOM     15  C   UNL     1      29.881 -23.481 -15.241  0.00  0.00    +0.122 C 
ATOM     16  C   UNL     1      30.991 -22.642 -15.141  0.00  0.00    +0.021 C 
ATOM     17  C   UNL     1      29.928 -24.767 -14.701  0.00  0.00    +0.021 C 
BRANCH  15  18
ATOM     18  S   UNL     1      28.434 -22.922 -16.042  0.00  0.00    +0.057 S 
ATOM     19  O   UNL     1      27.399 -22.727 -15.036  0.00  0.00    -0.153 OA
ATOM     20  O   UNL     1      28.791 -21.828 -16.933  0.00  0.00    -0.153 OA
BRANCH  18  21
ATOM     21  N   UNL     1      28.036 -24.291 -16.985  0.00  0.00    -0.203 NA
ATOM     22  H   UNL     1      27.030 -24.305 -17.155  0.00  0.00    +0.144 HD
ATOM     23  H   UNL     1      28.309 -25.137 -16.488  0.00  0.00    +0.144 HD
ENDBRANCH  18  21
ENDBRANCH  15  18
ENDBRANCH  10  12
ENDBRANCH   7  10
BRANCH   5  24
ATOM     24  O   UNL     1      37.082 -23.309 -15.802  0.00  0.00    -0.451 OA
BRANCH  24  25
ATOM     25  C   UNL     1      36.827 -21.991 -16.250  0.00  0.00    +0.208 C 
BRANCH  25  26
ATOM     26  C   UNL     1      36.223 -22.064 -17.651  0.00  0.00    +0.044 C 
ATOM     27  C   UNL     1      34.690 -22.113 -17.577  0.00  0.00    +0.004 C 
ATOM     28  C   UNL     1      36.690 -20.879 -18.506  0.00  0.00    +0.004 C 
ATOM     29  C   UNL     1      34.059 -22.135 -18.969  0.00  0.00    +0.000 C 
ATOM     30  C   UNL     1      36.056 -20.902 -19.896  0.00  0.00    +0.000 C 
ATOM     31  C   UNL     1      34.534 -20.960 -19.818  0.00  0.00    +0.000 C 
ENDBRANCH  25  26
ENDBRANCH  24  25
ENDBRANCH   5  24
TORSDOF 7
ENDMDL
MODEL 4
REMARK VINA RESULT:     -11.3      3.455      7.475
REMARK  Name = 23586145
REMARK  7 active torsions:
REMARK  status: ('A' for Active; 'I' for Inactive)
REMARK    1  A    between atoms: C_5  and  O_24
REMARK    2  A    between atoms: C_7  and  N_10
REMARK    3  A    between atoms: N_10  and  C_12
REMARK    4  A    between atoms: C_15  and  S_18
REMARK    5  A    between atoms: S_18  and  N_21
REMARK    6  A    between atoms: O_24  and  C_25
REMARK    7  A    between atoms: C_25  and  C_26
REMARK                            x       y       z     vdW  Elec       q    Type
REMARK                         _______ _______ _______ _____ _____    ______ ____
ROOT
ATOM      1  N   UNL     1      32.389 -22.062 -18.004  0.00  0.00    -0.299 NA
ATOM      2  N   UNL     1      32.535 -23.237 -15.911  0.00  0.00    -0.106 N 
ATOM      3  N   UNL     1      31.699 -23.641 -14.919  0.00  0.00    -0.139 NA
ATOM      4  N   UNL     1      30.519 -22.553 -16.535  0.00  0.00    -0.145 NA
ATOM      5  C   UNL     1      33.669 -22.238 -18.079  0.00  0.00    +0.291 C 
ATOM      6  C   UNL     1      34.547 -22.922 -17.104  0.00  0.00    +0.105 C 
ATOM      7  C   UNL     1      33.923 -23.412 -16.018  0.00  0.00    +0.142 C 
ATOM      8  C   UNL     1      31.788 -22.572 -16.891  0.00  0.00    +0.178 C 
ATOM      9  C   UNL     1      30.518 -23.207 -15.346  0.00  0.00    +0.230 C 
ENDROOT
BRANCH   7  10
ATOM     10  N   UNL     1      34.557 -24.076 -15.007  0.00  0.00    -0.299 N 
ATOM     11  H   UNL     1      33.994 -24.322 -14.238  0.00  0.00    +0.153 HD
BRANCH  10  12
ATOM     12  C   UNL     1      35.903 -24.450 -14.923  0.00  0.00    +0.049 C 
ATOM     13  C   UNL     1      36.272 -25.798 -15.015  0.00  0.00    +0.016 C 
ATOM     14  C   UNL     1      36.897 -23.479 -14.745  0.00  0.00    +0.016 C 
ATOM     15  C   UNL     1      38.597 -25.196 -14.753  0.00  0.00    +0.122 C 
ATOM     16  C   UNL     1      37.613 -26.169 -14.931  0.00  0.00    +0.021 C 
ATOM     17  C   UNL     1      38.239 -23.851 -14.660  0.00  0.00    +0.021 C 
BRANCH  15  18
ATOM     18  S   UNL     1      40.277 -25.662 -14.648  0.00  0.00    +0.057 S 
ATOM     19  O   UNL     1      41.092 -24.457 -14.704  0.00  0.00    -0.153 OA
ATOM     20  O   UNL     1      40.431 -26.588 -13.535  0.00  0.00    -0.153 OA
BRANCH  18  21
ATOM     21  N   UNL     1      40.467 -26.526 -16.110  0.00  0.00    -0.203 NA
ATOM     22  H   UNL     1      41.333 -26.237 -16.564  0.00  0.00    +0.144 HD
ATOM     23  H   UNL     1      39.678 -26.329 -16.725  0.00  0.00    +0.144 HD
ENDBRANCH  18  21
ENDBRANCH  15  18
ENDBRANCH  10  12
ENDBRANCH   7  10
BRANCH   5  24
ATOM     24  O   UNL     1      34.344 -21.776 -19.127  0.00  0.00    -0.451 OA
BRANCH  24  25
ATOM     25  C   UNL     1      33.620 -20.902 -19.973  0.00  0.00    +0.208 C 
BRANCH  25  26
ATOM     26  C   UNL     1      34.565 -19.802 -20.456  0.00  0.00    +0.044 C 
ATOM     27  C   UNL     1      36.028 -20.235 -20.289  0.00  0.00    +0.004 C 
ATOM     28  C   UNL     1      34.267 -19.434 -21.915  0.00  0.00    +0.004 C 
ATOM     29  C   UNL     1      36.993 -19.172 -20.813  0.00  0.00    +0.000 C 
ATOM     30  C   UNL     1      35.235 -18.373 -22.437  0.00  0.00    +0.000 C 
ATOM     31  C   UNL     1      36.688 -18.802 -22.261  0.00  0.00    +0.000 C 
ENDBRANCH  25  26
ENDBRANCH  24  25
ENDBRANCH   5  24
TORSDOF 7
ENDMDL
MODEL 5
REMARK VINA RESULT:     -10.7      3.630      7.712
REMARK  Name = 23586145
REMARK  7 active torsions:
REMARK  status: ('A' for Active; 'I' for Inactive)
REMARK    1  A    between atoms: C_5  and  O_24
REMARK    2  A    between atoms: C_7  and  N_10
REMARK    3  A    between atoms: N_10  and  C_12
REMARK    4  A    between atoms: C_15  and  S_18
REMARK    5  A    between atoms: S_18  and  N_21
REMARK    6  A    between atoms: O_24  and  C_25
REMARK    7  A    between atoms: C_25  and  C_26
REMARK                            x       y       z     vdW  Elec       q    Type
REMARK                         _______ _______ _______ _____ _____    ______ ____
ROOT
ATOM      1  N   UNL     1      37.666 -22.736 -16.059  0.00  0.00    -0.299 NA
ATOM      2  N   UNL     1      36.315 -23.517 -14.228  0.00  0.00    -0.106 N 
ATOM      3  N   UNL     1      36.492 -24.169 -13.049  0.00  0.00    -0.139 NA
ATOM      4  N   UNL     1      38.497 -23.899 -14.096  0.00  0.00    -0.145 NA
ATOM      5  C   UNL     1      36.555 -22.308 -16.566  0.00  0.00    +0.291 C 
ATOM      6  C   UNL     1      35.197 -22.419 -15.992  0.00  0.00    +0.105 C 
ATOM      7  C   UNL     1      35.127 -23.042 -14.803  0.00  0.00    +0.142 C 
ATOM      8  C   UNL     1      37.560 -23.363 -14.852  0.00  0.00    +0.178 C 
ATOM      9  C   UNL     1      37.806 -24.369 -13.026  0.00  0.00    +0.230 C 
ENDROOT
BRANCH   7  10
ATOM     10  N   UNL     1      33.967 -23.244 -14.112  0.00  0.00    -0.299 N 
ATOM     11  H   UNL     1      34.069 -23.501 -13.167  0.00  0.00    +0.153 HD
BRANCH  10  12
ATOM     12  C   UNL     1      32.650 -23.133 -14.573  0.00  0.00    +0.049 C 
ATOM     13  C   UNL     1      32.391 -22.929 -15.934  0.00  0.00    +0.016 C 
ATOM     14  C   UNL     1      31.576 -23.224 -13.679  0.00  0.00    +0.016 C 
ATOM     15  C   UNL     1      30.014 -22.911 -15.496  0.00  0.00    +0.122 C 
ATOM     16  C   UNL     1      31.078 -22.819 -16.393  0.00  0.00    +0.021 C 
ATOM     17  C   UNL     1      30.263 -23.114 -14.138  0.00  0.00    +0.021 C 
BRANCH  15  18
ATOM     18  S   UNL     1      28.372 -22.773 -16.071  0.00  0.00    +0.057 S 
ATOM     19  O   UNL     1      27.481 -22.765 -14.919  0.00  0.00    -0.153 OA
ATOM     20  O   UNL     1      28.311 -21.687 -17.040  0.00  0.00    -0.153 OA
BRANCH  18  21
ATOM     21  N   UNL     1      28.192 -24.257 -16.899  0.00  0.00    -0.203 NA
ATOM     22  H   UNL     1      27.770 -24.087 -17.812  0.00  0.00    +0.144 HD
ATOM     23  H   UNL     1      27.592 -24.877 -16.357  0.00  0.00    +0.144 HD
ENDBRANCH  18  21
ENDBRANCH  15  18
ENDBRANCH  10  12
ENDBRANCH   7  10
BRANCH   5  24
ATOM     24  O   UNL     1      36.558 -21.684 -17.740  0.00  0.00    -0.451 OA
BRANCH  24  25
ATOM     25  C   UNL     1      35.411 -21.901 -18.541  0.00  0.00    +0.208 C 
BRANCH  25  26
ATOM     26  C   UNL     1      35.561 -21.094 -19.829  0.00  0.00    +0.044 C 
ATOM     27  C   UNL     1      34.248 -20.378 -20.175  0.00  0.00    +0.004 C 
ATOM     28  C   UNL     1      36.715 -20.090 -19.709  0.00  0.00    +0.004 C 
ATOM     29  C   UNL     1      34.387 -19.522 -21.433  0.00  0.00    +0.000 C 
ATOM     30  C   UNL     1      36.850 -19.233 -20.967  0.00  0.00    +0.000 C 
ATOM     31  C   UNL     1      35.541 -18.531 -21.313  0.00  0.00    +0.000 C 
ENDBRANCH  25  26
ENDBRANCH  24  25
ENDBRANCH   5  24
TORSDOF 7
ENDMDL
MODEL 6
REMARK VINA RESULT:     -10.7      2.097      5.828
REMARK  Name = 23586145
REMARK  7 active torsions:
REMARK  status: ('A' for Active; 'I' for Inactive)
REMARK    1  A    between atoms: C_5  and  O_24
REMARK    2  A    between atoms: C_7  and  N_10
REMARK    3  A    between atoms: N_10  and  C_12
REMARK    4  A    between atoms: C_15  and  S_18
REMARK    5  A    between atoms: S_18  and  N_21
REMARK    6  A    between atoms: O_24  and  C_25
REMARK    7  A    between atoms: C_25  and  C_26
REMARK                            x       y       z     vdW  Elec       q    Type
REMARK                         _______ _______ _______ _____ _____    ______ ____
ROOT
ATOM      1  N   UNL     1      32.832 -22.997 -14.222  0.00  0.00    -0.299 NA
ATOM      2  N   UNL     1      34.394 -23.114 -16.047  0.00  0.00    -0.106 N 
ATOM      3  N   UNL     1      35.734 -23.261 -16.222  0.00  0.00    -0.139 NA
ATOM      4  N   UNL     1      35.233 -23.277 -14.000  0.00  0.00    -0.145 NA
ATOM      5  C   UNL     1      31.926 -22.863 -15.137  0.00  0.00    +0.291 C 
ATOM      6  C   UNL     1      32.117 -22.837 -16.603  0.00  0.00    +0.105 C 
ATOM      7  C   UNL     1      33.390 -22.968 -17.017  0.00  0.00    +0.142 C 
ATOM      8  C   UNL     1      34.112 -23.127 -14.676  0.00  0.00    +0.178 C 
ATOM      9  C   UNL     1      36.177 -23.353 -14.972  0.00  0.00    +0.230 C 
ENDROOT
BRANCH   7  10
ATOM     10  N   UNL     1      33.773 -22.969 -18.327  0.00  0.00    -0.299 N 
ATOM     11  H   UNL     1      33.658 -23.822 -18.806  0.00  0.00    +0.153 HD
BRANCH  10  12
ATOM     12  C   UNL     1      34.309 -21.916 -19.077  0.00  0.00    +0.049 C 
ATOM     13  C   UNL     1      33.465 -21.023 -19.749  0.00  0.00    +0.016 C 
ATOM     14  C   UNL     1      35.696 -21.743 -19.164  0.00  0.00    +0.016 C 
ATOM     15  C   UNL     1      35.382 -19.808 -20.578  0.00  0.00    +0.122 C 
ATOM     16  C   UNL     1      33.999 -19.973 -20.496  0.00  0.00    +0.021 C 
ATOM     17  C   UNL     1      36.231 -20.693 -19.911  0.00  0.00    +0.021 C 
BRANCH  15  18
ATOM     18  S   UNL     1      36.051 -18.494 -21.513  0.00  0.00    +0.057 S 
ATOM     19  O   UNL     1      35.907 -18.816 -22.925  0.00  0.00    -0.153 OA
ATOM     20  O   UNL     1      35.517 -17.242 -20.998  0.00  0.00    -0.153 OA
BRANCH  18  21
ATOM     21  N   UNL     1      37.703 -18.602 -21.088  0.00  0.00    -0.203 NA
ATOM     22  H   UNL     1      37.817 -19.291 -20.344  0.00  0.00    +0.144 HD
ATOM     23  H   UNL     1      38.030 -17.693 -20.763  0.00  0.00    +0.144 HD
ENDBRANCH  18  21
ENDBRANCH  15  18
ENDBRANCH  10  12
ENDBRANCH   7  10
BRANCH   5  24
ATOM     24  O   UNL     1      30.649 -22.729 -14.793  0.00  0.00    -0.451 OA
BRANCH  24  25
ATOM     25  C   UNL     1      29.866 -23.903 -14.909  0.00  0.00    +0.208 C 
BRANCH  25  26
ATOM     26  C   UNL     1      28.505 -23.521 -15.489  0.00  0.00    +0.044 C 
ATOM     27  C   UNL     1      27.957 -22.264 -14.800  0.00  0.00    +0.004 C 
ATOM     28  C   UNL     1      28.601 -23.315 -17.006  0.00  0.00    +0.004 C 
ATOM     29  C   UNL     1      26.619 -21.832 -15.399  0.00  0.00    +0.000 C 
ATOM     30  C   UNL     1      27.263 -22.880 -17.602  0.00  0.00    +0.000 C 
ATOM     31  C   UNL     1      26.717 -21.636 -16.909  0.00  0.00    +0.000 C 
ENDBRANCH  25  26
ENDBRANCH  24  25
ENDBRANCH   5  24
TORSDOF 7
ENDMDL
MODEL 7
REMARK VINA RESULT:     -10.5      3.252      7.967
REMARK  Name = 23586145
REMARK  7 active torsions:
REMARK  status: ('A' for Active; 'I' for Inactive)
REMARK    1  A    between atoms: C_5  and  O_24
REMARK    2  A    between atoms: C_7  and  N_10
REMARK    3  A    between atoms: N_10  and  C_12
REMARK    4  A    between atoms: C_15  and  S_18
REMARK    5  A    between atoms: S_18  and  N_21
REMARK    6  A    between atoms: O_24  and  C_25
REMARK    7  A    between atoms: C_25  and  C_26
REMARK                            x       y       z     vdW  Elec       q    Type
REMARK                         _______ _______ _______ _____ _____    ______ ____
ROOT
ATOM      1  N   UNL     1      32.399 -21.587 -18.324  0.00  0.00    -0.299 NA
ATOM      2  N   UNL     1      32.362 -23.208 -16.547  0.00  0.00    -0.106 N 
ATOM      3  N   UNL     1      31.476 -23.686 -15.635  0.00  0.00    -0.139 NA
ATOM      4  N   UNL     1      30.481 -22.093 -16.923  0.00  0.00    -0.145 NA
ATOM      5  C   UNL     1      33.633 -21.940 -18.487  0.00  0.00    +0.291 C 
ATOM      6  C   UNL     1      34.392 -22.954 -17.724  0.00  0.00    +0.105 C 
ATOM      7  C   UNL     1      33.703 -23.571 -16.748  0.00  0.00    +0.142 C 
ATOM      8  C   UNL     1      31.728 -22.232 -17.326  0.00  0.00    +0.178 C 
ATOM      9  C   UNL     1      30.379 -22.987 -15.907  0.00  0.00    +0.230 C 
ENDROOT
BRANCH   7  10
ATOM     10  N   UNL     1      34.224 -24.535 -15.934  0.00  0.00    -0.299 N 
ATOM     11  H   UNL     1      34.068 -25.465 -16.216  0.00  0.00    +0.153 HD
BRANCH  10  12
ATOM     12  C   UNL     1      34.951 -24.372 -14.749  0.00  0.00    +0.049 C 
ATOM     13  C   UNL     1      34.287 -24.223 -13.525  0.00  0.00    +0.016 C 
ATOM     14  C   UNL     1      36.351 -24.356 -14.774  0.00  0.00    +0.016 C 
ATOM     15  C   UNL     1      36.406 -24.045 -12.378  0.00  0.00    +0.122 C 
ATOM     16  C   UNL     1      35.012 -24.060 -12.344  0.00  0.00    +0.021 C 
ATOM     17  C   UNL     1      37.077 -24.193 -13.593  0.00  0.00    +0.021 C 
BRANCH  15  18
ATOM     18  S   UNL     1      37.314 -23.841 -10.900  0.00  0.00    +0.057 S 
ATOM     19  O   UNL     1      38.385 -24.826 -10.880  0.00  0.00    -0.153 OA
ATOM     20  O   UNL     1      37.627 -22.428 -10.741  0.00  0.00    -0.153 OA
BRANCH  18  21
ATOM     21  N   UNL     1      36.140 -24.277  -9.737  0.00  0.00    -0.203 NA
ATOM     22  H   UNL     1      35.217 -24.281 -10.171  0.00  0.00    +0.144 HD
ATOM     23  H   UNL     1      36.154 -23.603  -8.972  0.00  0.00    +0.144 HD
ENDBRANCH  18  21
ENDBRANCH  15  18
ENDBRANCH  10  12
ENDBRANCH   7  10
BRANCH   5  24
ATOM     24  O   UNL     1      34.368 -21.368 -19.435  0.00  0.00    -0.451 OA
BRANCH  24  25
ATOM     25  C   UNL     1      33.674 -20.464 -20.274  0.00  0.00    +0.208 C 
BRANCH  25  26
ATOM     26  C   UNL     1      34.667 -19.423 -20.790  0.00  0.00    +0.044 C 
ATOM     27  C   UNL     1      36.107 -19.836 -20.457  0.00  0.00    +0.004 C 
ATOM     28  C   UNL     1      34.494 -19.211 -22.299  0.00  0.00    +0.004 C 
ATOM     29  C   UNL     1      37.122 -18.837 -21.008  0.00  0.00    +0.000 C 
ATOM     30  C   UNL     1      35.512 -18.212 -22.848  0.00  0.00    +0.000 C 
ATOM     31  C   UNL     1      36.941 -18.622 -22.507  0.00  0.00    +0.000 C 
ENDBRANCH  25  26
ENDBRANCH  24  25
ENDBRANCH   5  24
TORSDOF 7
ENDMDL
MODEL 8
REMARK VINA RESULT:     -10.4      3.780      7.470
REMARK  Name = 23586145
REMARK  7 active torsions:
REMARK  status: ('A' for Active; 'I' for Inactive)
REMARK    1  A    between atoms: C_5  and  O_24
REMARK    2  A    between atoms: C_7  and  N_10
REMARK    3  A    between atoms: N_10  and  C_12
REMARK    4  A    between atoms: C_15  and  S_18
REMARK    5  A    between atoms: S_18  and  N_21
REMARK    6  A    between atoms: O_24  and  C_25
REMARK    7  A    between atoms: C_25  and  C_26
REMARK                            x       y       z     vdW  Elec       q    Type
REMARK                         _______ _______ _______ _____ _____    ______ ____
ROOT
ATOM      1  N   UNL     1      33.424 -21.552 -19.371  0.00  0.00    -0.299 NA
ATOM      2  N   UNL     1      35.713 -21.222 -18.710  0.00  0.00    -0.106 N 
ATOM      3  N   UNL     1      36.810 -20.562 -19.165  0.00  0.00    -0.139 NA
ATOM      4  N   UNL     1      35.058 -20.225 -20.581  0.00  0.00    -0.145 NA
ATOM      5  C   UNL     1      33.325 -22.278 -18.305  0.00  0.00    +0.291 C 
ATOM      6  C   UNL     1      34.378 -22.574 -17.310  0.00  0.00    +0.105 C 
ATOM      7  C   UNL     1      35.576 -22.015 -17.561  0.00  0.00    +0.142 C 
ATOM      8  C   UNL     1      34.651 -21.000 -19.595  0.00  0.00    +0.178 C 
ATOM      9  C   UNL     1      36.360 -19.990 -20.277  0.00  0.00    +0.230 C 
ENDROOT
BRANCH   7  10
ATOM     10  N   UNL     1      36.673 -22.167 -16.763  0.00  0.00    -0.299 N 
ATOM     11  H   UNL     1      37.501 -21.744 -17.087  0.00  0.00    +0.153 HD
BRANCH  10  12
ATOM     12  C   UNL     1      36.774 -22.849 -15.545  0.00  0.00    +0.049 C 
ATOM     13  C   UNL     1      35.743 -22.772 -14.601  0.00  0.00    +0.016 C 
ATOM     14  C   UNL     1      37.909 -23.618 -15.257  0.00  0.00    +0.016 C 
ATOM     15  C   UNL     1      36.978 -24.215 -13.108  0.00  0.00    +0.122 C 
ATOM     16  C   UNL     1      35.845 -23.452 -13.388  0.00  0.00    +0.021 C 
ATOM     17  C   UNL     1      38.011 -24.298 -14.043  0.00  0.00    +0.021 C 
BRANCH  15  18
ATOM     18  S   UNL     1      37.105 -25.066 -11.589  0.00  0.00    +0.057 S 
ATOM     19  O   UNL     1      37.249 -26.488 -11.870  0.00  0.00    -0.153 OA
ATOM     20  O   UNL     1      38.092 -24.389 -10.760  0.00  0.00    -0.153 OA
BRANCH  18  21
ATOM     21  N   UNL     1      35.553 -24.788 -10.931  0.00  0.00    -0.203 NA
ATOM     22  H   UNL     1      35.622 -24.727  -9.915  0.00  0.00    +0.144 HD
ATOM     23  H   UNL     1      34.933 -25.557 -11.184  0.00  0.00    +0.144 HD
ENDBRANCH  18  21
ENDBRANCH  15  18
ENDBRANCH  10  12
ENDBRANCH   7  10
BRANCH   5  24
ATOM     24  O   UNL     1      32.168 -22.859 -18.001  0.00  0.00    -0.451 OA
BRANCH  24  25
ATOM     25  C   UNL     1      31.545 -22.385 -16.822  0.00  0.00    +0.208 C 
BRANCH  25  26
ATOM     26  C   UNL     1      31.588 -23.494 -15.772  0.00  0.00    +0.044 C 
ATOM     27  C   UNL     1      32.156 -22.964 -14.449  0.00  0.00    +0.004 C 
ATOM     28  C   UNL     1      30.193 -24.098 -15.565  0.00  0.00    +0.004 C 
ATOM     29  C   UNL     1      32.161 -24.042 -13.366  0.00  0.00    +0.000 C 
ATOM     30  C   UNL     1      30.200 -25.174 -14.480  0.00  0.00    +0.000 C 
ATOM     31  C   UNL     1      30.774 -24.646 -13.169  0.00  0.00    +0.000 C 
ENDBRANCH  25  26
ENDBRANCH  24  25
ENDBRANCH   5  24
TORSDOF 7
ENDMDL
MODEL 9
REMARK VINA RESULT:      -9.9      6.091      9.506
REMARK  Name = 23586145
REMARK  7 active torsions:
REMARK  status: ('A' for Active; 'I' for Inactive)
REMARK    1  A    between atoms: C_5  and  O_24
REMARK    2  A    between atoms: C_7  and  N_10
REMARK    3  A    between atoms: N_10  and  C_12
REMARK    4  A    between atoms: C_15  and  S_18
REMARK    5  A    between atoms: S_18  and  N_21
REMARK    6  A    between atoms: O_24  and  C_25
REMARK    7  A    between atoms: C_25  and  C_26
REMARK                            x       y       z     vdW  Elec       q    Type
REMARK                         _______ _______ _______ _____ _____    ______ ____
ROOT
ATOM      1  N   UNL     1      34.615 -18.810 -23.968  0.00  0.00    -0.299 NA
ATOM      2  N   UNL     1      34.059 -16.574 -24.659  0.00  0.00    -0.106 N 
ATOM      3  N   UNL     1      33.152 -15.963 -25.465  0.00  0.00    -0.139 NA
ATOM      4  N   UNL     1      32.824 -18.217 -25.496  0.00  0.00    -0.145 NA
ATOM      5  C   UNL     1      35.548 -18.254 -23.264  0.00  0.00    +0.291 C 
ATOM      6  C   UNL     1      35.863 -16.813 -23.157  0.00  0.00    +0.105 C 
ATOM      7  C   UNL     1      35.078 -15.999 -23.886  0.00  0.00    +0.142 C 
ATOM      8  C   UNL     1      33.838 -17.957 -24.695  0.00  0.00    +0.178 C 
ATOM      9  C   UNL     1      32.448 -16.988 -25.934  0.00  0.00    +0.230 C 
ENDROOT
BRANCH   7  10
ATOM     10  N   UNL     1      35.208 -14.641 -23.921  0.00  0.00    -0.299 N 
ATOM     11  H   UNL     1      35.932 -14.294 -24.491  0.00  0.00    +0.153 HD
BRANCH  10  12
ATOM     12  C   UNL     1      34.447 -13.678 -23.249  0.00  0.00    +0.049 C 
ATOM     13  C   UNL     1      33.858 -13.974 -22.014  0.00  0.00    +0.016 C 
ATOM     14  C   UNL     1      34.264 -12.405 -23.806  0.00  0.00    +0.016 C 
ATOM     15  C   UNL     1      32.922 -11.749 -21.907  0.00  0.00    +0.122 C 
ATOM     16  C   UNL     1      33.099 -13.014 -21.345  0.00  0.00    +0.021 C 
ATOM     17  C   UNL     1      33.505 -11.444 -23.137  0.00  0.00    +0.021 C 
BRANCH  15  18
ATOM     18  S   UNL     1      31.972 -10.547 -21.070  0.00  0.00    +0.057 S 
ATOM     19  O   UNL     1      32.239 -10.662 -19.643  0.00  0.00    -0.153 OA
ATOM     20  O   UNL     1      32.154  -9.266 -21.738  0.00  0.00    -0.153 OA
BRANCH  18  21
ATOM     21  N   UNL     1      30.389 -11.109 -21.383  0.00  0.00    -0.203 NA
ATOM     22  H   UNL     1      30.094 -10.793 -22.307  0.00  0.00    +0.144 HD
ATOM     23  H   UNL     1      29.752 -10.740 -20.678  0.00  0.00    +0.144 HD
ENDBRANCH  18  21
ENDBRANCH  15  18
ENDBRANCH  10  12
ENDBRANCH   7  10
BRANCH   5  24
ATOM     24  O   UNL     1      36.357 -19.004 -22.523  0.00  0.00    -0.451 OA
BRANCH  24  25
ATOM     25  C   UNL     1      36.129 -18.941 -21.127  0.00  0.00    +0.208 C 
BRANCH  25  26
ATOM     26  C   UNL     1      35.321 -20.170 -20.713  0.00  0.00    +0.044 C 
ATOM     27  C   UNL     1      35.964 -20.856 -19.500  0.00  0.00    +0.004 C 
ATOM     28  C   UNL     1      33.866 -19.787 -20.417  0.00  0.00    +0.004 C 
ATOM     29  C   UNL     1      35.145 -22.059 -19.034  0.00  0.00    +0.000 C 
ATOM     30  C   UNL     1      33.050 -20.992 -19.948  0.00  0.00    +0.000 C 
ATOM     31  C   UNL     1      33.697 -21.676 -18.749  0.00  0.00    +0.000 C 
ENDBRANCH  25  26
ENDBRANCH  24  25
ENDBRANCH   5  24
TORSDOF 7
ENDMDL
