MODEL 1
REMARK VINA RESULT:     -13.3      0.000      0.000
REMARK  Name = 4887
REMARK  9 active torsions:
REMARK  status: ('A' for Active; 'I' for Inactive)
REMARK    1  A    between atoms: N_2  and  C_8
REMARK    2  A    between atoms: C_3  and  C_23
REMARK    3  A    between atoms: C_14  and  C_20
REMARK    4  A    between atoms: C_22  and  O_28
REMARK    5  A    between atoms: O_28  and  C_29
REMARK    6  A    between atoms: C_29  and  C_30
REMARK    7  A    between atoms: C_30  and  C_31
REMARK    8  A    between atoms: C_31  and  C_32
REMARK    9  A    between atoms: C_32  and  C_33
REMARK                            x       y       z     vdW  Elec       q    Type
REMARK                         _______ _______ _______ _____ _____    ______ ____
ROOT
ATOM      1  O   UNL     1      33.801 -23.892 -18.337  0.00  0.00    -0.270 OA
ATOM      2  N   UNL     1      33.993 -22.260 -16.656  0.00  0.00    -0.278 N 
ATOM      3  C   UNL     1      33.944 -22.729 -17.975  0.00  0.00    +0.250 C 
ATOM      4  H   UNL     1      34.114 -21.289 -16.548  0.00  0.00    +0.155 HD
ENDROOT
BRANCH   2   8
ATOM      5  O   UNL     1      31.556 -23.168 -15.784  0.00  0.00    -0.442 OA
ATOM      6  O   UNL     1      31.130 -25.341 -12.367  0.00  0.00    -0.286 OA
ATOM      7  C   UNL     1      32.657 -23.469 -15.023  0.00  0.00    +0.163 C 
ATOM      8  C   UNL     1      33.892 -23.002 -15.476  0.00  0.00    +0.086 C 
ATOM      9  C   UNL     1      32.583 -24.207 -13.844  0.00  0.00    +0.075 C 
ATOM     10  C   UNL     1      35.048 -23.275 -14.745  0.00  0.00    +0.018 C 
ATOM     11  C   UNL     1      33.738 -24.484 -13.109  0.00  0.00    +0.006 C 
ATOM     12  C   UNL     1      31.270 -24.687 -13.391  0.00  0.00    +0.202 C 
ATOM     13  C   UNL     1      34.972 -24.015 -13.564  0.00  0.00    +0.002 C 
ATOM     14  C   UNL     1      30.309 -23.616 -15.364  0.00  0.00    +0.213 C 
ATOM     15  C   UNL     1      30.118 -24.335 -14.245  0.00  0.00    +0.090 C 
BRANCH  14  20
ATOM     16  N   UNL     1      28.883 -21.979 -16.570  0.00  0.00    -0.107 NA
ATOM     17  N   UNL     1      28.493 -24.190 -16.865  0.00  0.00    -0.084 NA
ATOM     18  N   UNL     1      27.872 -22.248 -17.407  0.00  0.00    -0.140 N 
ATOM     19  N   UNL     1      27.605 -23.545 -17.612  0.00  0.00    -0.022 NA
ATOM     20  C   UNL     1      29.242 -23.227 -16.256  0.00  0.00    +0.109 C 
ATOM     21  H   UNL     1      27.355 -21.535 -17.846  0.00  0.00    +0.197 HD
ENDBRANCH  14  20
ENDBRANCH   2   8
BRANCH   3  23
ATOM     22  C   UNL     1      34.420 -19.744 -20.998  0.00  0.00    +0.139 C 
ATOM     23  C   UNL     1      34.110 -21.691 -19.025  0.00  0.00    +0.054 C 
ATOM     24  C   UNL     1      33.143 -20.092 -20.556  0.00  0.00    +0.037 C 
ATOM     25  C   UNL     1      35.542 -20.369 -20.453  0.00  0.00    +0.037 C 
ATOM     26  C   UNL     1      32.988 -21.066 -19.570  0.00  0.00    +0.008 C 
ATOM     27  C   UNL     1      35.387 -21.343 -19.467  0.00  0.00    +0.008 C 
BRANCH  22  28
ATOM     28  O   UNL     1      34.572 -18.791 -21.958  0.00  0.00    -0.475 OA
BRANCH  28  29
ATOM     29  C   UNL     1      35.553 -19.035 -22.965  0.00  0.00    +0.205 C 
BRANCH  29  30
ATOM     30  C   UNL     1      34.858 -19.123 -24.317  0.00  0.00    +0.048 C 
BRANCH  30  31
ATOM     31  C   UNL     1      34.173 -17.808 -24.685  0.00  0.00    +0.009 C 
BRANCH  31  32
ATOM     32  C   UNL     1      35.172 -16.649 -24.703  0.00  0.00    +0.026 C 
BRANCH  32  33
ATOM     33  C   UNL     1      34.690 -15.485 -23.873  0.00  0.00    -0.022 C 
ATOM     34  C   UNL     1      35.075 -15.375 -22.537  0.00  0.00    -0.004 C 
ATOM     35  C   UNL     1      33.858 -14.522 -24.441  0.00  0.00    -0.004 C 
ATOM     36  C   UNL     1      34.629 -14.300 -21.769  0.00  0.00    -0.000 C 
ATOM     37  C   UNL     1      33.412 -13.445 -23.674  0.00  0.00    -0.000 C 
ATOM     38  C   UNL     1      33.797 -13.334 -22.338  0.00  0.00    -0.000 C 
ENDBRANCH  32  33
ENDBRANCH  31  32
ENDBRANCH  30  31
ENDBRANCH  29  30
ENDBRANCH  28  29
ENDBRANCH  22  28
ENDBRANCH   3  23
TORSDOF 9
ENDMDL
MODEL 2
REMARK VINA RESULT:     -13.2      1.661      3.952
REMARK  Name = 4887
REMARK  9 active torsions:
REMARK  status: ('A' for Active; 'I' for Inactive)
REMARK    1  A    between atoms: N_2  and  C_8
REMARK    2  A    between atoms: C_3  and  C_23
REMARK    3  A    between atoms: C_14  and  C_20
REMARK    4  A    between atoms: C_22  and  O_28
REMARK    5  A    between atoms: O_28  and  C_29
REMARK    6  A    between atoms: C_29  and  C_30
REMARK    7  A    between atoms: C_30  and  C_31
REMARK    8  A    between atoms: C_31  and  C_32
REMARK    9  A    between atoms: C_32  and  C_33
REMARK                            x       y       z     vdW  Elec       q    Type
REMARK                         _______ _______ _______ _____ _____    ______ ____
ROOT
ATOM      1  O   UNL     1      33.732 -23.579 -18.487  0.00  0.00    -0.270 OA
ATOM      2  N   UNL     1      32.338 -21.957 -17.513  0.00  0.00    -0.278 N 
ATOM      3  C   UNL     1      33.313 -22.430 -18.399  0.00  0.00    +0.250 C 
ATOM      4  H   UNL     1      32.121 -20.999 -17.581  0.00  0.00    +0.155 HD
ENDROOT
BRANCH   2   8
ATOM      5  O   UNL     1      33.661 -23.130 -15.416  0.00  0.00    -0.442 OA
ATOM      6  O   UNL     1      31.730 -25.253 -12.527  0.00  0.00    -0.286 OA
ATOM      7  C   UNL     1      32.298 -23.279 -15.472  0.00  0.00    +0.163 C 
ATOM      8  C   UNL     1      31.635 -22.678 -16.543  0.00  0.00    +0.086 C 
ATOM      9  C   UNL     1      31.575 -23.992 -14.519  0.00  0.00    +0.075 C 
ATOM     10  C   UNL     1      30.250 -22.794 -16.656  0.00  0.00    +0.018 C 
ATOM     11  C   UNL     1      30.188 -24.110 -14.627  0.00  0.00    +0.006 C 
ATOM     12  C   UNL     1      32.299 -24.614 -13.402  0.00  0.00    +0.202 C 
ATOM     13  C   UNL     1      29.527 -23.509 -15.699  0.00  0.00    +0.002 C 
ATOM     14  C   UNL     1      34.356 -23.716 -14.363  0.00  0.00    +0.213 C 
ATOM     15  C   UNL     1      33.763 -24.425 -13.388  0.00  0.00    +0.090 C 
BRANCH  14  20
ATOM     16  N   UNL     1      36.538 -23.506 -15.530  0.00  0.00    -0.107 NA
ATOM     17  N   UNL     1      36.467 -23.204 -13.286  0.00  0.00    -0.084 NA
ATOM     18  N   UNL     1      37.727 -23.226 -14.978  0.00  0.00    -0.140 N 
ATOM     19  N   UNL     1      37.732 -23.039 -13.651  0.00  0.00    -0.022 NA
ATOM     20  C   UNL     1      35.779 -23.481 -14.431  0.00  0.00    +0.109 C 
ATOM     21  H   UNL     1      38.549 -23.160 -15.516  0.00  0.00    +0.197 HD
ENDBRANCH  14  20
ENDBRANCH   2   8
BRANCH   3  23
ATOM     22  C   UNL     1      35.008 -19.485 -20.994  0.00  0.00    +0.139 C 
ATOM     23  C   UNL     1      33.903 -21.406 -19.301  0.00  0.00    +0.054 C 
ATOM     24  C   UNL     1      33.622 -19.606 -20.888  0.00  0.00    +0.037 C 
ATOM     25  C   UNL     1      35.841 -20.324 -20.255  0.00  0.00    +0.037 C 
ATOM     26  C   UNL     1      33.070 -20.567 -20.041  0.00  0.00    +0.008 C 
ATOM     27  C   UNL     1      35.289 -21.285 -19.408  0.00  0.00    +0.008 C 
BRANCH  22  28
ATOM     28  O   UNL     1      35.547 -18.546 -21.819  0.00  0.00    -0.475 OA
BRANCH  28  29
ATOM     29  C   UNL     1      36.167 -19.012 -23.016  0.00  0.00    +0.205 C 
BRANCH  29  30
ATOM     30  C   UNL     1      35.084 -19.335 -24.036  0.00  0.00    +0.048 C 
BRANCH  30  31
ATOM     31  C   UNL     1      34.280 -18.092 -24.416  0.00  0.00    +0.009 C 
BRANCH  31  32
ATOM     32  C   UNL     1      35.200 -16.907 -24.714  0.00  0.00    +0.026 C 
BRANCH  32  33
ATOM     33  C   UNL     1      34.686 -15.633 -24.092  0.00  0.00    -0.022 C 
ATOM     34  C   UNL     1      33.826 -14.804 -24.812  0.00  0.00    -0.004 C 
ATOM     35  C   UNL     1      35.071 -15.283 -22.799  0.00  0.00    -0.004 C 
ATOM     36  C   UNL     1      33.350 -13.625 -24.238  0.00  0.00    -0.000 C 
ATOM     37  C   UNL     1      34.596 -14.104 -22.224  0.00  0.00    -0.000 C 
ATOM     38  C   UNL     1      33.736 -13.275 -22.944  0.00  0.00    -0.000 C 
ENDBRANCH  32  33
ENDBRANCH  31  32
ENDBRANCH  30  31
ENDBRANCH  29  30
ENDBRANCH  28  29
ENDBRANCH  22  28
ENDBRANCH   3  23
TORSDOF 9
ENDMDL
MODEL 3
REMARK VINA RESULT:     -12.5      1.391      1.995
REMARK  Name = 4887
REMARK  9 active torsions:
REMARK  status: ('A' for Active; 'I' for Inactive)
REMARK    1  A    between atoms: N_2  and  C_8
REMARK    2  A    between atoms: C_3  and  C_23
REMARK    3  A    between atoms: C_14  and  C_20
REMARK    4  A    between atoms: C_22  and  O_28
REMARK    5  A    between atoms: O_28  and  C_29
REMARK    6  A    between atoms: C_29  and  C_30
REMARK    7  A    between atoms: C_30  and  C_31
REMARK    8  A    between atoms: C_31  and  C_32
REMARK    9  A    between atoms: C_32  and  C_33
REMARK                            x       y       z     vdW  Elec       q    Type
REMARK                         _______ _______ _______ _____ _____    ______ ____
ROOT
ATOM      1  O   UNL     1      34.302 -23.329 -18.322  0.00  0.00    -0.270 OA
ATOM      2  N   UNL     1      35.629 -21.795 -17.133  0.00  0.00    -0.278 N 
ATOM      3  C   UNL     1      34.859 -22.241 -18.214  0.00  0.00    +0.250 C 
ATOM      4  H   UNL     1      36.003 -20.888 -17.214  0.00  0.00    +0.155 HD
ENDROOT
BRANCH   2   8
ATOM      5  O   UNL     1      33.629 -22.698 -15.488  0.00  0.00    -0.442 OA
ATOM      6  O   UNL     1      34.386 -24.712 -12.031  0.00  0.00    -0.286 OA
ATOM      7  C   UNL     1      34.924 -22.945 -15.110  0.00  0.00    +0.163 C 
ATOM      8  C   UNL     1      35.934 -22.481 -15.955  0.00  0.00    +0.086 C 
ATOM      9  C   UNL     1      35.254 -23.627 -13.941  0.00  0.00    +0.075 C 
ATOM     10  C   UNL     1      37.271 -22.702 -15.624  0.00  0.00    +0.018 C 
ATOM     11  C   UNL     1      36.592 -23.851 -13.607  0.00  0.00    +0.006 C 
ATOM     12  C   UNL     1      34.171 -24.105 -13.071  0.00  0.00    +0.202 C 
ATOM     13  C   UNL     1      37.599 -23.386 -14.453  0.00  0.00    +0.002 C 
ATOM     14  C   UNL     1      32.596 -23.144 -14.671  0.00  0.00    +0.213 C 
ATOM     15  C   UNL     1      32.796 -23.812 -13.523  0.00  0.00    +0.090 C 
BRANCH  14  20
ATOM     16  N   UNL     1      30.165 -22.675 -14.479  0.00  0.00    -0.107 NA
ATOM     17  N   UNL     1      31.129 -22.614 -16.528  0.00  0.00    -0.084 NA
ATOM     18  N   UNL     1      29.317 -22.379 -15.473  0.00  0.00    -0.140 N 
ATOM     19  N   UNL     1      29.844 -22.332 -16.704  0.00  0.00    -0.022 NA
ATOM     20  C   UNL     1      31.289 -22.814 -15.188  0.00  0.00    +0.109 C 
ATOM     21  H   UNL     1      28.362 -22.206 -15.309  0.00  0.00    +0.197 HD
ENDBRANCH  14  20
ENDBRANCH   2   8
BRANCH   3  23
ATOM     22  C   UNL     1      34.508 -19.491 -21.469  0.00  0.00    +0.139 C 
ATOM     23  C   UNL     1      34.737 -21.285 -19.345  0.00  0.00    +0.054 C 
ATOM     24  C   UNL     1      33.361 -19.981 -20.843  0.00  0.00    +0.037 C 
ATOM     25  C   UNL     1      35.769 -19.899 -21.034  0.00  0.00    +0.037 C 
ATOM     26  C   UNL     1      33.476 -20.878 -19.781  0.00  0.00    +0.008 C 
ATOM     27  C   UNL     1      35.884 -20.795 -19.972  0.00  0.00    +0.008 C 
BRANCH  22  28
ATOM     28  O   UNL     1      34.396 -18.614 -22.503  0.00  0.00    -0.475 OA
BRANCH  28  29
ATOM     29  C   UNL     1      35.596 -18.267 -23.193  0.00  0.00    +0.205 C 
BRANCH  29  30
ATOM     30  C   UNL     1      35.233 -17.712 -24.563  0.00  0.00    +0.048 C 
BRANCH  30  31
ATOM     31  C   UNL     1      34.465 -16.396 -24.452  0.00  0.00    +0.009 C 
BRANCH  31  32
ATOM     32  C   UNL     1      35.309 -15.319 -23.766  0.00  0.00    +0.026 C 
BRANCH  32  33
ATOM     33  C   UNL     1      34.498 -14.525 -22.773  0.00  0.00    -0.022 C 
ATOM     34  C   UNL     1      34.699 -14.707 -21.405  0.00  0.00    -0.004 C 
ATOM     35  C   UNL     1      33.546 -13.611 -23.222  0.00  0.00    -0.004 C 
ATOM     36  C   UNL     1      33.948 -13.975 -20.486  0.00  0.00    -0.000 C 
ATOM     37  C   UNL     1      32.796 -12.877 -22.304  0.00  0.00    -0.000 C 
ATOM     38  C   UNL     1      32.996 -13.059 -20.936  0.00  0.00    -0.000 C 
ENDBRANCH  32  33
ENDBRANCH  31  32
ENDBRANCH  30  31
ENDBRANCH  29  30
ENDBRANCH  28  29
ENDBRANCH  22  28
ENDBRANCH   3  23
TORSDOF 9
ENDMDL
MODEL 4
REMARK VINA RESULT:     -11.4      2.404      4.720
REMARK  Name = 4887
REMARK  9 active torsions:
REMARK  status: ('A' for Active; 'I' for Inactive)
REMARK    1  A    between atoms: N_2  and  C_8
REMARK    2  A    between atoms: C_3  and  C_23
REMARK    3  A    between atoms: C_14  and  C_20
REMARK    4  A    between atoms: C_22  and  O_28
REMARK    5  A    between atoms: O_28  and  C_29
REMARK    6  A    between atoms: C_29  and  C_30
REMARK    7  A    between atoms: C_30  and  C_31
REMARK    8  A    between atoms: C_31  and  C_32
REMARK    9  A    between atoms: C_32  and  C_33
REMARK                            x       y       z     vdW  Elec       q    Type
REMARK                         _______ _______ _______ _____ _____    ______ ____
ROOT
ATOM      1  O   UNL     1      33.570 -23.860 -17.893  0.00  0.00    -0.270 OA
ATOM      2  N   UNL     1      33.902 -22.124 -16.343  0.00  0.00    -0.278 N 
ATOM      3  C   UNL     1      33.902 -22.713 -17.614  0.00  0.00    +0.250 C 
ATOM      4  H   UNL     1      34.200 -21.187 -16.302  0.00  0.00    +0.155 HD
ENDROOT
BRANCH   2   8
ATOM      5  O   UNL     1      35.764 -23.384 -14.772  0.00  0.00    -0.442 OA
ATOM      6  O   UNL     1      34.808 -25.110 -11.210  0.00  0.00    -0.286 OA
ATOM      7  C   UNL     1      34.469 -23.348 -14.320  0.00  0.00    +0.163 C 
ATOM      8  C   UNL     1      33.530 -22.704 -15.128  0.00  0.00    +0.086 C 
ATOM      9  C   UNL     1      34.073 -23.918 -13.112  0.00  0.00    +0.075 C 
ATOM     10  C   UNL     1      32.198 -22.635 -14.722  0.00  0.00    +0.018 C 
ATOM     11  C   UNL     1      32.740 -23.850 -12.702  0.00  0.00    +0.006 C 
ATOM     12  C   UNL     1      35.083 -24.589 -12.282  0.00  0.00    +0.202 C 
ATOM     13  C   UNL     1      31.803 -23.206 -13.512  0.00  0.00    +0.002 C 
ATOM     14  C   UNL     1      36.727 -24.018 -13.995  0.00  0.00    +0.213 C 
ATOM     15  C   UNL     1      36.460 -24.601 -12.814  0.00  0.00    +0.090 C 
BRANCH  14  20
ATOM     16  N   UNL     1      38.426 -23.232 -15.627  0.00  0.00    -0.107 NA
ATOM     17  N   UNL     1      39.028 -24.778 -14.085  0.00  0.00    -0.084 NA
ATOM     18  N   UNL     1      39.705 -23.622 -15.715  0.00  0.00    -0.140 N 
ATOM     19  N   UNL     1      40.105 -24.537 -14.821  0.00  0.00    -0.022 NA
ATOM     20  C   UNL     1      38.042 -23.983 -14.591  0.00  0.00    +0.109 C 
ATOM     21  H   UNL     1      40.315 -23.258 -16.396  0.00  0.00    +0.197 HD
ENDBRANCH  14  20
ENDBRANCH   2   8
BRANCH   3  23
ATOM     22  C   UNL     1      35.281 -20.206 -20.791  0.00  0.00    +0.139 C 
ATOM     23  C   UNL     1      34.382 -21.841 -18.718  0.00  0.00    +0.054 C 
ATOM     24  C   UNL     1      33.913 -20.334 -20.547  0.00  0.00    +0.037 C 
ATOM     25  C   UNL     1      36.199 -20.896 -19.999  0.00  0.00    +0.037 C 
ATOM     26  C   UNL     1      33.464 -21.152 -19.511  0.00  0.00    +0.008 C 
ATOM     27  C   UNL     1      35.750 -21.714 -18.962  0.00  0.00    +0.008 C 
BRANCH  22  28
ATOM     28  O   UNL     1      35.719 -19.406 -21.801  0.00  0.00    -0.475 OA
BRANCH  28  29
ATOM     29  C   UNL     1      34.780 -18.486 -22.354  0.00  0.00    +0.205 C 
BRANCH  29  30
ATOM     30  C   UNL     1      34.892 -18.522 -23.872  0.00  0.00    +0.048 C 
BRANCH  30  31
ATOM     31  C   UNL     1      34.526 -17.176 -24.496  0.00  0.00    +0.009 C 
BRANCH  31  32
ATOM     32  C   UNL     1      35.457 -16.066 -24.002  0.00  0.00    +0.026 C 
BRANCH  32  33
ATOM     33  C   UNL     1      34.709 -15.024 -23.209  0.00  0.00    -0.022 C 
ATOM     34  C   UNL     1      33.831 -14.154 -23.855  0.00  0.00    -0.004 C 
ATOM     35  C   UNL     1      34.894 -14.931 -21.831  0.00  0.00    -0.004 C 
ATOM     36  C   UNL     1      33.140 -13.189 -23.123  0.00  0.00    -0.000 C 
ATOM     37  C   UNL     1      34.202 -13.967 -21.097  0.00  0.00    -0.000 C 
ATOM     38  C   UNL     1      33.325 -13.097 -21.743  0.00  0.00    -0.000 C 
ENDBRANCH  32  33
ENDBRANCH  31  32
ENDBRANCH  30  31
ENDBRANCH  29  30
ENDBRANCH  28  29
ENDBRANCH  22  28
ENDBRANCH   3  23
TORSDOF 9
ENDMDL
MODEL 5
REMARK VINA RESULT:     -11.0      6.731     13.311
REMARK  Name = 4887
REMARK  9 active torsions:
REMARK  status: ('A' for Active; 'I' for Inactive)
REMARK    1  A    between atoms: N_2  and  C_8
REMARK    2  A    between atoms: C_3  and  C_23
REMARK    3  A    between atoms: C_14  and  C_20
REMARK    4  A    between atoms: C_22  and  O_28
REMARK    5  A    between atoms: O_28  and  C_29
REMARK    6  A    between atoms: C_29  and  C_30
REMARK    7  A    between atoms: C_30  and  C_31
REMARK    8  A    between atoms: C_31  and  C_32
REMARK    9  A    between atoms: C_32  and  C_33
REMARK                            x       y       z     vdW  Elec       q    Type
REMARK                         _______ _______ _______ _____ _____    ______ ____
ROOT
ATOM      1  O   UNL     1      33.448 -11.162 -25.718  0.00  0.00    -0.270 OA
ATOM      2  N   UNL     1      34.856 -10.490 -23.959  0.00  0.00    -0.278 N 
ATOM      3  C   UNL     1      34.162 -11.412 -24.753  0.00  0.00    +0.250 C 
ATOM      4  H   UNL     1      35.386 -10.868 -23.222  0.00  0.00    +0.155 HD
ENDROOT
BRANCH   2   8
ATOM      5  O   UNL     1      33.398  -8.902 -22.265  0.00  0.00    -0.442 OA
ATOM      6  O   UNL     1      33.406  -4.838 -22.531  0.00  0.00    -0.286 OA
ATOM      7  C   UNL     1      34.149  -8.281 -23.230  0.00  0.00    +0.163 C 
ATOM      8  C   UNL     1      34.887  -9.099 -24.087  0.00  0.00    +0.086 C 
ATOM      9  C   UNL     1      34.197  -6.896 -23.378  0.00  0.00    +0.075 C 
ATOM     10  C   UNL     1      35.670  -8.526 -25.089  0.00  0.00    +0.018 C 
ATOM     11  C   UNL     1      34.981  -6.319 -24.379  0.00  0.00    +0.006 C 
ATOM     12  C   UNL     1      33.410  -6.060 -22.461  0.00  0.00    +0.202 C 
ATOM     13  C   UNL     1      35.717  -7.139 -25.235  0.00  0.00    +0.002 C 
ATOM     14  C   UNL     1      32.648  -8.119 -21.393  0.00  0.00    +0.213 C 
ATOM     15  C   UNL     1      32.619  -6.777 -21.442  0.00  0.00    +0.090 C 
BRANCH  14  20
ATOM     16  N   UNL     1      31.854  -8.700 -19.113  0.00  0.00    -0.107 NA
ATOM     17  N   UNL     1      31.168  -9.965 -20.862  0.00  0.00    -0.084 NA
ATOM     18  N   UNL     1      31.038  -9.708 -18.772  0.00  0.00    -0.140 N 
ATOM     19  N   UNL     1      30.608 -10.483 -19.776  0.00  0.00    -0.022 NA
ATOM     20  C   UNL     1      31.906  -8.901 -20.433  0.00  0.00    +0.109 C 
ATOM     21  H   UNL     1      30.772  -9.869 -17.839  0.00  0.00    +0.197 HD
ENDBRANCH  14  20
ENDBRANCH   2   8
BRANCH   3  23
ATOM     22  C   UNL     1      34.577 -15.504 -23.586  0.00  0.00    +0.139 C 
ATOM     23  C   UNL     1      34.306 -12.834 -24.348  0.00  0.00    +0.054 C 
ATOM     24  C   UNL     1      34.891 -14.486 -22.685  0.00  0.00    +0.037 C 
ATOM     25  C   UNL     1      34.127 -15.187 -24.868  0.00  0.00    +0.037 C 
ATOM     26  C   UNL     1      34.756 -13.151 -23.066  0.00  0.00    +0.008 C 
ATOM     27  C   UNL     1      33.992 -13.852 -25.249  0.00  0.00    +0.008 C 
BRANCH  22  28
ATOM     28  O   UNL     1      34.706 -16.806 -23.213  0.00  0.00    -0.475 OA
BRANCH  28  29
ATOM     29  C   UNL     1      35.441 -17.662 -24.087  0.00  0.00    +0.205 C 
BRANCH  29  30
ATOM     30  C   UNL     1      36.228 -18.661 -23.251  0.00  0.00    +0.048 C 
BRANCH  30  31
ATOM     31  C   UNL     1      36.282 -18.245 -21.781  0.00  0.00    +0.009 C 
BRANCH  31  32
ATOM     32  C   UNL     1      36.765 -19.398 -20.898  0.00  0.00    +0.026 C 
BRANCH  32  33
ATOM     33  C   UNL     1      35.611 -20.164 -20.302  0.00  0.00    -0.022 C 
ATOM     34  C   UNL     1      35.854 -21.218 -19.422  0.00  0.00    -0.004 C 
ATOM     35  C   UNL     1      34.301 -19.818 -20.630  0.00  0.00    -0.004 C 
ATOM     36  C   UNL     1      34.788 -21.928 -18.872  0.00  0.00    -0.000 C 
ATOM     37  C   UNL     1      33.233 -20.527 -20.080  0.00  0.00    -0.000 C 
ATOM     38  C   UNL     1      33.476 -21.582 -19.200  0.00  0.00    -0.000 C 
ENDBRANCH  32  33
ENDBRANCH  31  32
ENDBRANCH  30  31
ENDBRANCH  29  30
ENDBRANCH  28  29
ENDBRANCH  22  28
ENDBRANCH   3  23
TORSDOF 9
ENDMDL
MODEL 6
REMARK VINA RESULT:     -10.8      2.569      3.520
REMARK  Name = 4887
REMARK  9 active torsions:
REMARK  status: ('A' for Active; 'I' for Inactive)
REMARK    1  A    between atoms: N_2  and  C_8
REMARK    2  A    between atoms: C_3  and  C_23
REMARK    3  A    between atoms: C_14  and  C_20
REMARK    4  A    between atoms: C_22  and  O_28
REMARK    5  A    between atoms: O_28  and  C_29
REMARK    6  A    between atoms: C_29  and  C_30
REMARK    7  A    between atoms: C_30  and  C_31
REMARK    8  A    between atoms: C_31  and  C_32
REMARK    9  A    between atoms: C_32  and  C_33
REMARK                            x       y       z     vdW  Elec       q    Type
REMARK                         _______ _______ _______ _____ _____    ______ ____
ROOT
ATOM      1  O   UNL     1      37.928 -20.892 -16.275  0.00  0.00    -0.270 OA
ATOM      2  N   UNL     1      36.908 -23.008 -16.380  0.00  0.00    -0.278 N 
ATOM      3  C   UNL     1      37.202 -21.713 -16.825  0.00  0.00    +0.250 C 
ATOM      4  H   UNL     1      36.302 -23.533 -16.950  0.00  0.00    +0.155 HD
ENDROOT
BRANCH   2   8
ATOM      5  O   UNL     1      35.189 -23.575 -14.319  0.00  0.00    -0.442 OA
ATOM      6  O   UNL     1      36.410 -25.426 -10.903  0.00  0.00    -0.286 OA
ATOM      7  C   UNL     1      36.504 -23.937 -14.169  0.00  0.00    +0.163 C 
ATOM      8  C   UNL     1      37.369 -23.644 -15.224  0.00  0.00    +0.086 C 
ATOM      9  C   UNL     1      36.989 -24.573 -13.028  0.00  0.00    +0.075 C 
ATOM     10  C   UNL     1      38.718 -23.987 -15.131  0.00  0.00    +0.018 C 
ATOM     11  C   UNL     1      38.338 -24.919 -12.931  0.00  0.00    +0.006 C 
ATOM     12  C   UNL     1      36.055 -24.869 -11.933  0.00  0.00    +0.202 C 
ATOM     13  C   UNL     1      39.202 -24.624 -13.988  0.00  0.00    +0.002 C 
ATOM     14  C   UNL     1      34.298 -23.850 -13.287  0.00  0.00    +0.213 C 
ATOM     15  C   UNL     1      34.653 -24.458 -12.143  0.00  0.00    +0.090 C 
BRANCH  14  20
ATOM     16  N   UNL     1      31.874 -23.597 -12.811  0.00  0.00    -0.107 NA
ATOM     17  N   UNL     1      32.701 -22.741 -14.738  0.00  0.00    -0.084 NA
ATOM     18  N   UNL     1      30.956 -22.994 -13.580  0.00  0.00    -0.140 N 
ATOM     19  N   UNL     1      31.402 -22.473 -14.731  0.00  0.00    -0.022 NA
ATOM     20  C   UNL     1      32.952 -23.413 -13.577  0.00  0.00    +0.109 C 
ATOM     21  H   UNL     1      30.010 -22.938 -13.315  0.00  0.00    +0.197 HD
ENDBRANCH  14  20
ENDBRANCH   2   8
BRANCH   3  23
ATOM     22  C   UNL     1      35.271 -20.549 -20.458  0.00  0.00    +0.139 C 
ATOM     23  C   UNL     1      36.531 -21.308 -18.088  0.00  0.00    +0.054 C 
ATOM     24  C   UNL     1      34.597 -21.349 -19.535  0.00  0.00    +0.037 C 
ATOM     25  C   UNL     1      36.575 -20.129 -20.196  0.00  0.00    +0.037 C 
ATOM     26  C   UNL     1      35.227 -21.729 -18.350  0.00  0.00    +0.008 C 
ATOM     27  C   UNL     1      37.205 -20.508 -19.011  0.00  0.00    +0.008 C 
BRANCH  22  28
ATOM     28  O   UNL     1      34.655 -20.177 -21.613  0.00  0.00    -0.475 OA
BRANCH  28  29
ATOM     29  C   UNL     1      35.426 -19.420 -22.545  0.00  0.00    +0.205 C 
BRANCH  29  30
ATOM     30  C   UNL     1      34.794 -18.045 -22.705  0.00  0.00    +0.048 C 
BRANCH  30  31
ATOM     31  C   UNL     1      35.759 -16.931 -22.300  0.00  0.00    +0.009 C 
BRANCH  31  32
ATOM     32  C   UNL     1      35.596 -15.703 -23.199  0.00  0.00    +0.026 C 
BRANCH  32  33
ATOM     33  C   UNL     1      34.633 -14.705 -22.607  0.00  0.00    -0.022 C 
ATOM     34  C   UNL     1      34.547 -14.555 -21.223  0.00  0.00    -0.004 C 
ATOM     35  C   UNL     1      33.828 -13.932 -23.443  0.00  0.00    -0.004 C 
ATOM     36  C   UNL     1      33.657 -13.632 -20.675  0.00  0.00    -0.000 C 
ATOM     37  C   UNL     1      32.938 -13.008 -22.896  0.00  0.00    -0.000 C 
ATOM     38  C   UNL     1      32.852 -12.858 -21.512  0.00  0.00    -0.000 C 
ENDBRANCH  32  33
ENDBRANCH  31  32
ENDBRANCH  30  31
ENDBRANCH  29  30
ENDBRANCH  28  29
ENDBRANCH  22  28
ENDBRANCH   3  23
TORSDOF 9
ENDMDL
