MODEL 1
REMARK VINA RESULT:     -11.7      0.000      0.000
REMARK  Name = 24941248
REMARK  7 active torsions:
REMARK  status: ('A' for Active; 'I' for Inactive)
REMARK    1  A    between atoms: N_2  and  C_24
REMARK    2  A    between atoms: C_6  and  C_14
REMARK    3  A    between atoms: C_13  and  C_19
REMARK    4  A    between atoms: C_19  and  C_20
REMARK    5  A    between atoms: C_20  and  C_21
REMARK    6  A    between atoms: C_21  and  O_22
REMARK    7  A    between atoms: C_24  and  C_26
REMARK                            x       y       z     vdW  Elec       q    Type
REMARK                         _______ _______ _______ _____ _____    ______ ____
ROOT
ATOM      1  O   UNL     1      33.733 -15.698 -25.918  0.00  0.00    -0.352 OA
ATOM      2  N   UNL     1      35.931 -17.596 -21.331  0.00  0.00    -0.316 N 
ATOM      3  N   UNL     1      33.380 -14.396 -25.582  0.00  0.00    -0.077 NA
ATOM      4  N   UNL     1      35.328 -18.008 -23.597  0.00  0.00    -0.226 NA
ATOM      5  C   UNL     1      34.341 -15.414 -23.779  0.00  0.00    +0.062 A 
ATOM      6  C   UNL     1      33.749 -14.248 -24.305  0.00  0.00    +0.123 A 
ATOM      7  C   UNL     1      35.365 -17.143 -22.551  0.00  0.00    +0.129 C 
ATOM      8  C   UNL     1      34.892 -15.834 -22.568  0.00  0.00    +0.039 C 
ATOM      9  C   UNL     1      34.305 -16.300 -24.842  0.00  0.00    +0.196 A 
ATOM     10  C   UNL     1      34.791 -17.592 -24.770  0.00  0.00    +0.140 C 
ATOM     11  H   UNL     1      35.965 -16.977 -20.566  0.00  0.00    +0.148 HD
ENDROOT
BRANCH   6  14
ATOM     12 CL   UNL     1      34.569  -9.164 -24.080  0.00  0.00    -0.082 Cl
ATOM     13  C   UNL     1      32.538 -11.754 -21.807  0.00  0.00    -0.021 C 
ATOM     14  C   UNL     1      33.529 -12.999 -23.625  0.00  0.00    +0.021 C 
ATOM     15  C   UNL     1      32.753 -12.964 -22.466  0.00  0.00    -0.003 C 
ATOM     16  C   UNL     1      33.100 -10.579 -22.306  0.00  0.00    +0.007 C 
ATOM     17  C   UNL     1      34.091 -11.824 -24.124  0.00  0.00    +0.013 C 
ATOM     18  C   UNL     1      33.876 -10.614 -23.465  0.00  0.00    +0.057 C 
BRANCH  13  19
ATOM     19  C   UNL     1      31.708 -11.716 -20.569  0.00  0.00    +0.029 C 
BRANCH  19  20
ATOM     20  C   UNL     1      31.414 -10.282 -20.110  0.00  0.00    +0.036 C 
BRANCH  20  21
ATOM     21  C   UNL     1      32.085  -9.955 -18.784  0.00  0.00    +0.138 C 
BRANCH  21  22
ATOM     22  O   UNL     1      33.046  -8.930 -18.995  0.00  0.00    -0.382 OA
ATOM     23  H   UNL     1      32.591  -8.098 -19.197  0.00  0.00    +0.210 HD
ENDBRANCH  21  22
ENDBRANCH  20  21
ENDBRANCH  19  20
ENDBRANCH  13  19
ENDBRANCH   6  14
BRANCH   2  24
ATOM     24  C   UNL     1      36.453 -18.912 -21.167  0.00  0.00    +0.093 C 
ATOM     25  C   UNL     1      37.757 -18.848 -20.376  0.00  0.00    +0.026 C 
BRANCH  24  26
ATOM     26  C   UNL     1      35.417 -19.811 -20.528  0.00  0.00    -0.005 C 
ATOM     27  C   UNL     1      34.062 -19.596 -20.772  0.00  0.00    -0.003 C 
ATOM     28  C   UNL     1      35.818 -20.854 -19.693  0.00  0.00    -0.003 C 
ATOM     29  C   UNL     1      33.106 -20.424 -20.181  0.00  0.00    -0.000 C 
ATOM     30  C   UNL     1      34.864 -21.681 -19.103  0.00  0.00    -0.000 C 
ATOM     31  C   UNL     1      33.507 -21.467 -19.347  0.00  0.00    -0.000 C 
ENDBRANCH  24  26
ENDBRANCH   2  24
TORSDOF 7
ENDMDL
MODEL 2
REMARK VINA RESULT:     -11.2      1.584      2.434
REMARK  Name = 24941248
REMARK  7 active torsions:
REMARK  status: ('A' for Active; 'I' for Inactive)
REMARK    1  A    between atoms: N_2  and  C_24
REMARK    2  A    between atoms: C_6  and  C_14
REMARK    3  A    between atoms: C_13  and  C_19
REMARK    4  A    between atoms: C_19  and  C_20
REMARK    5  A    between atoms: C_20  and  C_21
REMARK    6  A    between atoms: C_21  and  O_22
REMARK    7  A    between atoms: C_24  and  C_26
REMARK                            x       y       z     vdW  Elec       q    Type
REMARK                         _______ _______ _______ _____ _____    ______ ____
ROOT
ATOM      1  O   UNL     1      33.894 -15.502 -25.921  0.00  0.00    -0.352 OA
ATOM      2  N   UNL     1      35.881 -17.535 -21.296  0.00  0.00    -0.316 N 
ATOM      3  N   UNL     1      33.480 -14.228 -25.552  0.00  0.00    -0.077 NA
ATOM      4  N   UNL     1      35.425 -17.865 -23.610  0.00  0.00    -0.226 NA
ATOM      5  C   UNL     1      34.366 -15.296 -23.740  0.00  0.00    +0.062 A 
ATOM      6  C   UNL     1      33.769 -14.126 -24.251  0.00  0.00    +0.123 A 
ATOM      7  C   UNL     1      35.373 -17.046 -22.527  0.00  0.00    +0.129 C 
ATOM      8  C   UNL     1      34.860 -15.752 -22.517  0.00  0.00    +0.039 C 
ATOM      9  C   UNL     1      34.421 -16.135 -24.839  0.00  0.00    +0.196 A 
ATOM     10  C   UNL     1      34.944 -17.413 -24.793  0.00  0.00    +0.140 C 
ATOM     11  H   UNL     1      35.850 -16.950 -20.504  0.00  0.00    +0.148 HD
ENDROOT
BRANCH   6  14
ATOM     12 CL   UNL     1      31.903 -11.890 -19.997  0.00  0.00    -0.082 Cl
ATOM     13  C   UNL     1      33.460 -10.503 -23.409  0.00  0.00    -0.021 C 
ATOM     14  C   UNL     1      33.469 -12.915 -23.532  0.00  0.00    +0.021 C 
ATOM     15  C   UNL     1      33.750 -11.676 -24.106  0.00  0.00    -0.003 C 
ATOM     16  C   UNL     1      32.889 -10.570 -22.138  0.00  0.00    +0.007 C 
ATOM     17  C   UNL     1      32.898 -12.982 -22.261  0.00  0.00    +0.013 C 
ATOM     18  C   UNL     1      32.608 -11.809 -21.564  0.00  0.00    +0.057 C 
BRANCH  13  19
ATOM     19  C   UNL     1      33.762  -9.177 -24.023  0.00  0.00    +0.029 C 
BRANCH  19  20
ATOM     20  C   UNL     1      35.259  -8.846 -23.985  0.00  0.00    +0.036 C 
BRANCH  20  21
ATOM     21  C   UNL     1      35.513  -7.367 -23.731  0.00  0.00    +0.138 C 
BRANCH  21  22
ATOM     22  O   UNL     1      34.810  -6.974 -22.561  0.00  0.00    -0.382 OA
ATOM     23  H   UNL     1      34.954  -7.631 -21.862  0.00  0.00    +0.210 HD
ENDBRANCH  21  22
ENDBRANCH  20  21
ENDBRANCH  19  20
ENDBRANCH  13  19
ENDBRANCH   6  14
BRANCH   2  24
ATOM     24  C   UNL     1      36.435 -18.842 -21.158  0.00  0.00    +0.093 C 
ATOM     25  C   UNL     1      37.742 -18.760 -20.372  0.00  0.00    +0.026 C 
BRANCH  24  26
ATOM     26  C   UNL     1      35.424 -19.775 -20.527  0.00  0.00    -0.005 C 
ATOM     27  C   UNL     1      34.065 -19.607 -20.786  0.00  0.00    -0.003 C 
ATOM     28  C   UNL     1      35.853 -20.803 -19.688  0.00  0.00    -0.003 C 
ATOM     29  C   UNL     1      33.132 -20.467 -20.204  0.00  0.00    -0.000 C 
ATOM     30  C   UNL     1      34.922 -21.663 -19.107  0.00  0.00    -0.000 C 
ATOM     31  C   UNL     1      33.561 -21.495 -19.365  0.00  0.00    -0.000 C 
ENDBRANCH  24  26
ENDBRANCH   2  24
TORSDOF 7
ENDMDL
MODEL 3
REMARK VINA RESULT:     -10.5      7.625     12.765
REMARK  Name = 24941248
REMARK  7 active torsions:
REMARK  status: ('A' for Active; 'I' for Inactive)
REMARK    1  A    between atoms: N_2  and  C_24
REMARK    2  A    between atoms: C_6  and  C_14
REMARK    3  A    between atoms: C_13  and  C_19
REMARK    4  A    between atoms: C_19  and  C_20
REMARK    5  A    between atoms: C_20  and  C_21
REMARK    6  A    between atoms: C_21  and  O_22
REMARK    7  A    between atoms: C_24  and  C_26
REMARK                            x       y       z     vdW  Elec       q    Type
REMARK                         _______ _______ _______ _____ _____    ______ ____
ROOT
ATOM      1  O   UNL     1      31.547 -23.906 -14.762  0.00  0.00    -0.352 OA
ATOM      2  N   UNL     1      34.626 -21.817 -18.716  0.00  0.00    -0.316 N 
ATOM      3  N   UNL     1      32.484 -24.368 -13.845  0.00  0.00    -0.077 NA
ATOM      4  N   UNL     1      32.438 -22.272 -17.893  0.00  0.00    -0.226 NA
ATOM      5  C   UNL     1      33.560 -23.431 -15.626  0.00  0.00    +0.062 A 
ATOM      6  C   UNL     1      33.674 -24.076 -14.379  0.00  0.00    +0.123 A 
ATOM      7  C   UNL     1      33.781 -22.350 -17.707  0.00  0.00    +0.129 C 
ATOM      8  C   UNL     1      34.413 -22.914 -16.602  0.00  0.00    +0.039 C 
ATOM      9  C   UNL     1      32.192 -23.349 -15.821  0.00  0.00    +0.196 A 
ATOM     10  C   UNL     1      31.617 -22.776 -16.940  0.00  0.00    +0.140 C 
ATOM     11  H   UNL     1      35.602 -21.867 -18.591  0.00  0.00    +0.148 HD
ENDROOT
BRANCH   6  14
ATOM     12 CL   UNL     1      36.388 -24.031  -9.996  0.00  0.00    -0.082 Cl
ATOM     13  C   UNL     1      37.090 -25.409 -13.685  0.00  0.00    -0.021 C 
ATOM     14  C   UNL     1      34.887 -24.419 -13.683  0.00  0.00    +0.021 C 
ATOM     15  C   UNL     1      35.916 -25.075 -14.359  0.00  0.00    -0.003 C 
ATOM     16  C   UNL     1      37.236 -25.086 -12.335  0.00  0.00    +0.007 C 
ATOM     17  C   UNL     1      35.033 -24.096 -12.334  0.00  0.00    +0.013 C 
ATOM     18  C   UNL     1      36.208 -24.430 -11.660  0.00  0.00    +0.057 C 
BRANCH  13  19
ATOM     19  C   UNL     1      38.190 -26.112 -14.406  0.00  0.00    +0.029 C 
BRANCH  19  20
ATOM     20  C   UNL     1      39.572 -25.773 -13.832  0.00  0.00    +0.036 C 
BRANCH  20  21
ATOM     21  C   UNL     1      40.496 -25.167 -14.879  0.00  0.00    +0.138 C 
BRANCH  21  22
ATOM     22  O   UNL     1      40.506 -26.009 -16.024  0.00  0.00    -0.382 OA
ATOM     23  H   UNL     1      40.831 -26.888 -15.776  0.00  0.00    +0.210 HD
ENDBRANCH  21  22
ENDBRANCH  20  21
ENDBRANCH  19  20
ENDBRANCH  13  19
ENDBRANCH   6  14
BRANCH   2  24
ATOM     24  C   UNL     1      34.119 -21.212 -19.903  0.00  0.00    +0.093 C 
ATOM     25  C   UNL     1      32.778 -20.547 -19.602  0.00  0.00    +0.026 C 
BRANCH  24  26
ATOM     26  C   UNL     1      35.138 -20.252 -20.477  0.00  0.00    -0.005 C 
ATOM     27  C   UNL     1      34.775 -19.381 -21.503  0.00  0.00    -0.003 C 
ATOM     28  C   UNL     1      36.442 -20.239 -19.979  0.00  0.00    -0.003 C 
ATOM     29  C   UNL     1      35.716 -18.496 -22.033  0.00  0.00    -0.000 C 
ATOM     30  C   UNL     1      37.381 -19.355 -20.509  0.00  0.00    -0.000 C 
ATOM     31  C   UNL     1      37.018 -18.483 -21.535  0.00  0.00    -0.000 C 
ENDBRANCH  24  26
ENDBRANCH   2  24
TORSDOF 7
ENDMDL
MODEL 4
REMARK VINA RESULT:      -9.4      4.121     10.264
REMARK  Name = 24941248
REMARK  7 active torsions:
REMARK  status: ('A' for Active; 'I' for Inactive)
REMARK    1  A    between atoms: N_2  and  C_24
REMARK    2  A    between atoms: C_6  and  C_14
REMARK    3  A    between atoms: C_13  and  C_19
REMARK    4  A    between atoms: C_19  and  C_20
REMARK    5  A    between atoms: C_20  and  C_21
REMARK    6  A    between atoms: C_21  and  O_22
REMARK    7  A    between atoms: C_24  and  C_26
REMARK                            x       y       z     vdW  Elec       q    Type
REMARK                         _______ _______ _______ _____ _____    ______ ____
ROOT
ATOM      1  O   UNL     1      31.806 -12.076 -19.887  0.00  0.00    -0.352 OA
ATOM      2  N   UNL     1      32.810  -7.883 -23.187  0.00  0.00    -0.316 N 
ATOM      3  N   UNL     1      32.299 -13.162 -20.601  0.00  0.00    -0.077 NA
ATOM      4  N   UNL     1      31.921  -8.648 -21.114  0.00  0.00    -0.226 NA
ATOM      5  C   UNL     1      32.614 -11.251 -21.808  0.00  0.00    +0.062 A 
ATOM      6  C   UNL     1      32.774 -12.650 -21.740  0.00  0.00    +0.123 A 
ATOM      7  C   UNL     1      32.528  -8.948 -22.292  0.00  0.00    +0.129 C 
ATOM      8  C   UNL     1      32.903 -10.223 -22.706  0.00  0.00    +0.039 C 
ATOM      9  C   UNL     1      31.995 -10.940 -20.610  0.00  0.00    +0.196 A 
ATOM     10  C   UNL     1      31.645  -9.653 -20.248  0.00  0.00    +0.140 C 
ATOM     11  H   UNL     1      33.250  -8.088 -24.043  0.00  0.00    +0.148 HD
ENDROOT
BRANCH   6  14
ATOM     12 CL   UNL     1      33.302 -13.913 -26.711  0.00  0.00    -0.082 Cl
ATOM     13  C   UNL     1      34.809 -15.362 -23.300  0.00  0.00    -0.021 C 
ATOM     14  C   UNL     1      33.369 -13.508 -22.731  0.00  0.00    +0.021 C 
ATOM     15  C   UNL     1      34.232 -14.531 -22.340  0.00  0.00    -0.003 C 
ATOM     16  C   UNL     1      34.521 -15.171 -24.652  0.00  0.00    +0.007 C 
ATOM     17  C   UNL     1      33.081 -13.317 -24.083  0.00  0.00    +0.013 C 
ATOM     18  C   UNL     1      33.657 -14.148 -25.043  0.00  0.00    +0.057 C 
BRANCH  13  19
ATOM     19  C   UNL     1      35.733 -16.455 -22.882  0.00  0.00    +0.029 C 
BRANCH  19  20
ATOM     20  C   UNL     1      35.158 -17.847 -23.174  0.00  0.00    +0.036 C 
BRANCH  20  21
ATOM     21  C   UNL     1      35.318 -18.793 -21.993  0.00  0.00    +0.138 C 
BRANCH  21  22
ATOM     22  O   UNL     1      35.673 -18.037 -20.844  0.00  0.00    -0.382 OA
ATOM     23  H   UNL     1      36.635 -17.911 -20.824  0.00  0.00    +0.210 HD
ENDBRANCH  21  22
ENDBRANCH  20  21
ENDBRANCH  19  20
ENDBRANCH  13  19
ENDBRANCH   6  14
BRANCH   2  24
ATOM     24  C   UNL     1      32.480  -6.527 -22.896  0.00  0.00    +0.093 C 
ATOM     25  C   UNL     1      33.041  -6.149 -21.527  0.00  0.00    +0.026 C 
BRANCH  24  26
ATOM     26  C   UNL     1      32.968  -5.620 -24.005  0.00  0.00    -0.005 C 
ATOM     27  C   UNL     1      32.082  -4.744 -24.630  0.00  0.00    -0.003 C 
ATOM     28  C   UNL     1      34.305  -5.661 -24.401  0.00  0.00    -0.003 C 
ATOM     29  C   UNL     1      32.532  -3.908 -25.653  0.00  0.00    -0.000 C 
ATOM     30  C   UNL     1      34.755  -4.827 -25.424  0.00  0.00    -0.000 C 
ATOM     31  C   UNL     1      33.869  -3.949 -26.049  0.00  0.00    -0.000 C 
ENDBRANCH  24  26
ENDBRANCH   2  24
TORSDOF 7
ENDMDL
MODEL 5
REMARK VINA RESULT:      -9.1      5.053      8.652
REMARK  Name = 24941248
REMARK  7 active torsions:
REMARK  status: ('A' for Active; 'I' for Inactive)
REMARK    1  A    between atoms: N_2  and  C_24
REMARK    2  A    between atoms: C_6  and  C_14
REMARK    3  A    between atoms: C_13  and  C_19
REMARK    4  A    between atoms: C_19  and  C_20
REMARK    5  A    between atoms: C_20  and  C_21
REMARK    6  A    between atoms: C_21  and  O_22
REMARK    7  A    between atoms: C_24  and  C_26
REMARK                            x       y       z     vdW  Elec       q    Type
REMARK                         _______ _______ _______ _____ _____    ______ ____
ROOT
ATOM      1  O   UNL     1      32.701 -22.417 -18.691  0.00  0.00    -0.352 OA
ATOM      2  N   UNL     1      37.257 -22.318 -15.740  0.00  0.00    -0.316 N 
ATOM      3  N   UNL     1      33.005 -21.589 -19.765  0.00  0.00    -0.077 NA
ATOM      4  N   UNL     1      35.034 -23.136 -15.988  0.00  0.00    -0.226 NA
ATOM      5  C   UNL     1      34.800 -21.705 -18.362  0.00  0.00    +0.062 A 
ATOM      6  C   UNL     1      34.258 -21.176 -19.550  0.00  0.00    +0.123 A 
ATOM      7  C   UNL     1      36.046 -22.374 -16.478  0.00  0.00    +0.129 C 
ATOM      8  C   UNL     1      36.002 -21.633 -17.656  0.00  0.00    +0.039 C 
ATOM      9  C   UNL     1      33.773 -22.483 -17.858  0.00  0.00    +0.196 A 
ATOM     10  C   UNL     1      33.871 -23.201 -16.681  0.00  0.00    +0.140 C 
ATOM     11  H   UNL     1      37.998 -21.769 -16.086  0.00  0.00    +0.148 HD
ENDROOT
BRANCH   6  14
ATOM     12 CL   UNL     1      38.403 -18.382 -20.811  0.00  0.00    -0.082 Cl
ATOM     13  C   UNL     1      34.862 -19.041 -22.551  0.00  0.00    -0.021 C 
ATOM     14  C   UNL     1      34.902 -20.289 -20.483  0.00  0.00    +0.021 C 
ATOM     15  C   UNL     1      34.238 -19.900 -21.646  0.00  0.00    -0.003 C 
ATOM     16  C   UNL     1      36.150 -18.572 -22.293  0.00  0.00    +0.007 C 
ATOM     17  C   UNL     1      36.190 -19.820 -20.225  0.00  0.00    +0.013 C 
ATOM     18  C   UNL     1      36.814 -18.961 -21.130  0.00  0.00    +0.057 C 
BRANCH  13  19
ATOM     19  C   UNL     1      34.153 -18.626 -23.796  0.00  0.00    +0.029 C 
BRANCH  19  20
ATOM     20  C   UNL     1      34.964 -17.615 -24.617  0.00  0.00    +0.036 C 
BRANCH  20  21
ATOM     21  C   UNL     1      34.431 -16.197 -24.469  0.00  0.00    +0.138 C 
BRANCH  21  22
ATOM     22  O   UNL     1      33.551 -15.922 -25.550  0.00  0.00    -0.382 OA
ATOM     23  H   UNL     1      33.910 -15.193 -26.081  0.00  0.00    +0.210 HD
ENDBRANCH  21  22
ENDBRANCH  20  21
ENDBRANCH  19  20
ENDBRANCH  13  19
ENDBRANCH   6  14
BRANCH   2  24
ATOM     24  C   UNL     1      37.444 -23.024 -14.515  0.00  0.00    +0.093 C 
ATOM     25  C   UNL     1      36.108 -23.139 -13.785  0.00  0.00    +0.026 C 
BRANCH  24  26
ATOM     26  C   UNL     1      38.091 -24.366 -14.779  0.00  0.00    -0.005 C 
ATOM     27  C   UNL     1      39.472 -24.454 -14.942  0.00  0.00    -0.003 C 
ATOM     28  C   UNL     1      37.305 -25.516 -14.858  0.00  0.00    -0.003 C 
ATOM     29  C   UNL     1      40.069 -25.692 -15.186  0.00  0.00    -0.000 C 
ATOM     30  C   UNL     1      37.900 -26.752 -15.102  0.00  0.00    -0.000 C 
ATOM     31  C   UNL     1      39.283 -26.841 -15.265  0.00  0.00    -0.000 C 
ENDBRANCH  24  26
ENDBRANCH   2  24
TORSDOF 7
ENDMDL
MODEL 6
REMARK VINA RESULT:      -9.1      3.105      8.510
REMARK  Name = 24941248
REMARK  7 active torsions:
REMARK  status: ('A' for Active; 'I' for Inactive)
REMARK    1  A    between atoms: N_2  and  C_24
REMARK    2  A    between atoms: C_6  and  C_14
REMARK    3  A    between atoms: C_13  and  C_19
REMARK    4  A    between atoms: C_19  and  C_20
REMARK    5  A    between atoms: C_20  and  C_21
REMARK    6  A    between atoms: C_21  and  O_22
REMARK    7  A    between atoms: C_24  and  C_26
REMARK                            x       y       z     vdW  Elec       q    Type
REMARK                         _______ _______ _______ _____ _____    ______ ____
ROOT
ATOM      1  O   UNL     1      33.025 -16.981 -25.796  0.00  0.00    -0.352 OA
ATOM      2  N   UNL     1      34.754 -12.364 -23.521  0.00  0.00    -0.316 N 
ATOM      3  N   UNL     1      33.571 -17.959 -24.974  0.00  0.00    -0.077 NA
ATOM      4  N   UNL     1      33.507 -13.410 -25.259  0.00  0.00    -0.226 NA
ATOM      5  C   UNL     1      34.171 -15.897 -24.204  0.00  0.00    +0.062 A 
ATOM      6  C   UNL     1      34.249 -17.293 -24.034  0.00  0.00    +0.123 A 
ATOM      7  C   UNL     1      34.279 -13.545 -24.150  0.00  0.00    +0.129 C 
ATOM      8  C   UNL     1      34.651 -14.752 -23.566  0.00  0.00    +0.039 C 
ATOM      9  C   UNL     1      33.385 -15.754 -25.334  0.00  0.00    +0.196 A 
ATOM     10  C   UNL     1      33.045 -14.527 -25.872  0.00  0.00    +0.140 C 
ATOM     11  H   UNL     1      35.314 -12.449 -22.715  0.00  0.00    +0.148 HD
ENDROOT
BRANCH   6  14
ATOM     12 CL   UNL     1      38.708 -18.337 -21.666  0.00  0.00    -0.082 Cl
ATOM     13  C   UNL     1      34.934 -19.554 -21.144  0.00  0.00    -0.021 C 
ATOM     14  C   UNL     1      34.951 -18.008 -23.000  0.00  0.00    +0.021 C 
ATOM     15  C   UNL     1      34.254 -18.863 -22.147  0.00  0.00    -0.003 C 
ATOM     16  C   UNL     1      36.312 -19.392 -20.996  0.00  0.00    +0.007 C 
ATOM     17  C   UNL     1      36.329 -17.845 -22.852  0.00  0.00    +0.013 C 
ATOM     18  C   UNL     1      37.009 -18.537 -21.849  0.00  0.00    +0.057 C 
BRANCH  13  19
ATOM     19  C   UNL     1      34.188 -20.467 -20.231  0.00  0.00    +0.029 C 
BRANCH  19  20
ATOM     20  C   UNL     1      35.123 -21.411 -19.463  0.00  0.00    +0.036 C 
BRANCH  20  21
ATOM     21  C   UNL     1      34.370 -22.270 -18.456  0.00  0.00    +0.138 C 
BRANCH  21  22
ATOM     22  O   UNL     1      33.924 -23.453 -19.104  0.00  0.00    -0.382 OA
ATOM     23  H   UNL     1      33.554 -23.226 -19.972  0.00  0.00    +0.210 HD
ENDBRANCH  21  22
ENDBRANCH  20  21
ENDBRANCH  19  20
ENDBRANCH  13  19
ENDBRANCH   6  14
BRANCH   2  24
ATOM     24  C   UNL     1      34.454 -11.059 -24.009  0.00  0.00    +0.093 C 
ATOM     25  C   UNL     1      34.164 -11.130 -25.507  0.00  0.00    +0.026 C 
BRANCH  24  26
ATOM     26  C   UNL     1      33.318 -10.452 -23.215  0.00  0.00    -0.005 C 
ATOM     27  C   UNL     1      32.948  -9.125 -23.431  0.00  0.00    -0.003 C 
ATOM     28  C   UNL     1      32.640 -11.220 -22.268  0.00  0.00    -0.003 C 
ATOM     29  C   UNL     1      31.900  -8.565 -22.698  0.00  0.00    -0.000 C 
ATOM     30  C   UNL     1      31.594 -10.661 -21.536  0.00  0.00    -0.000 C 
ATOM     31  C   UNL     1      31.223  -9.333 -21.751  0.00  0.00    -0.000 C 
ENDBRANCH  24  26
ENDBRANCH   2  24
TORSDOF 7
ENDMDL
MODEL 7
REMARK VINA RESULT:      -8.8      7.487     12.262
REMARK  Name = 24941248
REMARK  7 active torsions:
REMARK  status: ('A' for Active; 'I' for Inactive)
REMARK    1  A    between atoms: N_2  and  C_24
REMARK    2  A    between atoms: C_6  and  C_14
REMARK    3  A    between atoms: C_13  and  C_19
REMARK    4  A    between atoms: C_19  and  C_20
REMARK    5  A    between atoms: C_20  and  C_21
REMARK    6  A    between atoms: C_21  and  O_22
REMARK    7  A    between atoms: C_24  and  C_26
REMARK                            x       y       z     vdW  Elec       q    Type
REMARK                         _______ _______ _______ _____ _____    ______ ____
ROOT
ATOM      1  O   UNL     1      31.465 -23.614 -15.163  0.00  0.00    -0.352 OA
ATOM      2  N   UNL     1      34.570 -21.631 -19.150  0.00  0.00    -0.316 N 
ATOM      3  N   UNL     1      32.386 -24.229 -14.323  0.00  0.00    -0.077 NA
ATOM      4  N   UNL     1      32.386 -21.898 -18.241  0.00  0.00    -0.226 NA
ATOM      5  C   UNL     1      33.476 -23.306 -16.104  0.00  0.00    +0.062 A 
ATOM      6  C   UNL     1      33.576 -24.034 -14.902  0.00  0.00    +0.123 A 
ATOM      7  C   UNL     1      33.719 -22.131 -18.130  0.00  0.00    +0.129 C 
ATOM      8  C   UNL     1      34.335 -22.825 -17.093  0.00  0.00    +0.039 C 
ATOM      9  C   UNL     1      32.118 -23.066 -16.222  0.00  0.00    +0.196 A 
ATOM     10  C   UNL     1      31.559 -22.368 -17.276  0.00  0.00    +0.140 C 
ATOM     11  H   UNL     1      35.539 -21.793 -19.080  0.00  0.00    +0.148 HD
ENDROOT
BRANCH   6  14
ATOM     12 CL   UNL     1      37.889 -26.823 -15.353  0.00  0.00    -0.082 Cl
ATOM     13  C   UNL     1      36.222 -24.746 -12.368  0.00  0.00    -0.021 C 
ATOM     14  C   UNL     1      34.774 -24.548 -14.291  0.00  0.00    +0.021 C 
ATOM     15  C   UNL     1      35.061 -24.250 -12.959  0.00  0.00    -0.003 C 
ATOM     16  C   UNL     1      37.096 -25.542 -13.108  0.00  0.00    +0.007 C 
ATOM     17  C   UNL     1      35.648 -25.344 -15.032  0.00  0.00    +0.013 C 
ATOM     18  C   UNL     1      36.810 -25.841 -14.440  0.00  0.00    +0.057 C 
BRANCH  13  19
ATOM     19  C   UNL     1      36.530 -24.426 -10.944  0.00  0.00    +0.029 C 
BRANCH  19  20
ATOM     20  C   UNL     1      37.973 -23.941 -10.756  0.00  0.00    +0.036 C 
BRANCH  20  21
ATOM     21  C   UNL     1      38.431 -23.047 -11.899  0.00  0.00    +0.138 C 
BRANCH  21  22
ATOM     22  O   UNL     1      38.129 -21.697 -11.576  0.00  0.00    -0.382 OA
ATOM     23  H   UNL     1      37.971 -21.197 -12.393  0.00  0.00    +0.210 HD
ENDBRANCH  21  22
ENDBRANCH  20  21
ENDBRANCH  19  20
ENDBRANCH  13  19
ENDBRANCH   6  14
BRANCH   2  24
ATOM     24  C   UNL     1      34.079 -20.904 -20.274  0.00  0.00    +0.093 C 
ATOM     25  C   UNL     1      32.826 -20.131 -19.871  0.00  0.00    +0.026 C 
BRANCH  24  26
ATOM     26  C   UNL     1      35.166 -20.015 -20.838  0.00  0.00    -0.005 C 
ATOM     27  C   UNL     1      34.930 -19.272 -21.993  0.00  0.00    -0.003 C 
ATOM     28  C   UNL     1      36.405 -19.937 -20.200  0.00  0.00    -0.003 C 
ATOM     29  C   UNL     1      35.933 -18.453 -22.514  0.00  0.00    -0.000 C 
ATOM     30  C   UNL     1      37.407 -19.119 -20.720  0.00  0.00    -0.000 C 
ATOM     31  C   UNL     1      37.171 -18.376 -21.876  0.00  0.00    -0.000 C 
ENDBRANCH  24  26
ENDBRANCH   2  24
TORSDOF 7
ENDMDL
