MODEL 1
REMARK VINA RESULT:     -12.2      0.000      0.000
REMARK  Name = 24941249
REMARK  6 active torsions:
REMARK  status: ('A' for Active; 'I' for Inactive)
REMARK    1  A    between atoms: N_1  and  C_13
REMARK    2  A    between atoms: N_2  and  C_26
REMARK    3  A    between atoms: C_14  and  C_19
REMARK    4  A    between atoms: C_19  and  C_20
REMARK    5  A    between atoms: C_20  and  C_23
REMARK    6  A    between atoms: C_26  and  C_28
REMARK                            x       y       z     vdW  Elec       q    Type
REMARK                         _______ _______ _______ _____ _____    ______ ____
ROOT
ATOM      1  N   UNL     1      34.617 -24.010 -13.611  0.00  0.00    -0.230 N 
ATOM      2  N   UNL     1      34.969 -22.053 -18.075  0.00  0.00    -0.316 N 
ATOM      3  N   UNL     1      33.594 -24.512 -12.897  0.00  0.00    -0.169 NA
ATOM      4  N   UNL     1      32.928 -22.847 -17.142  0.00  0.00    -0.229 NA
ATOM      5  C   UNL     1      34.264 -23.555 -14.851  0.00  0.00    +0.088 A 
ATOM      6  C   UNL     1      32.897 -23.781 -14.950  0.00  0.00    +0.052 A 
ATOM      7  C   UNL     1      32.549 -24.371 -13.716  0.00  0.00    +0.082 A 
ATOM      8  C   UNL     1      35.007 -22.976 -15.874  0.00  0.00    +0.053 C 
ATOM      9  C   UNL     1      34.261 -22.648 -16.996  0.00  0.00    +0.130 C 
ATOM     10  C   UNL     1      32.237 -23.414 -16.122  0.00  0.00    +0.103 C 
ATOM     11  C   UNL     1      31.216 -24.819 -13.277  0.00  0.00    +0.054 C 
ATOM     12  H   UNL     1      35.937 -21.902 -17.979  0.00  0.00    +0.148 HD
ENDROOT
BRANCH   1  13
ATOM     13  C   UNL     1      35.898 -23.994 -13.059  0.00  0.00    +0.082 C 
ATOM     14  C   UNL     1      38.177 -24.797 -13.035  0.00  0.00    -0.020 C 
ATOM     15  C   UNL     1      36.895 -24.813 -13.587  0.00  0.00    +0.015 C 
ATOM     16  C   UNL     1      36.182 -23.157 -11.980  0.00  0.00    +0.019 C 
ATOM     17  C   UNL     1      38.460 -23.960 -11.956  0.00  0.00    -0.004 C 
ATOM     18  C   UNL     1      37.463 -23.139 -11.428  0.00  0.00    +0.001 C 
BRANCH  14  19
ATOM     19  C   UNL     1      39.243 -25.674 -13.598  0.00  0.00    +0.036 C 
BRANCH  19  20
ATOM     20  C   UNL     1      38.737 -26.524 -14.770  0.00  0.00    +0.089 C 
BRANCH  20  23
ATOM     21  O   UNL     1      40.995 -27.353 -15.086  0.00  0.00    -0.275 OA
ATOM     22  N   UNL     1      39.455 -27.658 -16.766  0.00  0.00    -0.329 N 
ATOM     23  C   UNL     1      39.858 -27.211 -15.526  0.00  0.00    +0.220 C 
ATOM     24  H   UNL     1      40.094 -28.121 -17.353  0.00  0.00    +0.145 HD
ATOM     25  H   UNL     1      38.528 -27.513 -17.064  0.00  0.00    +0.145 HD
ENDBRANCH  20  23
ENDBRANCH  19  20
ENDBRANCH  14  19
ENDBRANCH   1  13
BRANCH   2  26
ATOM     26  C   UNL     1      34.332 -21.666 -19.289  0.00  0.00    +0.093 C 
ATOM     27  C   UNL     1      32.907 -21.203 -18.990  0.00  0.00    +0.026 C 
BRANCH  26  28
ATOM     28  C   UNL     1      35.157 -20.616 -20.001  0.00  0.00    -0.005 C 
ATOM     29  C   UNL     1      34.545 -19.730 -20.888  0.00  0.00    -0.003 C 
ATOM     30  C   UNL     1      36.530 -20.533 -19.769  0.00  0.00    -0.003 C 
ATOM     31  C   UNL     1      35.306 -18.763 -21.544  0.00  0.00    -0.000 C 
ATOM     32  C   UNL     1      37.291 -19.566 -20.425  0.00  0.00    -0.000 C 
ATOM     33  C   UNL     1      36.679 -18.680 -21.313  0.00  0.00    -0.000 C 
ENDBRANCH  26  28
ENDBRANCH   2  26
TORSDOF 6
ENDMDL
MODEL 2
REMARK VINA RESULT:     -12.1      8.118     13.675
REMARK  Name = 24941249
REMARK  6 active torsions:
REMARK  status: ('A' for Active; 'I' for Inactive)
REMARK    1  A    between atoms: N_1  and  C_13
REMARK    2  A    between atoms: N_2  and  C_26
REMARK    3  A    between atoms: C_14  and  C_19
REMARK    4  A    between atoms: C_19  and  C_20
REMARK    5  A    between atoms: C_20  and  C_23
REMARK    6  A    between atoms: C_26  and  C_28
REMARK                            x       y       z     vdW  Elec       q    Type
REMARK                         _______ _______ _______ _____ _____    ______ ____
ROOT
ATOM      1  N   UNL     1      33.425 -13.350 -23.157  0.00  0.00    -0.230 N 
ATOM      2  N   UNL     1      35.573 -17.327 -21.300  0.00  0.00    -0.316 N 
ATOM      3  N   UNL     1      33.217 -12.909 -24.410  0.00  0.00    -0.169 NA
ATOM      4  N   UNL     1      35.399 -16.892 -23.633  0.00  0.00    -0.229 NA
ATOM      5  C   UNL     1      34.085 -14.546 -23.087  0.00  0.00    +0.088 A 
ATOM      6  C   UNL     1      34.324 -14.911 -24.406  0.00  0.00    +0.052 A 
ATOM      7  C   UNL     1      33.765 -13.863 -25.167  0.00  0.00    +0.082 A 
ATOM      8  C   UNL     1      34.485 -15.323 -22.006  0.00  0.00    +0.053 C 
ATOM      9  C   UNL     1      35.141 -16.491 -22.364  0.00  0.00    +0.130 C 
ATOM     10  C   UNL     1      34.993 -16.107 -24.662  0.00  0.00    +0.103 C 
ATOM     11  C   UNL     1      33.734 -13.733 -26.634  0.00  0.00    +0.054 C 
ATOM     12  H   UNL     1      35.392 -17.045 -20.375  0.00  0.00    +0.148 HD
ENDROOT
BRANCH   1  13
ATOM     13  C   UNL     1      32.973 -12.591 -22.077  0.00  0.00    +0.082 C 
ATOM     14  C   UNL     1      32.242 -10.476 -21.165  0.00  0.00    -0.020 C 
ATOM     15  C   UNL     1      32.693 -11.235 -22.246  0.00  0.00    +0.015 C 
ATOM     16  C   UNL     1      32.801 -13.189 -20.829  0.00  0.00    +0.019 C 
ATOM     17  C   UNL     1      32.069 -11.074 -19.917  0.00  0.00    -0.004 C 
ATOM     18  C   UNL     1      32.348 -12.431 -19.749  0.00  0.00    +0.001 C 
BRANCH  14  19
ATOM     19  C   UNL     1      31.944  -9.026 -21.345  0.00  0.00    +0.036 C 
BRANCH  19  20
ATOM     20  C   UNL     1      32.125  -8.231 -20.046  0.00  0.00    +0.089 C 
BRANCH  20  23
ATOM     21  O   UNL     1      33.437  -6.345 -19.267  0.00  0.00    -0.275 OA
ATOM     22  N   UNL     1      33.667  -7.032 -21.450  0.00  0.00    -0.329 N 
ATOM     23  C   UNL     1      33.132  -7.105 -20.181  0.00  0.00    +0.220 C 
ATOM     24  H   UNL     1      34.334  -6.340 -21.662  0.00  0.00    +0.145 HD
ATOM     25  H   UNL     1      33.381  -7.670 -22.142  0.00  0.00    +0.145 HD
ENDBRANCH  20  23
ENDBRANCH  19  20
ENDBRANCH  14  19
ENDBRANCH   1  13
BRANCH   2  26
ATOM     26  C   UNL     1      36.258 -18.557 -21.520  0.00  0.00    +0.093 C 
ATOM     27  C   UNL     1      37.746 -18.368 -21.228  0.00  0.00    +0.026 C 
BRANCH  26  28
ATOM     28  C   UNL     1      35.630 -19.660 -20.696  0.00  0.00    -0.005 C 
ATOM     29  C   UNL     1      36.437 -20.534 -19.968  0.00  0.00    -0.003 C 
ATOM     30  C   UNL     1      34.243 -19.802 -20.664  0.00  0.00    -0.003 C 
ATOM     31  C   UNL     1      35.858 -21.550 -19.209  0.00  0.00    -0.000 C 
ATOM     32  C   UNL     1      33.663 -20.819 -19.905  0.00  0.00    -0.000 C 
ATOM     33  C   UNL     1      34.471 -21.693 -19.177  0.00  0.00    -0.000 C 
ENDBRANCH  26  28
ENDBRANCH   2  26
TORSDOF 6
ENDMDL
MODEL 3
REMARK VINA RESULT:     -11.2      3.972      8.734
REMARK  Name = 24941249
REMARK  6 active torsions:
REMARK  status: ('A' for Active; 'I' for Inactive)
REMARK    1  A    between atoms: N_1  and  C_13
REMARK    2  A    between atoms: N_2  and  C_26
REMARK    3  A    between atoms: C_14  and  C_19
REMARK    4  A    between atoms: C_19  and  C_20
REMARK    5  A    between atoms: C_20  and  C_23
REMARK    6  A    between atoms: C_26  and  C_28
REMARK                            x       y       z     vdW  Elec       q    Type
REMARK                         _______ _______ _______ _____ _____    ______ ____
ROOT
ATOM      1  N   UNL     1      32.595 -22.868 -16.754  0.00  0.00    -0.230 N 
ATOM      2  N   UNL     1      36.226 -23.766 -13.609  0.00  0.00    -0.316 N 
ATOM      3  N   UNL     1      32.546 -22.319 -17.980  0.00  0.00    -0.169 NA
ATOM      4  N   UNL     1      36.548 -22.753 -15.738  0.00  0.00    -0.229 NA
ATOM      5  C   UNL     1      33.852 -22.929 -16.217  0.00  0.00    +0.088 A 
ATOM      6  C   UNL     1      34.688 -22.372 -17.177  0.00  0.00    +0.052 A 
ATOM      7  C   UNL     1      33.822 -22.018 -18.234  0.00  0.00    +0.082 A 
ATOM      8  C   UNL     1      34.320 -23.412 -15.001  0.00  0.00    +0.053 C 
ATOM      9  C   UNL     1      35.691 -23.288 -14.835  0.00  0.00    +0.130 C 
ATOM     10  C   UNL     1      36.055 -22.291 -16.914  0.00  0.00    +0.103 C 
ATOM     11  C   UNL     1      34.177 -21.386 -19.516  0.00  0.00    +0.054 C 
ATOM     12  H   UNL     1      35.613 -24.155 -12.945  0.00  0.00    +0.148 HD
ENDROOT
BRANCH   1  13
ATOM     13  C   UNL     1      31.418 -23.314 -16.152  0.00  0.00    +0.082 C 
ATOM     14  C   UNL     1      29.047 -23.070 -15.757  0.00  0.00    -0.020 C 
ATOM     15  C   UNL     1      30.224 -22.624 -16.359  0.00  0.00    +0.015 C 
ATOM     16  C   UNL     1      31.435 -24.451 -15.344  0.00  0.00    +0.019 C 
ATOM     17  C   UNL     1      29.064 -24.206 -14.949  0.00  0.00    -0.004 C 
ATOM     18  C   UNL     1      30.258 -24.898 -14.742  0.00  0.00    +0.001 C 
BRANCH  14  19
ATOM     19  C   UNL     1      27.770 -22.331 -15.977  0.00  0.00    +0.036 C 
BRANCH  19  20
ATOM     20  C   UNL     1      27.207 -22.552 -17.386  0.00  0.00    +0.089 C 
BRANCH  20  23
ATOM     21  O   UNL     1      26.395 -20.266 -17.343  0.00  0.00    -0.275 OA
ATOM     22  N   UNL     1      25.741 -21.645 -19.064  0.00  0.00    -0.329 N 
ATOM     23  C   UNL     1      26.422 -21.360 -17.900  0.00  0.00    +0.220 C 
ATOM     24  H   UNL     1      25.194 -20.950 -19.496  0.00  0.00    +0.145 HD
ATOM     25  H   UNL     1      25.802 -22.543 -19.462  0.00  0.00    +0.145 HD
ENDBRANCH  20  23
ENDBRANCH  19  20
ENDBRANCH  14  19
ENDBRANCH   1  13
BRANCH   2  26
ATOM     26  C   UNL     1      37.617 -23.704 -13.303  0.00  0.00    +0.093 C 
ATOM     27  C   UNL     1      37.803 -23.692 -11.787  0.00  0.00    +0.026 C 
BRANCH  26  28
ATOM     28  C   UNL     1      38.352 -24.840 -13.980  0.00  0.00    -0.005 C 
ATOM     29  C   UNL     1      39.740 -24.790 -14.116  0.00  0.00    -0.003 C 
ATOM     30  C   UNL     1      37.643 -25.937 -14.468  0.00  0.00    -0.003 C 
ATOM     31  C   UNL     1      40.417 -25.836 -14.741  0.00  0.00    -0.000 C 
ATOM     32  C   UNL     1      38.321 -26.984 -15.093  0.00  0.00    -0.000 C 
ATOM     33  C   UNL     1      39.708 -26.934 -15.229  0.00  0.00    -0.000 C 
ENDBRANCH  26  28
ENDBRANCH   2  26
TORSDOF 6
ENDMDL
MODEL 4
REMARK VINA RESULT:     -11.1      3.363      8.551
REMARK  Name = 24941249
REMARK  6 active torsions:
REMARK  status: ('A' for Active; 'I' for Inactive)
REMARK    1  A    between atoms: N_1  and  C_13
REMARK    2  A    between atoms: N_2  and  C_26
REMARK    3  A    between atoms: C_14  and  C_19
REMARK    4  A    between atoms: C_19  and  C_20
REMARK    5  A    between atoms: C_20  and  C_23
REMARK    6  A    between atoms: C_26  and  C_28
REMARK                            x       y       z     vdW  Elec       q    Type
REMARK                         _______ _______ _______ _____ _____    ______ ____
ROOT
ATOM      1  N   UNL     1      33.580 -22.049 -17.882  0.00  0.00    -0.230 N 
ATOM      2  N   UNL     1      36.521 -24.537 -14.876  0.00  0.00    -0.316 N 
ATOM      3  N   UNL     1      32.248 -21.872 -17.939  0.00  0.00    -0.169 NA
ATOM      4  N   UNL     1      34.153 -24.467 -14.643  0.00  0.00    -0.229 NA
ATOM      5  C   UNL     1      33.995 -22.843 -16.849  0.00  0.00    +0.088 A 
ATOM      6  C   UNL     1      32.835 -23.212 -16.181  0.00  0.00    +0.052 A 
ATOM      7  C   UNL     1      31.799 -22.582 -16.902  0.00  0.00    +0.082 A 
ATOM      8  C   UNL     1      35.260 -23.262 -16.451  0.00  0.00    +0.053 C 
ATOM      9  C   UNL     1      35.256 -24.078 -15.330  0.00  0.00    +0.130 C 
ATOM     10  C   UNL     1      32.937 -24.038 -15.062  0.00  0.00    +0.103 C 
ATOM     11  C   UNL     1      30.352 -22.633 -16.629  0.00  0.00    +0.054 C 
ATOM     12  H   UNL     1      37.327 -24.262 -15.368  0.00  0.00    +0.148 HD
ENDROOT
BRANCH   1  13
ATOM     13  C   UNL     1      34.397 -21.437 -18.834  0.00  0.00    +0.082 C 
ATOM     14  C   UNL     1      34.644 -20.071 -20.811  0.00  0.00    -0.020 C 
ATOM     15  C   UNL     1      33.827 -20.683 -19.860  0.00  0.00    +0.015 C 
ATOM     16  C   UNL     1      35.782 -21.578 -18.758  0.00  0.00    +0.019 C 
ATOM     17  C   UNL     1      36.029 -20.212 -20.736  0.00  0.00    -0.004 C 
ATOM     18  C   UNL     1      36.599 -20.965 -19.709  0.00  0.00    +0.001 C 
BRANCH  14  19
ATOM     19  C   UNL     1      34.036 -19.266 -21.910  0.00  0.00    +0.036 C 
BRANCH  19  20
ATOM     20  C   UNL     1      34.895 -19.275 -23.180  0.00  0.00    +0.089 C 
BRANCH  20  23
ATOM     21  O   UNL     1      34.187 -17.635 -24.822  0.00  0.00    -0.275 OA
ATOM     22  N   UNL     1      35.862 -17.078 -23.347  0.00  0.00    -0.329 N 
ATOM     23  C   UNL     1      34.920 -17.931 -23.883  0.00  0.00    +0.220 C 
ATOM     24  H   UNL     1      35.974 -16.174 -23.719  0.00  0.00    +0.145 HD
ATOM     25  H   UNL     1      36.421 -17.374 -22.594  0.00  0.00    +0.145 HD
ENDBRANCH  20  23
ENDBRANCH  19  20
ENDBRANCH  14  19
ENDBRANCH   1  13
BRANCH   2  26
ATOM     26  C   UNL     1      36.667 -25.380 -13.737  0.00  0.00    +0.093 C 
ATOM     27  C   UNL     1      37.894 -26.273 -13.921  0.00  0.00    +0.026 C 
BRANCH  26  28
ATOM     28  C   UNL     1      36.726 -24.548 -12.475  0.00  0.00    -0.005 C 
ATOM     29  C   UNL     1      35.988 -24.928 -11.353  0.00  0.00    -0.003 C 
ATOM     30  C   UNL     1      37.517 -23.401 -12.432  0.00  0.00    -0.003 C 
ATOM     31  C   UNL     1      36.041 -24.161 -10.190  0.00  0.00    -0.000 C 
ATOM     32  C   UNL     1      37.571 -22.633 -11.268  0.00  0.00    -0.000 C 
ATOM     33  C   UNL     1      36.833 -23.013 -10.147  0.00  0.00    -0.000 C 
ENDBRANCH  26  28
ENDBRANCH   2  26
TORSDOF 6
ENDMDL
MODEL 5
REMARK VINA RESULT:     -10.6      2.552      7.752
REMARK  Name = 24941249
REMARK  6 active torsions:
REMARK  status: ('A' for Active; 'I' for Inactive)
REMARK    1  A    between atoms: N_1  and  C_13
REMARK    2  A    between atoms: N_2  and  C_26
REMARK    3  A    between atoms: C_14  and  C_19
REMARK    4  A    between atoms: C_19  and  C_20
REMARK    5  A    between atoms: C_20  and  C_23
REMARK    6  A    between atoms: C_26  and  C_28
REMARK                            x       y       z     vdW  Elec       q    Type
REMARK                         _______ _______ _______ _____ _____    ______ ____
ROOT
ATOM      1  N   UNL     1      32.640 -22.255 -17.384  0.00  0.00    -0.230 N 
ATOM      2  N   UNL     1      36.313 -24.477 -15.049  0.00  0.00    -0.316 N 
ATOM      3  N   UNL     1      31.311 -22.203 -17.184  0.00  0.00    -0.169 NA
ATOM      4  N   UNL     1      34.037 -24.630 -14.371  0.00  0.00    -0.229 NA
ATOM      5  C   UNL     1      33.315 -23.014 -16.468  0.00  0.00    +0.088 A 
ATOM      6  C   UNL     1      32.341 -23.494 -15.601  0.00  0.00    +0.052 A 
ATOM      7  C   UNL     1      31.134 -22.959 -16.097  0.00  0.00    +0.082 A 
ATOM      8  C   UNL     1      34.664 -23.315 -16.326  0.00  0.00    +0.053 C 
ATOM      9  C   UNL     1      34.948 -24.135 -15.245  0.00  0.00    +0.130 C 
ATOM     10  C   UNL     1      32.729 -24.314 -14.542  0.00  0.00    +0.103 C 
ATOM     11  C   UNL     1      29.776 -23.147 -15.558  0.00  0.00    +0.054 C 
ATOM     12  H   UNL     1      36.983 -24.124 -15.678  0.00  0.00    +0.148 HD
ENDROOT
BRANCH   1  13
ATOM     13  C   UNL     1      33.201 -21.563 -18.458  0.00  0.00    +0.082 C 
ATOM     14  C   UNL     1      35.148 -20.845 -19.696  0.00  0.00    -0.020 C 
ATOM     15  C   UNL     1      34.586 -21.536 -18.622  0.00  0.00    +0.015 C 
ATOM     16  C   UNL     1      32.378 -20.900 -19.367  0.00  0.00    +0.019 C 
ATOM     17  C   UNL     1      34.324 -20.181 -20.605  0.00  0.00    -0.004 C 
ATOM     18  C   UNL     1      32.939 -20.209 -20.441  0.00  0.00    +0.001 C 
BRANCH  14  19
ATOM     19  C   UNL     1      36.628 -20.814 -19.871  0.00  0.00    +0.036 C 
BRANCH  19  20
ATOM     20  C   UNL     1      37.047 -20.067 -21.143  0.00  0.00    +0.089 C 
BRANCH  20  23
ATOM     21  O   UNL     1      37.872 -18.282 -19.722  0.00  0.00    -0.275 OA
ATOM     22  N   UNL     1      38.119 -18.092 -22.001  0.00  0.00    -0.329 N 
ATOM     23  C   UNL     1      37.713 -18.736 -20.852  0.00  0.00    +0.220 C 
ATOM     24  H   UNL     1      38.565 -17.217 -21.942  0.00  0.00    +0.145 HD
ATOM     25  H   UNL     1      37.961 -18.507 -22.879  0.00  0.00    +0.145 HD
ENDBRANCH  20  23
ENDBRANCH  19  20
ENDBRANCH  14  19
ENDBRANCH   1  13
BRANCH   2  26
ATOM     26  C   UNL     1      36.750 -25.310 -13.979  0.00  0.00    +0.093 C 
ATOM     27  C   UNL     1      38.089 -25.947 -14.346  0.00  0.00    +0.026 C 
BRANCH  26  28
ATOM     28  C   UNL     1      36.805 -24.519 -12.690  0.00  0.00    -0.005 C 
ATOM     29  C   UNL     1      36.100 -24.961 -11.570  0.00  0.00    -0.003 C 
ATOM     30  C   UNL     1      37.560 -23.349 -12.622  0.00  0.00    -0.003 C 
ATOM     31  C   UNL     1      36.150 -24.232 -10.382  0.00  0.00    -0.000 C 
ATOM     32  C   UNL     1      37.610 -22.620 -11.434  0.00  0.00    -0.000 C 
ATOM     33  C   UNL     1      36.906 -23.061 -10.314  0.00  0.00    -0.000 C 
ENDBRANCH  26  28
ENDBRANCH   2  26
TORSDOF 6
ENDMDL
MODEL 6
REMARK VINA RESULT:     -10.6      3.706      6.806
REMARK  Name = 24941249
REMARK  6 active torsions:
REMARK  status: ('A' for Active; 'I' for Inactive)
REMARK    1  A    between atoms: N_1  and  C_13
REMARK    2  A    between atoms: N_2  and  C_26
REMARK    3  A    between atoms: C_14  and  C_19
REMARK    4  A    between atoms: C_19  and  C_20
REMARK    5  A    between atoms: C_20  and  C_23
REMARK    6  A    between atoms: C_26  and  C_28
REMARK                            x       y       z     vdW  Elec       q    Type
REMARK                         _______ _______ _______ _____ _____    ______ ____
ROOT
ATOM      1  N   UNL     1      33.374 -23.805 -14.523  0.00  0.00    -0.230 N 
ATOM      2  N   UNL     1      35.077 -21.538 -18.503  0.00  0.00    -0.316 N 
ATOM      3  N   UNL     1      33.948 -24.242 -13.389  0.00  0.00    -0.169 NA
ATOM      4  N   UNL     1      36.443 -22.165 -16.658  0.00  0.00    -0.229 NA
ATOM      5  C   UNL     1      34.242 -23.210 -15.397  0.00  0.00    +0.088 A 
ATOM      6  C   UNL     1      35.483 -23.267 -14.776  0.00  0.00    +0.052 A 
ATOM      7  C   UNL     1      35.232 -23.913 -13.547  0.00  0.00    +0.082 A 
ATOM      8  C   UNL     1      34.052 -22.639 -16.650  0.00  0.00    +0.053 C 
ATOM      9  C   UNL     1      35.210 -22.134 -17.221  0.00  0.00    +0.130 C 
ATOM     10  C   UNL     1      36.590 -22.730 -15.434  0.00  0.00    +0.103 C 
ATOM     11  C   UNL     1      36.201 -24.236 -12.486  0.00  0.00    +0.054 C 
ATOM     12  H   UNL     1      34.186 -21.512 -18.922  0.00  0.00    +0.148 HD
ENDROOT
BRANCH   1  13
ATOM     13  C   UNL     1      32.002 -23.981 -14.713  0.00  0.00    +0.082 C 
ATOM     14  C   UNL     1      29.890 -23.187 -15.576  0.00  0.00    -0.020 C 
ATOM     15  C   UNL     1      31.261 -23.010 -15.386  0.00  0.00    +0.015 C 
ATOM     16  C   UNL     1      31.374 -25.129 -14.230  0.00  0.00    +0.019 C 
ATOM     17  C   UNL     1      29.261 -24.334 -15.093  0.00  0.00    -0.004 C 
ATOM     18  C   UNL     1      30.003 -25.306 -14.420  0.00  0.00    +0.001 C 
BRANCH  14  19
ATOM     19  C   UNL     1      29.097 -22.149 -16.294  0.00  0.00    +0.036 C 
BRANCH  19  20
ATOM     20  C   UNL     1      27.805 -22.717 -16.895  0.00  0.00    +0.089 C 
BRANCH  20  23
ATOM     21  O   UNL     1      25.967 -22.053 -15.457  0.00  0.00    -0.275 OA
ATOM     22  N   UNL     1      26.218 -21.011 -17.492  0.00  0.00    -0.329 N 
ATOM     23  C   UNL     1      26.576 -21.914 -16.514  0.00  0.00    +0.220 C 
ATOM     24  H   UNL     1      25.435 -20.430 -17.361  0.00  0.00    +0.145 HD
ATOM     25  H   UNL     1      26.747 -20.947 -18.319  0.00  0.00    +0.145 HD
ENDBRANCH  20  23
ENDBRANCH  19  20
ENDBRANCH  14  19
ENDBRANCH   1  13
BRANCH   2  26
ATOM     26  C   UNL     1      36.181 -20.977 -19.207  0.00  0.00    +0.093 C 
ATOM     27  C   UNL     1      37.108 -22.099 -19.674  0.00  0.00    +0.026 C 
BRANCH  26  28
ATOM     28  C   UNL     1      35.690 -20.105 -20.342  0.00  0.00    -0.005 C 
ATOM     29  C   UNL     1      34.343 -20.126 -20.705  0.00  0.00    -0.003 C 
ATOM     30  C   UNL     1      36.583 -19.280 -21.025  0.00  0.00    -0.003 C 
ATOM     31  C   UNL     1      33.890 -19.323 -21.752  0.00  0.00    -0.000 C 
ATOM     32  C   UNL     1      36.130 -18.477 -22.071  0.00  0.00    -0.000 C 
ATOM     33  C   UNL     1      34.783 -18.498 -22.434  0.00  0.00    -0.000 C 
ENDBRANCH  26  28
ENDBRANCH   2  26
TORSDOF 6
ENDMDL
MODEL 7
REMARK VINA RESULT:     -10.4      2.170      3.121
REMARK  Name = 24941249
REMARK  6 active torsions:
REMARK  status: ('A' for Active; 'I' for Inactive)
REMARK    1  A    between atoms: N_1  and  C_13
REMARK    2  A    between atoms: N_2  and  C_26
REMARK    3  A    between atoms: C_14  and  C_19
REMARK    4  A    between atoms: C_19  and  C_20
REMARK    5  A    between atoms: C_20  and  C_23
REMARK    6  A    between atoms: C_26  and  C_28
REMARK                            x       y       z     vdW  Elec       q    Type
REMARK                         _______ _______ _______ _____ _____    ______ ____
ROOT
ATOM      1  N   UNL     1      34.167 -24.171 -15.001  0.00  0.00    -0.230 N 
ATOM      2  N   UNL     1      34.699 -21.728 -19.200  0.00  0.00    -0.316 N 
ATOM      3  N   UNL     1      33.109 -24.453 -14.221  0.00  0.00    -0.169 NA
ATOM      4  N   UNL     1      32.608 -22.018 -18.100  0.00  0.00    -0.229 NA
ATOM      5  C   UNL     1      33.861 -23.442 -16.117  0.00  0.00    +0.088 A 
ATOM      6  C   UNL     1      32.489 -23.234 -16.054  0.00  0.00    +0.052 A 
ATOM      7  C   UNL     1      32.090 -23.881 -14.866  0.00  0.00    +0.082 A 
ATOM      8  C   UNL     1      34.650 -22.956 -17.154  0.00  0.00    +0.053 C 
ATOM      9  C   UNL     1      33.944 -22.249 -18.115  0.00  0.00    +0.130 C 
ATOM     10  C   UNL     1      31.871 -22.507 -17.072  0.00  0.00    +0.103 C 
ATOM     11  C   UNL     1      30.731 -23.976 -14.305  0.00  0.00    +0.054 C 
ATOM     12  H   UNL     1      35.670 -21.889 -19.220  0.00  0.00    +0.148 HD
ENDROOT
BRANCH   1  13
ATOM     13  C   UNL     1      35.435 -24.624 -14.632  0.00  0.00    +0.082 C 
ATOM     14  C   UNL     1      37.433 -24.388 -13.294  0.00  0.00    -0.020 C 
ATOM     15  C   UNL     1      36.165 -23.936 -13.663  0.00  0.00    +0.015 C 
ATOM     16  C   UNL     1      35.970 -25.763 -15.231  0.00  0.00    +0.019 C 
ATOM     17  C   UNL     1      37.968 -25.528 -13.893  0.00  0.00    -0.004 C 
ATOM     18  C   UNL     1      37.237 -26.216 -14.861  0.00  0.00    +0.001 C 
BRANCH  14  19
ATOM     19  C   UNL     1      38.215 -23.652 -12.259  0.00  0.00    +0.036 C 
BRANCH  19  20
ATOM     20  C   UNL     1      37.322 -22.783 -11.366  0.00  0.00    +0.089 C 
BRANCH  20  23
ATOM     21  O   UNL     1      36.686 -24.243  -9.536  0.00  0.00    -0.275 OA
ATOM     22  N   UNL     1      35.065 -23.533 -11.006  0.00  0.00    -0.329 N 
ATOM     23  C   UNL     1      36.356 -23.598 -10.527  0.00  0.00    +0.220 C 
ATOM     24  H   UNL     1      34.346 -24.022 -10.545  0.00  0.00    +0.145 HD
ATOM     25  H   UNL     1      34.864 -22.999 -11.807  0.00  0.00    +0.145 HD
ENDBRANCH  20  23
ENDBRANCH  19  20
ENDBRANCH  14  19
ENDBRANCH   1  13
BRANCH   2  26
ATOM     26  C   UNL     1      34.106 -20.983 -20.259  0.00  0.00    +0.093 C 
ATOM     27  C   UNL     1      32.866 -20.258 -19.738  0.00  0.00    +0.026 C 
BRANCH  26  28
ATOM     28  C   UNL     1      35.123 -20.046 -20.873  0.00  0.00    -0.005 C 
ATOM     29  C   UNL     1      34.808 -19.336 -22.032  0.00  0.00    -0.003 C 
ATOM     30  C   UNL     1      36.376 -19.891 -20.280  0.00  0.00    -0.003 C 
ATOM     31  C   UNL     1      35.746 -18.473 -22.598  0.00  0.00    -0.000 C 
ATOM     32  C   UNL     1      37.314 -19.028 -20.845  0.00  0.00    -0.000 C 
ATOM     33  C   UNL     1      36.999 -18.318 -22.004  0.00  0.00    -0.000 C 
ENDBRANCH  26  28
ENDBRANCH   2  26
TORSDOF 6
ENDMDL
MODEL 8
REMARK VINA RESULT:     -10.0      3.462      7.509
REMARK  Name = 24941249
REMARK  6 active torsions:
REMARK  status: ('A' for Active; 'I' for Inactive)
REMARK    1  A    between atoms: N_1  and  C_13
REMARK    2  A    between atoms: N_2  and  C_26
REMARK    3  A    between atoms: C_14  and  C_19
REMARK    4  A    between atoms: C_19  and  C_20
REMARK    5  A    between atoms: C_20  and  C_23
REMARK    6  A    between atoms: C_26  and  C_28
REMARK                            x       y       z     vdW  Elec       q    Type
REMARK                         _______ _______ _______ _____ _____    ______ ____
ROOT
ATOM      1  N   UNL     1      37.200 -22.541 -15.914  0.00  0.00    -0.230 N 
ATOM      2  N   UNL     1      32.414 -23.045 -15.064  0.00  0.00    -0.316 N 
ATOM      3  N   UNL     1      38.297 -23.140 -15.418  0.00  0.00    -0.169 NA
ATOM      4  N   UNL     1      34.090 -24.321 -13.957  0.00  0.00    -0.229 NA
ATOM      5  C   UNL     1      36.025 -22.998 -15.383  0.00  0.00    +0.088 A 
ATOM      6  C   UNL     1      36.392 -23.975 -14.466  0.00  0.00    +0.052 A 
ATOM      7  C   UNL     1      37.800 -24.012 -14.537  0.00  0.00    +0.082 A 
ATOM      8  C   UNL     1      34.701 -22.648 -15.621  0.00  0.00    +0.053 C 
ATOM      9  C   UNL     1      33.784 -23.361 -14.863  0.00  0.00    +0.130 C 
ATOM     10  C   UNL     1      35.393 -24.636 -13.751  0.00  0.00    +0.103 C 
ATOM     11  C   UNL     1      38.718 -24.874 -13.774  0.00  0.00    +0.054 C 
ATOM     12  H   UNL     1      32.181 -22.349 -15.719  0.00  0.00    +0.148 HD
ENDROOT
BRANCH   1  13
ATOM     13  C   UNL     1      37.337 -21.549 -16.885  0.00  0.00    +0.082 C 
ATOM     14  C   UNL     1      36.828 -20.691 -19.086  0.00  0.00    -0.020 C 
ATOM     15  C   UNL     1      36.691 -21.683 -18.115  0.00  0.00    +0.015 C 
ATOM     16  C   UNL     1      38.118 -20.423 -16.627  0.00  0.00    +0.019 C 
ATOM     17  C   UNL     1      37.610 -19.565 -18.828  0.00  0.00    -0.004 C 
ATOM     18  C   UNL     1      38.254 -19.430 -17.598  0.00  0.00    +0.001 C 
BRANCH  14  19
ATOM     19  C   UNL     1      36.140 -20.835 -20.401  0.00  0.00    +0.036 C 
BRANCH  19  20
ATOM     20  C   UNL     1      34.971 -19.854 -20.554  0.00  0.00    +0.089 C 
BRANCH  20  23
ATOM     21  O   UNL     1      35.135 -19.009 -22.822  0.00  0.00    -0.275 OA
ATOM     22  N   UNL     1      35.561 -17.580 -21.071  0.00  0.00    -0.329 N 
ATOM     23  C   UNL     1      35.222 -18.800 -21.616  0.00  0.00    +0.220 C 
ATOM     24  H   UNL     1      35.748 -16.814 -21.660  0.00  0.00    +0.145 HD
ATOM     25  H   UNL     1      35.615 -17.476 -20.094  0.00  0.00    +0.145 HD
ENDBRANCH  20  23
ENDBRANCH  19  20
ENDBRANCH  14  19
ENDBRANCH   1  13
BRANCH   2  26
ATOM     26  C   UNL     1      31.365 -23.698 -14.356  0.00  0.00    +0.093 C 
ATOM     27  C   UNL     1      31.363 -23.226 -12.902  0.00  0.00    +0.026 C 
BRANCH  26  28
ATOM     28  C   UNL     1      30.041 -23.469 -15.053  0.00  0.00    -0.005 C 
ATOM     29  C   UNL     1      29.301 -22.317 -14.784  0.00  0.00    -0.003 C 
ATOM     30  C   UNL     1      29.562 -24.409 -15.965  0.00  0.00    -0.003 C 
ATOM     31  C   UNL     1      28.082 -22.106 -15.427  0.00  0.00    -0.000 C 
ATOM     32  C   UNL     1      28.342 -24.198 -16.607  0.00  0.00    -0.000 C 
ATOM     33  C   UNL     1      27.602 -23.046 -16.339  0.00  0.00    -0.000 C 
ENDBRANCH  26  28
ENDBRANCH   2  26
TORSDOF 6
ENDMDL
MODEL 9
REMARK VINA RESULT:      -9.9      3.099      7.215
REMARK  Name = 24941249
REMARK  6 active torsions:
REMARK  status: ('A' for Active; 'I' for Inactive)
REMARK    1  A    between atoms: N_1  and  C_13
REMARK    2  A    between atoms: N_2  and  C_26
REMARK    3  A    between atoms: C_14  and  C_19
REMARK    4  A    between atoms: C_19  and  C_20
REMARK    5  A    between atoms: C_20  and  C_23
REMARK    6  A    between atoms: C_26  and  C_28
REMARK                            x       y       z     vdW  Elec       q    Type
REMARK                         _______ _______ _______ _____ _____    ______ ____
ROOT
ATOM      1  N   UNL     1      37.114 -22.555 -15.687  0.00  0.00    -0.230 N 
ATOM      2  N   UNL     1      32.300 -23.075 -15.026  0.00  0.00    -0.316 N 
ATOM      3  N   UNL     1      38.194 -23.116 -15.115  0.00  0.00    -0.169 NA
ATOM      4  N   UNL     1      33.937 -24.276 -13.785  0.00  0.00    -0.229 NA
ATOM      5  C   UNL     1      35.921 -23.000 -15.188  0.00  0.00    +0.088 A 
ATOM      6  C   UNL     1      36.256 -23.928 -14.209  0.00  0.00    +0.052 A 
ATOM      7  C   UNL     1      37.667 -23.951 -14.216  0.00  0.00    +0.082 A 
ATOM      8  C   UNL     1      34.605 -22.677 -15.501  0.00  0.00    +0.053 C 
ATOM      9  C   UNL     1      33.663 -23.364 -14.750  0.00  0.00    +0.130 C 
ATOM     10  C   UNL     1      35.233 -24.565 -13.508  0.00  0.00    +0.103 C 
ATOM     11  C   UNL     1      38.558 -24.765 -13.371  0.00  0.00    +0.054 C 
ATOM     12  H   UNL     1      32.090 -22.413 -15.724  0.00  0.00    +0.148 HD
ENDROOT
BRANCH   1  13
ATOM     13  C   UNL     1      37.285 -21.609 -16.699  0.00  0.00    +0.082 C 
ATOM     14  C   UNL     1      36.794 -20.818 -18.928  0.00  0.00    -0.020 C 
ATOM     15  C   UNL     1      36.623 -21.764 -17.917  0.00  0.00    +0.015 C 
ATOM     16  C   UNL     1      38.116 -20.509 -16.491  0.00  0.00    +0.019 C 
ATOM     17  C   UNL     1      37.625 -19.718 -18.721  0.00  0.00    -0.004 C 
ATOM     18  C   UNL     1      38.286 -19.563 -17.502  0.00  0.00    +0.001 C 
BRANCH  14  19
ATOM     19  C   UNL     1      36.088 -20.984 -20.231  0.00  0.00    +0.036 C 
BRANCH  19  20
ATOM     20  C   UNL     1      34.804 -20.148 -20.306  0.00  0.00    +0.089 C 
BRANCH  20  23
ATOM     21  O   UNL     1      33.589 -22.096 -19.521  0.00  0.00    -0.275 OA
ATOM     22  N   UNL     1      32.409 -20.204 -20.088  0.00  0.00    -0.329 N 
ATOM     23  C   UNL     1      33.566 -20.937 -19.926  0.00  0.00    +0.220 C 
ATOM     24  H   UNL     1      31.538 -20.608 -19.873  0.00  0.00    +0.145 HD
ATOM     25  H   UNL     1      32.456 -19.279 -20.418  0.00  0.00    +0.145 HD
ENDBRANCH  20  23
ENDBRANCH  19  20
ENDBRANCH  14  19
ENDBRANCH   1  13
BRANCH   2  26
ATOM     26  C   UNL     1      31.226 -23.705 -14.334  0.00  0.00    +0.093 C 
ATOM     27  C   UNL     1      31.205 -23.223 -12.884  0.00  0.00    +0.026 C 
BRANCH  26  28
ATOM     28  C   UNL     1      29.921 -23.459 -15.059  0.00  0.00    -0.005 C 
ATOM     29  C   UNL     1      29.459 -24.381 -15.998  0.00  0.00    -0.003 C 
ATOM     30  C   UNL     1      29.179 -22.310 -14.787  0.00  0.00    -0.003 C 
ATOM     31  C   UNL     1      28.256 -24.154 -16.666  0.00  0.00    -0.000 C 
ATOM     32  C   UNL     1      27.976 -22.082 -15.455  0.00  0.00    -0.000 C 
ATOM     33  C   UNL     1      27.514 -23.005 -16.394  0.00  0.00    -0.000 C 
ENDBRANCH  26  28
ENDBRANCH   2  26
TORSDOF 6
ENDMDL
