MODEL 1
REMARK VINA RESULT:     -10.9      0.000      0.000
REMARK  Name = 449087
REMARK  3 active torsions:
REMARK  status: ('A' for Active; 'I' for Inactive)
REMARK    1  A    between atoms: C_5  and  C_11
REMARK    2  A    between atoms: C_8  and  C_14
REMARK    3  A    between atoms: C_14  and  C_15
REMARK                            x       y       z     vdW  Elec       q    Type
REMARK                         _______ _______ _______ _____ _____    ______ ____
ROOT
ATOM      1  O   UNL     1      35.267 -15.885 -22.287  0.00  0.00    -0.274 OA
ATOM      2  N   UNL     1      33.690 -12.510 -25.443  0.00  0.00    -0.239 N 
ATOM      3  N   UNL     1      33.764 -13.817 -25.749  0.00  0.00    -0.166 NA
ATOM      4  N   UNL     1      34.469 -15.719 -24.491  0.00  0.00    -0.268 N 
ATOM      5  C   UNL     1      34.096 -12.217 -24.175  0.00  0.00    +0.045 C 
ATOM      6  C   UNL     1      34.459 -13.415 -23.610  0.00  0.00    +0.048 C 
ATOM      7  C   UNL     1      34.232 -14.346 -24.627  0.00  0.00    +0.152 C 
ATOM      8  C   UNL     1      34.956 -16.379 -23.365  0.00  0.00    +0.232 C 
ATOM      9  H   UNL     1      33.372 -11.828 -26.077  0.00  0.00    +0.174 HD
ATOM     10  H   UNL     1      34.269 -16.279 -25.275  0.00  0.00    +0.156 HD
ENDROOT
BRANCH   5  11
ATOM     11  C   UNL     1      34.132 -10.841 -23.525  0.00  0.00    +0.037 C 
ATOM     12  C   UNL     1      34.865  -9.719 -24.218  0.00  0.00    +0.006 C 
ATOM     13  C   UNL     1      33.365  -9.707 -24.159  0.00  0.00    +0.006 C 
ENDBRANCH   5  11
BRANCH   8  14
ATOM     14  C   UNL     1      35.069 -17.880 -23.624  0.00  0.00    +0.112 C 
BRANCH  14  15
ATOM     15  C   UNL     1      35.451 -18.674 -22.420  0.00  0.00    -0.013 C 
ATOM     16  C   UNL     1      34.830 -20.169 -20.605  0.00  0.00    -0.000 C 
ATOM     17  C   UNL     1      34.486 -19.416 -21.739  0.00  0.00    -0.004 C 
ATOM     18  C   UNL     1      36.172 -20.171 -20.156  0.00  0.00    -0.000 C 
ATOM     19  C   UNL     1      36.771 -18.677 -21.978  0.00  0.00    -0.004 C 
ATOM     20  C   UNL     1      37.130 -19.419 -20.854  0.00  0.00    -0.000 C 
ATOM     21  C   UNL     1      33.870 -20.921 -19.906  0.00  0.00    -0.000 C 
ATOM     22  C   UNL     1      36.515 -20.925 -19.021  0.00  0.00    -0.000 C 
ATOM     23  C   UNL     1      34.230 -21.664 -18.781  0.00  0.00    -0.000 C 
ATOM     24  C   UNL     1      35.550 -21.666 -18.339  0.00  0.00    -0.000 C 
ENDBRANCH  14  15
ENDBRANCH   8  14
TORSDOF 3
ENDMDL
MODEL 2
REMARK VINA RESULT:     -10.9      1.100      2.104
REMARK  Name = 449087
REMARK  3 active torsions:
REMARK  status: ('A' for Active; 'I' for Inactive)
REMARK    1  A    between atoms: C_5  and  C_11
REMARK    2  A    between atoms: C_8  and  C_14
REMARK    3  A    between atoms: C_14  and  C_15
REMARK                            x       y       z     vdW  Elec       q    Type
REMARK                         _______ _______ _______ _____ _____    ______ ____
ROOT
ATOM      1  O   UNL     1      35.724 -16.444 -21.681  0.00  0.00    -0.274 OA
ATOM      2  N   UNL     1      33.449 -14.409 -25.491  0.00  0.00    -0.239 N 
ATOM      3  N   UNL     1      33.815 -15.702 -25.466  0.00  0.00    -0.166 NA
ATOM      4  N   UNL     1      34.921 -17.021 -23.812  0.00  0.00    -0.268 N 
ATOM      5  C   UNL     1      33.773 -13.722 -24.358  0.00  0.00    +0.045 C 
ATOM      6  C   UNL     1      34.392 -14.628 -23.533  0.00  0.00    +0.048 C 
ATOM      7  C   UNL     1      34.383 -15.813 -24.273  0.00  0.00    +0.152 C 
ATOM      8  C   UNL     1      35.537 -17.252 -22.584  0.00  0.00    +0.232 C 
ATOM      9  H   UNL     1      32.990 -13.995 -26.258  0.00  0.00    +0.174 HD
ATOM     10  H   UNL     1      34.856 -17.792 -24.421  0.00  0.00    +0.156 HD
ENDROOT
BRANCH   5  11
ATOM     11  C   UNL     1      33.497 -12.251 -24.075  0.00  0.00    +0.037 C 
ATOM     12  C   UNL     1      34.656 -11.290 -23.979  0.00  0.00    +0.006 C 
ATOM     13  C   UNL     1      33.734 -11.235 -25.163  0.00  0.00    +0.006 C 
ENDBRANCH   5  11
BRANCH   8  14
ATOM     14  C   UNL     1      35.984 -18.707 -22.467  0.00  0.00    +0.112 C 
BRANCH  14  15
ATOM     15  C   UNL     1      35.222 -19.494 -21.454  0.00  0.00    -0.013 C 
ATOM     16  C   UNL     1      35.203 -20.972 -19.523  0.00  0.00    -0.000 C 
ATOM     17  C   UNL     1      35.905 -20.226 -20.482  0.00  0.00    -0.004 C 
ATOM     18  C   UNL     1      33.788 -20.975 -19.548  0.00  0.00    -0.000 C 
ATOM     19  C   UNL     1      33.831 -19.498 -21.479  0.00  0.00    -0.004 C 
ATOM     20  C   UNL     1      33.117 -20.233 -20.533  0.00  0.00    -0.000 C 
ATOM     21  C   UNL     1      35.874 -21.715 -18.537  0.00  0.00    -0.000 C 
ATOM     22  C   UNL     1      33.085 -21.722 -18.587  0.00  0.00    -0.000 C 
ATOM     23  C   UNL     1      35.160 -22.451 -17.591  0.00  0.00    -0.000 C 
ATOM     24  C   UNL     1      33.769 -22.454 -17.616  0.00  0.00    -0.000 C 
ENDBRANCH  14  15
ENDBRANCH   8  14
TORSDOF 3
ENDMDL
MODEL 3
REMARK VINA RESULT:     -10.7      1.613      1.882
REMARK  Name = 449087
REMARK  3 active torsions:
REMARK  status: ('A' for Active; 'I' for Inactive)
REMARK    1  A    between atoms: C_5  and  C_11
REMARK    2  A    between atoms: C_8  and  C_14
REMARK    3  A    between atoms: C_14  and  C_15
REMARK                            x       y       z     vdW  Elec       q    Type
REMARK                         _______ _______ _______ _____ _____    ______ ____
ROOT
ATOM      1  O   UNL     1      35.078 -15.951 -20.974  0.00  0.00    -0.274 OA
ATOM      2  N   UNL     1      33.390 -12.427 -23.903  0.00  0.00    -0.239 N 
ATOM      3  N   UNL     1      34.012 -13.525 -24.366  0.00  0.00    -0.166 NA
ATOM      4  N   UNL     1      34.951 -15.421 -23.260  0.00  0.00    -0.268 N 
ATOM      5  C   UNL     1      33.277 -12.390 -22.544  0.00  0.00    +0.045 C 
ATOM      6  C   UNL     1      33.863 -13.544 -22.086  0.00  0.00    +0.048 C 
ATOM      7  C   UNL     1      34.290 -14.187 -23.251  0.00  0.00    +0.152 C 
ATOM      8  C   UNL     1      35.292 -16.199 -22.156  0.00  0.00    +0.232 C 
ATOM      9  H   UNL     1      33.049 -11.715 -24.490  0.00  0.00    +0.174 HD
ATOM     10  H   UNL     1      35.203 -15.778 -24.142  0.00  0.00    +0.156 HD
ENDROOT
BRANCH   5  11
ATOM     11  C   UNL     1      32.629 -11.290 -21.714  0.00  0.00    +0.037 C 
ATOM     12  C   UNL     1      31.152 -11.369 -21.413  0.00  0.00    +0.006 C 
ATOM     13  C   UNL     1      32.152 -11.606 -20.318  0.00  0.00    +0.006 C 
ENDBRANCH   5  11
BRANCH   8  14
ATOM     14  C   UNL     1      36.004 -17.477 -22.593  0.00  0.00    +0.112 C 
BRANCH  14  15
ATOM     15  C   UNL     1      35.936 -18.581 -21.591  0.00  0.00    -0.013 C 
ATOM     16  C   UNL     1      34.622 -20.172 -20.304  0.00  0.00    -0.000 C 
ATOM     17  C   UNL     1      34.702 -19.133 -21.245  0.00  0.00    -0.004 C 
ATOM     18  C   UNL     1      35.808 -20.659 -19.706  0.00  0.00    -0.000 C 
ATOM     19  C   UNL     1      37.103 -19.059 -21.003  0.00  0.00    -0.004 C 
ATOM     20  C   UNL     1      37.041 -20.091 -20.067  0.00  0.00    -0.000 C 
ATOM     21  C   UNL     1      33.388 -20.740 -19.943  0.00  0.00    -0.000 C 
ATOM     22  C   UNL     1      35.727 -21.699 -18.765  0.00  0.00    -0.000 C 
ATOM     23  C   UNL     1      33.326 -21.772 -19.006  0.00  0.00    -0.000 C 
ATOM     24  C   UNL     1      34.493 -22.250 -18.418  0.00  0.00    -0.000 C 
ENDBRANCH  14  15
ENDBRANCH   8  14
TORSDOF 3
ENDMDL
MODEL 4
REMARK VINA RESULT:     -10.7      1.817      3.488
REMARK  Name = 449087
REMARK  3 active torsions:
REMARK  status: ('A' for Active; 'I' for Inactive)
REMARK    1  A    between atoms: C_5  and  C_11
REMARK    2  A    between atoms: C_8  and  C_14
REMARK    3  A    between atoms: C_14  and  C_15
REMARK                            x       y       z     vdW  Elec       q    Type
REMARK                         _______ _______ _______ _____ _____    ______ ____
ROOT
ATOM      1  O   UNL     1      36.054 -17.529 -20.673  0.00  0.00    -0.274 OA
ATOM      2  N   UNL     1      34.386 -16.162 -25.053  0.00  0.00    -0.239 N 
ATOM      3  N   UNL     1      34.709 -17.433 -24.759  0.00  0.00    -0.166 NA
ATOM      4  N   UNL     1      35.538 -18.457 -22.768  0.00  0.00    -0.268 N 
ATOM      5  C   UNL     1      34.570 -15.294 -24.017  0.00  0.00    +0.045 C 
ATOM      6  C   UNL     1      35.043 -16.049 -22.973  0.00  0.00    +0.048 C 
ATOM      7  C   UNL     1      35.103 -17.343 -23.497  0.00  0.00    +0.152 C 
ATOM      8  C   UNL     1      35.971 -18.478 -21.445  0.00  0.00    +0.232 C 
ATOM      9  H   UNL     1      34.050 -15.883 -25.935  0.00  0.00    +0.174 HD
ATOM     10  H   UNL     1      35.536 -19.320 -23.243  0.00  0.00    +0.156 HD
ENDROOT
BRANCH   5  11
ATOM     11  C   UNL     1      34.299 -13.795 -24.026  0.00  0.00    +0.037 C 
ATOM     12  C   UNL     1      33.144 -13.252 -23.222  0.00  0.00    +0.006 C 
ATOM     13  C   UNL     1      34.553 -12.994 -22.774  0.00  0.00    +0.006 C 
ENDBRANCH   5  11
BRANCH   8  14
ATOM     14  C   UNL     1      36.357 -19.893 -21.023  0.00  0.00    +0.112 C 
BRANCH  14  15
ATOM     15  C   UNL     1      35.368 -20.545 -20.115  0.00  0.00    -0.013 C 
ATOM     16  C   UNL     1      34.892 -21.890 -18.145  0.00  0.00    -0.000 C 
ATOM     17  C   UNL     1      35.810 -21.270 -19.009  0.00  0.00    -0.004 C 
ATOM     18  C   UNL     1      33.507 -21.770 -18.406  0.00  0.00    -0.000 C 
ATOM     19  C   UNL     1      34.006 -20.428 -20.372  0.00  0.00    -0.004 C 
ATOM     20  C   UNL     1      33.080 -21.036 -19.525  0.00  0.00    -0.000 C 
ATOM     21  C   UNL     1      35.320 -22.625 -17.027  0.00  0.00    -0.000 C 
ATOM     22  C   UNL     1      32.589 -22.389 -17.542  0.00  0.00    -0.000 C 
ATOM     23  C   UNL     1      34.394 -23.233 -16.179  0.00  0.00    -0.000 C 
ATOM     24  C   UNL     1      33.031 -23.116 -16.436  0.00  0.00    -0.000 C 
ENDBRANCH  14  15
ENDBRANCH   8  14
TORSDOF 3
ENDMDL
MODEL 5
REMARK VINA RESULT:     -10.6      4.270      9.296
REMARK  Name = 449087
REMARK  3 active torsions:
REMARK  status: ('A' for Active; 'I' for Inactive)
REMARK    1  A    between atoms: C_5  and  C_11
REMARK    2  A    between atoms: C_8  and  C_14
REMARK    3  A    between atoms: C_14  and  C_15
REMARK                            x       y       z     vdW  Elec       q    Type
REMARK                         _______ _______ _______ _____ _____    ______ ____
ROOT
ATOM      1  O   UNL     1      33.819 -20.387 -20.278  0.00  0.00    -0.274 OA
ATOM      2  N   UNL     1      34.332 -23.319 -16.408  0.00  0.00    -0.239 N 
ATOM      3  N   UNL     1      35.377 -22.797 -17.072  0.00  0.00    -0.166 NA
ATOM      4  N   UNL     1      35.513 -21.352 -18.967  0.00  0.00    -0.268 N 
ATOM      5  C   UNL     1      33.119 -22.956 -16.917  0.00  0.00    +0.045 C 
ATOM      6  C   UNL     1      33.390 -22.137 -17.986  0.00  0.00    +0.048 C 
ATOM      7  C   UNL     1      34.786 -22.086 -18.021  0.00  0.00    +0.152 C 
ATOM      8  C   UNL     1      34.999 -20.575 -20.002  0.00  0.00    +0.232 C 
ATOM      9  H   UNL     1      34.431 -23.911 -15.628  0.00  0.00    +0.174 HD
ATOM     10  H   UNL     1      36.494 -21.390 -18.892  0.00  0.00    +0.156 HD
ENDROOT
BRANCH   5  11
ATOM     11  C   UNL     1      31.751 -23.374 -16.397  0.00  0.00    +0.037 C 
ATOM     12  C   UNL     1      31.235 -22.770 -15.114  0.00  0.00    +0.006 C 
ATOM     13  C   UNL     1      30.617 -22.379 -16.425  0.00  0.00    +0.006 C 
ENDBRANCH   5  11
BRANCH   8  14
ATOM     14  C   UNL     1      36.125 -19.936 -20.811  0.00  0.00    +0.112 C 
BRANCH  14  15
ATOM     15  C   UNL     1      35.655 -18.968 -21.845  0.00  0.00    -0.013 C 
ATOM     16  C   UNL     1      35.169 -16.682 -22.516  0.00  0.00    -0.000 C 
ATOM     17  C   UNL     1      35.609 -17.605 -21.554  0.00  0.00    -0.004 C 
ATOM     18  C   UNL     1      34.771 -17.148 -23.792  0.00  0.00    -0.000 C 
ATOM     19  C   UNL     1      35.264 -19.427 -23.099  0.00  0.00    -0.004 C 
ATOM     20  C   UNL     1      34.824 -18.524 -24.067  0.00  0.00    -0.000 C 
ATOM     21  C   UNL     1      35.115 -15.305 -22.240  0.00  0.00    -0.000 C 
ATOM     22  C   UNL     1      34.331 -16.224 -24.754  0.00  0.00    -0.000 C 
ATOM     23  C   UNL     1      34.675 -14.402 -23.209  0.00  0.00    -0.000 C 
ATOM     24  C   UNL     1      34.284 -14.860 -24.463  0.00  0.00    -0.000 C 
ENDBRANCH  14  15
ENDBRANCH   8  14
TORSDOF 3
ENDMDL
MODEL 6
REMARK VINA RESULT:     -10.6      1.953      9.513
REMARK  Name = 449087
REMARK  3 active torsions:
REMARK  status: ('A' for Active; 'I' for Inactive)
REMARK    1  A    between atoms: C_5  and  C_11
REMARK    2  A    between atoms: C_8  and  C_14
REMARK    3  A    between atoms: C_14  and  C_15
REMARK                            x       y       z     vdW  Elec       q    Type
REMARK                         _______ _______ _______ _____ _____    ______ ____
ROOT
ATOM      1  O   UNL     1      34.571 -12.778 -22.924  0.00  0.00    -0.274 OA
ATOM      2  N   UNL     1      35.315 -17.482 -23.999  0.00  0.00    -0.239 N 
ATOM      3  N   UNL     1      34.966 -16.569 -24.922  0.00  0.00    -0.166 NA
ATOM      4  N   UNL     1      34.528 -14.227 -24.773  0.00  0.00    -0.268 N 
ATOM      5  C   UNL     1      35.439 -16.973 -22.740  0.00  0.00    +0.045 C 
ATOM      6  C   UNL     1      35.154 -15.634 -22.846  0.00  0.00    +0.048 C 
ATOM      7  C   UNL     1      34.874 -15.459 -24.203  0.00  0.00    +0.152 C 
ATOM      8  C   UNL     1      34.402 -13.005 -24.117  0.00  0.00    +0.232 C 
ATOM      9  H   UNL     1      35.465 -18.431 -24.212  0.00  0.00    +0.174 HD
ATOM     10  H   UNL     1      34.354 -14.225 -25.742  0.00  0.00    +0.156 HD
ENDROOT
BRANCH   5  11
ATOM     11  C   UNL     1      35.820 -17.740 -21.481  0.00  0.00    +0.037 C 
ATOM     12  C   UNL     1      35.686 -19.243 -21.466  0.00  0.00    +0.006 C 
ATOM     13  C   UNL     1      37.049 -18.614 -21.495  0.00  0.00    +0.006 C 
ENDBRANCH   5  11
BRANCH   8  14
ATOM     14  C   UNL     1      34.010 -11.902 -25.097  0.00  0.00    +0.112 C 
BRANCH  14  15
ATOM     15  C   UNL     1      34.172 -10.522 -24.553  0.00  0.00    -0.013 C 
ATOM     16  C   UNL     1      33.264  -8.623 -23.335  0.00  0.00    -0.000 C 
ATOM     17  C   UNL     1      33.126  -9.921 -23.853  0.00  0.00    -0.004 C 
ATOM     18  C   UNL     1      34.480  -7.926 -23.527  0.00  0.00    -0.000 C 
ATOM     19  C   UNL     1      35.368  -9.836 -24.743  0.00  0.00    -0.004 C 
ATOM     20  C   UNL     1      35.522  -8.547 -24.234  0.00  0.00    -0.000 C 
ATOM     21  C   UNL     1      32.220  -8.002 -22.628  0.00  0.00    -0.000 C 
ATOM     22  C   UNL     1      34.617  -6.628 -23.008  0.00  0.00    -0.000 C 
ATOM     23  C   UNL     1      32.374  -6.712 -22.120  0.00  0.00    -0.000 C 
ATOM     24  C   UNL     1      33.570  -6.026 -22.309  0.00  0.00    -0.000 C 
ENDBRANCH  14  15
ENDBRANCH   8  14
TORSDOF 3
ENDMDL
MODEL 7
REMARK VINA RESULT:     -10.3      7.089     11.489
REMARK  Name = 449087
REMARK  3 active torsions:
REMARK  status: ('A' for Active; 'I' for Inactive)
REMARK    1  A    between atoms: C_5  and  C_11
REMARK    2  A    between atoms: C_8  and  C_14
REMARK    3  A    between atoms: C_14  and  C_15
REMARK                            x       y       z     vdW  Elec       q    Type
REMARK                         _______ _______ _______ _____ _____    ______ ____
ROOT
ATOM      1  O   UNL     1      33.860 -22.282 -15.376  0.00  0.00    -0.274 OA
ATOM      2  N   UNL     1      36.707 -25.946 -13.857  0.00  0.00    -0.239 N 
ATOM      3  N   UNL     1      36.046 -25.972 -15.026  0.00  0.00    -0.166 NA
ATOM      4  N   UNL     1      34.593 -24.400 -16.082  0.00  0.00    -0.268 N 
ATOM      5  C   UNL     1      36.507 -24.804 -13.137  0.00  0.00    +0.045 C 
ATOM      6  C   UNL     1      35.659 -24.030 -13.888  0.00  0.00    +0.048 C 
ATOM      7  C   UNL     1      35.418 -24.805 -15.026  0.00  0.00    +0.152 C 
ATOM      8  C   UNL     1      33.889 -23.202 -16.186  0.00  0.00    +0.232 C 
ATOM      9  H   UNL     1      37.282 -26.682 -13.547  0.00  0.00    +0.174 HD
ATOM     10  H   UNL     1      34.500 -25.030 -16.833  0.00  0.00    +0.156 HD
ENDROOT
BRANCH   5  11
ATOM     11  C   UNL     1      37.110 -24.466 -11.780  0.00  0.00    +0.037 C 
ATOM     12  C   UNL     1      38.471 -23.818 -11.720  0.00  0.00    +0.006 C 
ATOM     13  C   UNL     1      37.247 -23.020 -11.375  0.00  0.00    +0.006 C 
ENDBRANCH   5  11
BRANCH   8  14
ATOM     14  C   UNL     1      33.107 -23.145 -17.496  0.00  0.00    +0.112 C 
BRANCH  14  15
ATOM     15  C   UNL     1      33.587 -22.097 -18.442  0.00  0.00    -0.013 C 
ATOM     16  C   UNL     1      35.423 -20.903 -19.501  0.00  0.00    -0.000 C 
ATOM     17  C   UNL     1      34.955 -21.886 -18.614  0.00  0.00    -0.004 C 
ATOM     18  C   UNL     1      34.490 -20.124 -20.226  0.00  0.00    -0.000 C 
ATOM     19  C   UNL     1      32.670 -21.330 -19.155  0.00  0.00    -0.004 C 
ATOM     20  C   UNL     1      33.117 -20.350 -20.041  0.00  0.00    -0.000 C 
ATOM     21  C   UNL     1      36.797 -20.677 -19.685  0.00  0.00    -0.000 C 
ATOM     22  C   UNL     1      34.959 -19.141 -21.114  0.00  0.00    -0.000 C 
ATOM     23  C   UNL     1      37.245 -19.696 -20.571  0.00  0.00    -0.000 C 
ATOM     24  C   UNL     1      36.327 -18.930 -21.284  0.00  0.00    -0.000 C 
ENDBRANCH  14  15
ENDBRANCH   8  14
TORSDOF 3
ENDMDL
MODEL 8
REMARK VINA RESULT:      -9.9      4.920      9.650
REMARK  Name = 449087
REMARK  3 active torsions:
REMARK  status: ('A' for Active; 'I' for Inactive)
REMARK    1  A    between atoms: C_5  and  C_11
REMARK    2  A    between atoms: C_8  and  C_14
REMARK    3  A    between atoms: C_14  and  C_15
REMARK                            x       y       z     vdW  Elec       q    Type
REMARK                         _______ _______ _______ _____ _____    ______ ____
ROOT
ATOM      1  O   UNL     1      33.461 -20.748 -19.741  0.00  0.00    -0.274 OA
ATOM      2  N   UNL     1      33.272 -23.640 -15.812  0.00  0.00    -0.239 N 
ATOM      3  N   UNL     1      34.409 -23.400 -16.487  0.00  0.00    -0.166 NA
ATOM      4  N   UNL     1      34.878 -22.069 -18.413  0.00  0.00    -0.268 N 
ATOM      5  C   UNL     1      32.181 -23.004 -16.327  0.00  0.00    +0.045 C 
ATOM      6  C   UNL     1      32.635 -22.297 -17.412  0.00  0.00    +0.048 C 
ATOM      7  C   UNL     1      34.001 -22.586 -17.451  0.00  0.00    +0.152 C 
ATOM      8  C   UNL     1      34.562 -21.211 -19.463  0.00  0.00    +0.232 C 
ATOM      9  H   UNL     1      33.230 -24.223 -15.020  0.00  0.00    +0.174 HD
ATOM     10  H   UNL     1      35.822 -22.342 -18.339  0.00  0.00    +0.156 HD
ENDROOT
BRANCH   5  11
ATOM     11  C   UNL     1      30.755 -23.068 -15.796  0.00  0.00    +0.037 C 
ATOM     12  C   UNL     1      30.147 -24.412 -15.480  0.00  0.00    +0.006 C 
ATOM     13  C   UNL     1      30.520 -23.479 -14.364  0.00  0.00    +0.006 C 
ENDBRANCH   5  11
BRANCH   8  14
ATOM     14  C   UNL     1      35.804 -20.880 -20.286  0.00  0.00    +0.112 C 
BRANCH  14  15
ATOM     15  C   UNL     1      35.677 -19.636 -21.101  0.00  0.00    -0.013 C 
ATOM     16  C   UNL     1      34.852 -18.502 -23.088  0.00  0.00    -0.000 C 
ATOM     17  C   UNL     1      34.981 -19.664 -22.309  0.00  0.00    -0.004 C 
ATOM     18  C   UNL     1      35.436 -17.296 -22.634  0.00  0.00    -0.000 C 
ATOM     19  C   UNL     1      36.251 -18.450 -20.654  0.00  0.00    -0.004 C 
ATOM     20  C   UNL     1      36.132 -17.287 -21.414  0.00  0.00    -0.000 C 
ATOM     21  C   UNL     1      34.156 -18.512 -24.308  0.00  0.00    -0.000 C 
ATOM     22  C   UNL     1      35.307 -16.134 -23.413  0.00  0.00    -0.000 C 
ATOM     23  C   UNL     1      34.038 -17.348 -25.069  0.00  0.00    -0.000 C 
ATOM     24  C   UNL     1      34.612 -16.162 -24.622  0.00  0.00    -0.000 C 
ENDBRANCH  14  15
ENDBRANCH   8  14
TORSDOF 3
ENDMDL
MODEL 9
REMARK VINA RESULT:      -9.7      2.471      9.433
REMARK  Name = 449087
REMARK  3 active torsions:
REMARK  status: ('A' for Active; 'I' for Inactive)
REMARK    1  A    between atoms: C_5  and  C_11
REMARK    2  A    between atoms: C_8  and  C_14
REMARK    3  A    between atoms: C_14  and  C_15
REMARK                            x       y       z     vdW  Elec       q    Type
REMARK                         _______ _______ _______ _____ _____    ______ ____
ROOT
ATOM      1  O   UNL     1      34.970 -12.640 -23.078  0.00  0.00    -0.274 OA
ATOM      2  N   UNL     1      34.081 -17.031 -25.018  0.00  0.00    -0.239 N 
ATOM      3  N   UNL     1      33.543 -15.898 -25.501  0.00  0.00    -0.166 NA
ATOM      4  N   UNL     1      33.745 -13.616 -24.829  0.00  0.00    -0.268 N 
ATOM      5  C   UNL     1      34.893 -16.840 -23.939  0.00  0.00    +0.045 C 
ATOM      6  C   UNL     1      34.889 -15.488 -23.700  0.00  0.00    +0.048 C 
ATOM      7  C   UNL     1      34.045 -14.977 -24.690  0.00  0.00    +0.152 C 
ATOM      8  C   UNL     1      34.213 -12.569 -24.039  0.00  0.00    +0.232 C 
ATOM      9  H   UNL     1      33.903 -17.918 -25.406  0.00  0.00    +0.174 HD
ATOM     10  H   UNL     1      33.139 -13.373 -25.565  0.00  0.00    +0.156 HD
ENDROOT
BRANCH   5  11
ATOM     11  C   UNL     1      35.648 -17.913 -23.166  0.00  0.00    +0.037 C 
ATOM     12  C   UNL     1      34.928 -18.691 -22.092  0.00  0.00    +0.006 C 
ATOM     13  C   UNL     1      35.296 -19.363 -23.383  0.00  0.00    +0.006 C 
ENDBRANCH   5  11
BRANCH   8  14
ATOM     14  C   UNL     1      33.652 -11.233 -24.522  0.00  0.00    +0.112 C 
BRANCH  14  15
ATOM     15  C   UNL     1      33.218 -10.324 -23.421  0.00  0.00    -0.013 C 
ATOM     16  C   UNL     1      33.183  -8.110 -22.416  0.00  0.00    -0.000 C 
ATOM     17  C   UNL     1      33.582  -8.978 -23.445  0.00  0.00    -0.004 C 
ATOM     18  C   UNL     1      32.401  -8.614 -21.349  0.00  0.00    -0.000 C 
ATOM     19  C   UNL     1      32.450 -10.820 -22.372  0.00  0.00    -0.004 C 
ATOM     20  C   UNL     1      32.044  -9.972 -21.342  0.00  0.00    -0.000 C 
ATOM     21  C   UNL     1      33.541  -6.752 -22.423  0.00  0.00    -0.000 C 
ATOM     22  C   UNL     1      32.001  -7.745 -20.320  0.00  0.00    -0.000 C 
ATOM     23  C   UNL     1      33.135  -5.903 -21.392  0.00  0.00    -0.000 C 
ATOM     24  C   UNL     1      32.366  -6.399 -20.343  0.00  0.00    -0.000 C 
ENDBRANCH  14  15
ENDBRANCH   8  14
TORSDOF 3
ENDMDL
