MODEL 1
REMARK VINA RESULT:     -12.1      0.000      0.000
REMARK  Name = 25101874
REMARK  5 active torsions:
REMARK  status: ('A' for Active; 'I' for Inactive)
REMARK    1  A    between atoms: N_1  and  C_22
REMARK    2  A    between atoms: C_2  and  N_8
REMARK    3  A    between atoms: N_8  and  C_11
REMARK    4  A    between atoms: C_11  and  C_14
REMARK    5  A    between atoms: C_22  and  C_28
REMARK                            x       y       z     vdW  Elec       q    Type
REMARK                         _______ _______ _______ _____ _____    ______ ____
ROOT
ATOM      1  N   UNL     1      34.302 -22.450 -18.904  0.00  0.00    +0.388 N 
ATOM      2  C   UNL     1      34.908 -19.988 -20.365  0.00  0.00    -0.066 C 
ATOM      3  C   UNL     1      35.671 -21.917 -18.930  0.00  0.00    -0.079 C 
ATOM      4  C   UNL     1      33.309 -21.369 -18.985  0.00  0.00    -0.079 C 
ATOM      5  C   UNL     1      35.929 -21.118 -20.209  0.00  0.00    -0.044 C 
ATOM      6  C   UNL     1      33.488 -20.551 -20.267  0.00  0.00    -0.044 C 
ATOM      7  H   UNL     1      34.183 -23.048 -19.721  0.00  0.00    -0.080 HD
ENDROOT
BRANCH   2   8
ATOM      8  N   UNL     1      35.109 -19.296 -21.636  0.00  0.00    +0.389 N 
ATOM      9  H   UNL     1      34.206 -19.165 -22.092  0.00  0.00    -0.084 HD
ATOM     10  H   UNL     1      35.724 -19.862 -22.222  0.00  0.00    -0.084 HD
BRANCH   8  11
ATOM     11  C   UNL     1      35.731 -17.998 -21.426  0.00  0.00    -0.034 C 
BRANCH  11  14
ATOM     12  O   UNL     1      34.175 -14.435 -25.447  0.00  0.00    -0.474 OA
ATOM     13  N   UNL     1      35.227 -17.453 -23.741  0.00  0.00    -0.247 NA
ATOM     14  C   UNL     1      35.312 -16.999 -22.471  0.00  0.00    +0.037 C 
ATOM     15  C   UNL     1      35.043 -15.693 -22.093  0.00  0.00    +0.011 C 
ATOM     16  C   UNL     1      34.662 -14.783 -23.081  0.00  0.00    +0.015 C 
ATOM     17  C   UNL     1      34.361 -13.357 -22.721  0.00  0.00    +0.033 C 
ATOM     18  C   UNL     1      34.542 -15.229 -24.398  0.00  0.00    +0.154 C 
ATOM     19  C   UNL     1      34.363 -12.487 -23.972  0.00  0.00    +0.052 C 
ATOM     20  C   UNL     1      34.845 -16.555 -24.676  0.00  0.00    +0.135 C 
ATOM     21  C   UNL     1      33.581 -13.187 -25.073  0.00  0.00    +0.206 C 
ENDBRANCH  11  14
ENDBRANCH   8  11
ENDBRANCH   2   8
BRANCH   1  22
ATOM     22  C   UNL     1      34.088 -23.253 -17.700  0.00  0.00    -0.055 C 
BRANCH  22  28
ATOM     23  O   UNL     1      31.289 -22.711 -15.859  0.00  0.00    -0.273 OA
ATOM     24  O   UNL     1      37.942 -23.290 -14.040  0.00  0.00    -0.270 OA
ATOM     25  N   UNL     1      33.542 -22.959 -15.297  0.00  0.00    -0.261 N 
ATOM     26  N   UNL     1      35.708 -23.145 -14.652  0.00  0.00    -0.255 N 
ATOM     27  N   UNL     1      32.669 -24.097 -12.887  0.00  0.00    -0.262 NA
ATOM     28  C   UNL     1      34.301 -22.420 -16.442  0.00  0.00    +0.076 C 
ATOM     29  C   UNL     1      35.776 -22.474 -15.958  0.00  0.00    +0.113 C 
ATOM     30  C   UNL     1      34.403 -23.367 -14.331  0.00  0.00    +0.196 C 
ATOM     31  C   UNL     1      33.993 -23.911 -13.189  0.00  0.00    +0.092 C 
ATOM     32  C   UNL     1      32.187 -23.058 -15.109  0.00  0.00    +0.252 C 
ATOM     33  C   UNL     1      36.751 -23.477 -13.809  0.00  0.00    +0.251 C 
ATOM     34  C   UNL     1      35.012 -24.305 -12.241  0.00  0.00    +0.022 C 
ATOM     35  C   UNL     1      31.813 -23.696 -13.782  0.00  0.00    +0.210 C 
ATOM     36  C   UNL     1      36.317 -24.115 -12.512  0.00  0.00    +0.059 C 
ENDBRANCH  22  28
ENDBRANCH   1  22
TORSDOF 5
ENDMDL
MODEL 2
REMARK VINA RESULT:     -11.8      4.914     12.259
REMARK  Name = 25101874
REMARK  5 active torsions:
REMARK  status: ('A' for Active; 'I' for Inactive)
REMARK    1  A    between atoms: N_1  and  C_22
REMARK    2  A    between atoms: C_2  and  N_8
REMARK    3  A    between atoms: N_8  and  C_11
REMARK    4  A    between atoms: C_11  and  C_14
REMARK    5  A    between atoms: C_22  and  C_28
REMARK                            x       y       z     vdW  Elec       q    Type
REMARK                         _______ _______ _______ _____ _____    ______ ____
ROOT
ATOM      1  N   UNL     1      33.844 -12.439 -23.519  0.00  0.00    +0.388 N 
ATOM      2  C   UNL     1      34.579 -15.228 -24.015  0.00  0.00    -0.066 C 
ATOM      3  C   UNL     1      34.804 -13.124 -22.642  0.00  0.00    -0.079 C 
ATOM      4  C   UNL     1      33.916 -12.956 -24.893  0.00  0.00    -0.079 C 
ATOM      5  C   UNL     1      34.542 -14.632 -22.606  0.00  0.00    -0.044 C 
ATOM      6  C   UNL     1      33.625 -14.459 -24.933  0.00  0.00    -0.044 C 
ATOM      7  H   UNL     1      32.907 -12.624 -23.163  0.00  0.00    -0.080 HD
ENDROOT
BRANCH   2   8
ATOM      8  N   UNL     1      34.234 -16.646 -23.973  0.00  0.00    +0.389 N 
ATOM      9  H   UNL     1      33.570 -16.852 -24.721  0.00  0.00    -0.084 HD
ATOM     10  H   UNL     1      33.820 -16.855 -23.064  0.00  0.00    -0.084 HD
BRANCH   8  11
ATOM     11  C   UNL     1      35.419 -17.473 -24.146  0.00  0.00    -0.034 C 
BRANCH  11  14
ATOM     12  O   UNL     1      36.726 -20.434 -19.584  0.00  0.00    -0.474 OA
ATOM     13  N   UNL     1      37.005 -18.305 -22.502  0.00  0.00    -0.247 NA
ATOM     14  C   UNL     1      35.719 -18.288 -22.916  0.00  0.00    +0.037 C 
ATOM     15  C   UNL     1      34.689 -18.966 -22.283  0.00  0.00    +0.011 C 
ATOM     16  C   UNL     1      34.993 -19.720 -21.148  0.00  0.00    +0.015 C 
ATOM     17  C   UNL     1      33.913 -20.474 -20.428  0.00  0.00    +0.033 C 
ATOM     18  C   UNL     1      36.309 -19.737 -20.683  0.00  0.00    +0.154 C 
ATOM     19  C   UNL     1      34.525 -21.511 -19.496  0.00  0.00    +0.052 C 
ATOM     20  C   UNL     1      37.270 -19.033 -21.394  0.00  0.00    +0.135 C 
ATOM     21  C   UNL     1      35.671 -20.877 -18.722  0.00  0.00    +0.206 C 
ENDBRANCH  11  14
ENDBRANCH   8  11
ENDBRANCH   2   8
BRANCH   1  22
ATOM     22  C   UNL     1      34.075 -10.995 -23.503  0.00  0.00    -0.055 C 
BRANCH  22  28
ATOM     23  O   UNL     1      31.996 -12.354 -21.190  0.00  0.00    -0.273 OA
ATOM     24  O   UNL     1      33.025  -5.797 -23.150  0.00  0.00    -0.270 OA
ATOM     25  N   UNL     1      32.416 -10.157 -21.858  0.00  0.00    -0.261 N 
ATOM     26  N   UNL     1      32.719  -7.993 -22.464  0.00  0.00    -0.255 N 
ATOM     27  N   UNL     1      31.837  -9.395 -19.222  0.00  0.00    -0.262 NA
ATOM     28  C   UNL     1      32.772 -10.235 -23.289  0.00  0.00    +0.076 C 
ATOM     29  C   UNL     1      32.896  -8.746 -23.714  0.00  0.00    +0.113 C 
ATOM     30  C   UNL     1      32.425  -8.860 -21.457  0.00  0.00    +0.196 C 
ATOM     31  C   UNL     1      32.155  -8.496 -20.207  0.00  0.00    +0.092 C 
ATOM     32  C   UNL     1      32.082 -11.155 -20.980  0.00  0.00    +0.252 C 
ATOM     33  C   UNL     1      32.776  -6.625 -22.278  0.00  0.00    +0.251 C 
ATOM     34  C   UNL     1      32.199  -7.082 -19.906  0.00  0.00    +0.022 C 
ATOM     35  C   UNL     1      31.796 -10.646 -19.577  0.00  0.00    +0.210 C 
ATOM     36  C   UNL     1      32.493  -6.182 -20.864  0.00  0.00    +0.059 C 
ENDBRANCH  22  28
ENDBRANCH   1  22
TORSDOF 5
ENDMDL
MODEL 3
REMARK VINA RESULT:     -11.7      1.098      2.892
REMARK  Name = 25101874
REMARK  5 active torsions:
REMARK  status: ('A' for Active; 'I' for Inactive)
REMARK    1  A    between atoms: N_1  and  C_22
REMARK    2  A    between atoms: C_2  and  N_8
REMARK    3  A    between atoms: N_8  and  C_11
REMARK    4  A    between atoms: C_11  and  C_14
REMARK    5  A    between atoms: C_22  and  C_28
REMARK                            x       y       z     vdW  Elec       q    Type
REMARK                         _______ _______ _______ _____ _____    ______ ____
ROOT
ATOM      1  N   UNL     1      35.201 -21.926 -18.424  0.00  0.00    +0.388 N 
ATOM      2  C   UNL     1      35.178 -19.944 -20.576  0.00  0.00    -0.066 C 
ATOM      3  C   UNL     1      36.396 -21.118 -18.705  0.00  0.00    -0.079 C 
ATOM      4  C   UNL     1      33.972 -21.186 -18.741  0.00  0.00    -0.079 C 
ATOM      5  C   UNL     1      36.448 -20.701 -20.177  0.00  0.00    -0.044 C 
ATOM      6  C   UNL     1      33.942 -20.771 -20.214  0.00  0.00    -0.044 C 
ATOM      7  H   UNL     1      35.234 -22.752 -19.022  0.00  0.00    -0.080 HD
ENDROOT
BRANCH   2   8
ATOM      8  N   UNL     1      35.201 -19.638 -22.005  0.00  0.00    +0.389 N 
ATOM      9  H   UNL     1      34.287 -19.283 -22.286  0.00  0.00    -0.084 HD
ATOM     10  H   UNL     1      35.425 -20.491 -22.518  0.00  0.00    -0.084 HD
BRANCH   8  11
ATOM     11  C   UNL     1      36.214 -18.636 -22.303  0.00  0.00    -0.034 C 
BRANCH  11  14
ATOM     12  O   UNL     1      33.986 -14.192 -24.867  0.00  0.00    -0.474 OA
ATOM     13  N   UNL     1      35.337 -17.499 -24.265  0.00  0.00    -0.247 NA
ATOM     14  C   UNL     1      35.619 -17.411 -22.947  0.00  0.00    +0.037 C 
ATOM     15  C   UNL     1      35.397 -16.280 -22.177  0.00  0.00    +0.011 C 
ATOM     16  C   UNL     1      34.851 -15.155 -22.797  0.00  0.00    +0.015 C 
ATOM     17  C   UNL     1      34.592 -13.905 -22.007  0.00  0.00    +0.033 C 
ATOM     18  C   UNL     1      34.526 -15.224 -24.154  0.00  0.00    +0.154 C 
ATOM     19  C   UNL     1      34.383 -12.723 -22.945  0.00  0.00    +0.052 C 
ATOM     20  C   UNL     1      34.798 -16.400 -24.838  0.00  0.00    +0.135 C 
ATOM     21  C   UNL     1      33.442 -13.133 -24.068  0.00  0.00    +0.206 C 
ENDBRANCH  11  14
ENDBRANCH   8  11
ENDBRANCH   2   8
BRANCH   1  22
ATOM     22  C   UNL     1      35.193 -22.359 -17.027  0.00  0.00    -0.055 C 
BRANCH  22  28
ATOM     23  O   UNL     1      35.999 -24.557 -14.569  0.00  0.00    -0.273 OA
ATOM     24  O   UNL     1      29.879 -22.328 -16.912  0.00  0.00    -0.270 OA
ATOM     25  N   UNL     1      33.964 -23.737 -15.368  0.00  0.00    -0.261 N 
ATOM     26  N   UNL     1      31.935 -23.035 -16.100  0.00  0.00    -0.255 N 
ATOM     27  N   UNL     1      32.984 -24.026 -12.756  0.00  0.00    -0.262 NA
ATOM     28  C   UNL     1      34.176 -23.472 -16.805  0.00  0.00    +0.076 C 
ATOM     29  C   UNL     1      32.764 -23.073 -17.313  0.00  0.00    +0.113 C 
ATOM     30  C   UNL     1      32.680 -23.449 -15.037  0.00  0.00    +0.196 C 
ATOM     31  C   UNL     1      32.213 -23.581 -13.799  0.00  0.00    +0.092 C 
ATOM     32  C   UNL     1      34.834 -24.223 -14.427  0.00  0.00    +0.252 C 
ATOM     33  C   UNL     1      30.601 -22.696 -15.989  0.00  0.00    +0.251 C 
ATOM     34  C   UNL     1      30.825 -23.240 -13.576  0.00  0.00    +0.022 C 
ATOM     35  C   UNL     1      34.216 -24.334 -13.043  0.00  0.00    +0.210 C 
ATOM     36  C   UNL     1      30.047 -22.817 -14.591  0.00  0.00    +0.059 C 
ENDBRANCH  22  28
ENDBRANCH   1  22
TORSDOF 5
ENDMDL
MODEL 4
REMARK VINA RESULT:     -11.7      3.157     11.583
REMARK  Name = 25101874
REMARK  5 active torsions:
REMARK  status: ('A' for Active; 'I' for Inactive)
REMARK    1  A    between atoms: N_1  and  C_22
REMARK    2  A    between atoms: C_2  and  N_8
REMARK    3  A    between atoms: N_8  and  C_11
REMARK    4  A    between atoms: C_11  and  C_14
REMARK    5  A    between atoms: C_22  and  C_28
REMARK                            x       y       z     vdW  Elec       q    Type
REMARK                         _______ _______ _______ _____ _____    ______ ____
ROOT
ATOM      1  N   UNL     1      34.279 -15.373 -23.830  0.00  0.00    +0.388 N 
ATOM      2  C   UNL     1      35.322 -18.078 -23.431  0.00  0.00    -0.066 C 
ATOM      3  C   UNL     1      35.419 -15.607 -22.932  0.00  0.00    -0.079 C 
ATOM      4  C   UNL     1      34.260 -16.348 -24.930  0.00  0.00    -0.079 C 
ATOM      5  C   UNL     1      35.369 -17.014 -22.331  0.00  0.00    -0.044 C 
ATOM      6  C   UNL     1      34.171 -17.780 -24.396  0.00  0.00    -0.044 C 
ATOM      7  H   UNL     1      33.424 -15.493 -23.289  0.00  0.00    -0.080 HD
ENDROOT
BRANCH   2   8
ATOM      8  N   UNL     1      35.178 -19.407 -22.842  0.00  0.00    +0.389 N 
ATOM      9  H   UNL     1      36.069 -19.691 -22.433  0.00  0.00    -0.084 HD
ATOM     10  H   UNL     1      34.899 -20.061 -23.574  0.00  0.00    -0.084 HD
BRANCH   8  11
ATOM     11  C   UNL     1      34.157 -19.406 -21.805  0.00  0.00    -0.034 C 
BRANCH  11  14
ATOM     12  O   UNL     1      35.888 -22.362 -17.383  0.00  0.00    -0.474 OA
ATOM     13  N   UNL     1      35.894 -20.264 -20.337  0.00  0.00    -0.247 NA
ATOM     14  C   UNL     1      34.571 -20.219 -20.607  0.00  0.00    +0.037 C 
ATOM     15  C   UNL     1      33.602 -20.866 -19.858  0.00  0.00    +0.011 C 
ATOM     16  C   UNL     1      34.011 -21.619 -18.755  0.00  0.00    +0.015 C 
ATOM     17  C   UNL     1      32.999 -22.340 -17.913  0.00  0.00    +0.033 C 
ATOM     18  C   UNL     1      35.370 -21.664 -18.437  0.00  0.00    +0.154 C 
ATOM     19  C   UNL     1      33.686 -23.384 -17.043  0.00  0.00    +0.052 C 
ATOM     20  C   UNL     1      36.262 -20.989 -19.257  0.00  0.00    +0.135 C 
ATOM     21  C   UNL     1      34.924 -22.772 -16.405  0.00  0.00    +0.206 C 
ENDBRANCH  11  14
ENDBRANCH   8  11
ENDBRANCH   2   8
BRANCH   1  22
ATOM     22  C   UNL     1      34.314 -14.009 -24.356  0.00  0.00    -0.055 C 
BRANCH  22  28
ATOM     23  O   UNL     1      35.186 -10.914 -25.442  0.00  0.00    -0.273 OA
ATOM     24  O   UNL     1      31.916 -13.019 -19.717  0.00  0.00    -0.270 OA
ATOM     25  N   UNL     1      34.047 -11.676 -23.551  0.00  0.00    -0.261 N 
ATOM     26  N   UNL     1      32.970 -12.316 -21.661  0.00  0.00    -0.255 N 
ATOM     27  N   UNL     1      32.606  -9.271 -23.624  0.00  0.00    -0.262 NA
ATOM     28  C   UNL     1      34.617 -13.004 -23.250  0.00  0.00    +0.076 C 
ATOM     29  C   UNL     1      33.935 -13.397 -21.912  0.00  0.00    +0.113 C 
ATOM     30  C   UNL     1      33.110 -11.361 -22.622  0.00  0.00    +0.196 C 
ATOM     31  C   UNL     1      32.422 -10.224 -22.656  0.00  0.00    +0.092 C 
ATOM     32  C   UNL     1      34.354 -10.796 -24.557  0.00  0.00    +0.252 C 
ATOM     33  C   UNL     1      32.076 -12.197 -20.615  0.00  0.00    +0.251 C 
ATOM     34  C   UNL     1      31.450 -10.008 -21.607  0.00  0.00    +0.022 C 
ATOM     35  C   UNL     1      33.515  -9.529 -24.520  0.00  0.00    +0.210 C 
ATOM     36  C   UNL     1      31.266 -10.924 -20.637  0.00  0.00    +0.059 C 
ENDBRANCH  22  28
ENDBRANCH   1  22
TORSDOF 5
ENDMDL
MODEL 5
REMARK VINA RESULT:     -11.6      4.027     12.016
REMARK  Name = 25101874
REMARK  5 active torsions:
REMARK  status: ('A' for Active; 'I' for Inactive)
REMARK    1  A    between atoms: N_1  and  C_22
REMARK    2  A    between atoms: C_2  and  N_8
REMARK    3  A    between atoms: N_8  and  C_11
REMARK    4  A    between atoms: C_11  and  C_14
REMARK    5  A    between atoms: C_22  and  C_28
REMARK                            x       y       z     vdW  Elec       q    Type
REMARK                         _______ _______ _______ _____ _____    ______ ____
ROOT
ATOM      1  N   UNL     1      34.245 -13.581 -23.139  0.00  0.00    +0.388 N 
ATOM      2  C   UNL     1      35.061 -16.376 -23.430  0.00  0.00    -0.066 C 
ATOM      3  C   UNL     1      35.140 -14.202 -22.153  0.00  0.00    -0.079 C 
ATOM      4  C   UNL     1      34.437 -14.165 -24.474  0.00  0.00    -0.079 C 
ATOM      5  C   UNL     1      34.899 -15.711 -22.061  0.00  0.00    -0.044 C 
ATOM      6  C   UNL     1      34.172 -15.672 -24.460  0.00  0.00    -0.044 C 
ATOM      7  H   UNL     1      33.285 -13.766 -22.851  0.00  0.00    -0.080 HD
ENDROOT
BRANCH   2   8
ATOM      8  N   UNL     1      34.734 -17.797 -23.343  0.00  0.00    +0.389 N 
ATOM      9  H   UNL     1      34.746 -18.202 -24.280  0.00  0.00    -0.084 HD
ATOM     10  H   UNL     1      33.807 -17.895 -22.927  0.00  0.00    -0.084 HD
BRANCH   8  11
ATOM     11  C   UNL     1      35.696 -18.499 -22.508  0.00  0.00    -0.034 C 
BRANCH  11  14
ATOM     12  O   UNL     1      33.005 -21.684 -18.779  0.00  0.00    -0.474 OA
ATOM     13  N   UNL     1      33.669 -19.372 -21.488  0.00  0.00    -0.247 NA
ATOM     14  C   UNL     1      35.020 -19.369 -21.482  0.00  0.00    +0.037 C 
ATOM     15  C   UNL     1      35.795 -20.106 -20.600  0.00  0.00    +0.011 C 
ATOM     16  C   UNL     1      35.146 -20.901 -19.654  0.00  0.00    +0.015 C 
ATOM     17  C   UNL     1      35.940 -21.717 -18.676  0.00  0.00    +0.033 C 
ATOM     18  C   UNL     1      33.750 -20.943 -19.653  0.00  0.00    +0.154 C 
ATOM     19  C   UNL     1      35.054 -22.168 -17.523  0.00  0.00    +0.052 C 
ATOM     20  C   UNL     1      33.065 -20.160 -20.570  0.00  0.00    +0.135 C 
ATOM     21  C   UNL     1      33.738 -22.695 -18.077  0.00  0.00    +0.206 C 
ENDBRANCH  11  14
ENDBRANCH   8  11
ENDBRANCH   2   8
BRANCH   1  22
ATOM     22  C   UNL     1      34.453 -12.134 -23.178  0.00  0.00    -0.055 C 
BRANCH  22  28
ATOM     23  O   UNL     1      32.090 -13.047 -20.920  0.00  0.00    -0.273 OA
ATOM     24  O   UNL     1      33.322  -7.022 -24.094  0.00  0.00    -0.270 OA
ATOM     25  N   UNL     1      32.579 -11.027 -21.985  0.00  0.00    -0.261 N 
ATOM     26  N   UNL     1      32.944  -9.032 -22.998  0.00  0.00    -0.255 N 
ATOM     27  N   UNL     1      31.640  -9.745 -19.673  0.00  0.00    -0.262 NA
ATOM     28  C   UNL     1      33.126 -11.394 -23.306  0.00  0.00    +0.076 C 
ATOM     29  C   UNL     1      33.294 -10.026 -24.022  0.00  0.00    +0.113 C 
ATOM     30  C   UNL     1      32.523  -9.676 -21.875  0.00  0.00    +0.196 C 
ATOM     31  C   UNL     1      32.082  -9.064 -20.779  0.00  0.00    +0.092 C 
ATOM     32  C   UNL     1      32.136 -11.828 -20.964  0.00  0.00    +0.252 C 
ATOM     33  C   UNL     1      32.963  -7.654 -23.105  0.00  0.00    +0.251 C 
ATOM     34  C   UNL     1      32.074  -7.618 -20.787  0.00  0.00    +0.022 C 
ATOM     35  C   UNL     1      31.659 -11.044 -19.752  0.00  0.00    +0.210 C 
ATOM     36  C   UNL     1      32.487  -6.932 -21.869  0.00  0.00    +0.059 C 
ENDBRANCH  22  28
ENDBRANCH   1  22
TORSDOF 5
ENDMDL
MODEL 6
REMARK VINA RESULT:     -11.6      2.192     11.441
REMARK  Name = 25101874
REMARK  5 active torsions:
REMARK  status: ('A' for Active; 'I' for Inactive)
REMARK    1  A    between atoms: N_1  and  C_22
REMARK    2  A    between atoms: C_2  and  N_8
REMARK    3  A    between atoms: N_8  and  C_11
REMARK    4  A    between atoms: C_11  and  C_14
REMARK    5  A    between atoms: C_22  and  C_28
REMARK                            x       y       z     vdW  Elec       q    Type
REMARK                         _______ _______ _______ _____ _____    ______ ____
ROOT
ATOM      1  N   UNL     1      35.587 -17.561 -22.464  0.00  0.00    +0.388 N 
ATOM      2  C   UNL     1      36.025 -19.975 -20.870  0.00  0.00    -0.066 C 
ATOM      3  C   UNL     1      36.943 -18.098 -22.283  0.00  0.00    -0.079 C 
ATOM      4  C   UNL     1      34.583 -18.634 -22.448  0.00  0.00    -0.079 C 
ATOM      5  C   UNL     1      37.065 -18.856 -20.958  0.00  0.00    -0.044 C 
ATOM      6  C   UNL     1      34.626 -19.409 -21.129  0.00  0.00    -0.044 C 
ATOM      7  H   UNL     1      35.392 -16.936 -21.683  0.00  0.00    -0.080 HD
ENDROOT
BRANCH   2   8
ATOM      8  N   UNL     1      36.091 -20.625 -19.563  0.00  0.00    +0.389 N 
ATOM      9  H   UNL     1      35.689 -20.005 -18.860  0.00  0.00    -0.084 HD
ATOM     10  H   UNL     1      37.069 -20.822 -19.346  0.00  0.00    -0.084 HD
BRANCH   8  11
ATOM     11  C   UNL     1      35.354 -21.879 -19.571  0.00  0.00    -0.034 C 
BRANCH  11  14
ATOM     12  O   UNL     1      33.589 -23.167 -14.421  0.00  0.00    -0.474 OA
ATOM     13  N   UNL     1      35.746 -22.382 -17.224  0.00  0.00    -0.247 NA
ATOM     14  C   UNL     1      34.828 -22.230 -18.204  0.00  0.00    +0.037 C 
ATOM     15  C   UNL     1      33.462 -22.377 -18.020  0.00  0.00    +0.011 C 
ATOM     16  C   UNL     1      32.999 -22.708 -16.745  0.00  0.00    +0.015 C 
ATOM     17  C   UNL     1      31.528 -22.881 -16.495  0.00  0.00    +0.033 C 
ATOM     18  C   UNL     1      33.922 -22.848 -15.707  0.00  0.00    +0.154 C 
ATOM     19  C   UNL     1      31.300 -23.612 -15.178  0.00  0.00    +0.052 C 
ATOM     20  C   UNL     1      35.270 -22.690 -15.997  0.00  0.00    +0.135 C 
ATOM     21  C   UNL     1      32.200 -23.011 -14.108  0.00  0.00    +0.206 C 
ENDBRANCH  11  14
ENDBRANCH   8  11
ENDBRANCH   2   8
BRANCH   1  22
ATOM     22  C   UNL     1      35.502 -16.797 -23.709  0.00  0.00    -0.055 C 
BRANCH  22  28
ATOM     23  O   UNL     1      34.585 -15.321 -20.793  0.00  0.00    -0.273 OA
ATOM     24  O   UNL     1      33.554 -13.493 -27.389  0.00  0.00    -0.270 OA
ATOM     25  N   UNL     1      34.306 -14.729 -23.035  0.00  0.00    -0.261 N 
ATOM     26  N   UNL     1      33.945 -14.087 -25.179  0.00  0.00    -0.255 N 
ATOM     27  N   UNL     1      34.438 -12.056 -22.198  0.00  0.00    -0.262 NA
ATOM     28  C   UNL     1      34.203 -16.003 -23.775  0.00  0.00    +0.076 C 
ATOM     29  C   UNL     1      33.874 -15.555 -25.225  0.00  0.00    +0.113 C 
ATOM     30  C   UNL     1      34.170 -13.690 -23.897  0.00  0.00    +0.196 C 
ATOM     31  C   UNL     1      34.236 -12.421 -23.504  0.00  0.00    +0.092 C 
ATOM     32  C   UNL     1      34.480 -14.504 -21.694  0.00  0.00    +0.252 C 
ATOM     33  C   UNL     1      33.770 -13.193 -26.218  0.00  0.00    +0.251 C 
ATOM     34  C   UNL     1      34.076 -11.405 -24.521  0.00  0.00    +0.022 C 
ATOM     35  C   UNL     1      34.550 -13.028 -21.340  0.00  0.00    +0.210 C 
ATOM     36  C   UNL     1      33.860 -11.744 -25.806  0.00  0.00    +0.059 C 
ENDBRANCH  22  28
ENDBRANCH   1  22
TORSDOF 5
ENDMDL
MODEL 7
REMARK VINA RESULT:     -11.4      4.830     12.483
REMARK  Name = 25101874
REMARK  5 active torsions:
REMARK  status: ('A' for Active; 'I' for Inactive)
REMARK    1  A    between atoms: N_1  and  C_22
REMARK    2  A    between atoms: C_2  and  N_8
REMARK    3  A    between atoms: N_8  and  C_11
REMARK    4  A    between atoms: C_11  and  C_14
REMARK    5  A    between atoms: C_22  and  C_28
REMARK                            x       y       z     vdW  Elec       q    Type
REMARK                         _______ _______ _______ _____ _____    ______ ____
ROOT
ATOM      1  N   UNL     1      33.995 -13.167 -22.683  0.00  0.00    +0.388 N 
ATOM      2  C   UNL     1      34.614 -15.898 -23.530  0.00  0.00    -0.066 C 
ATOM      3  C   UNL     1      33.305 -13.763 -23.836  0.00  0.00    -0.079 C 
ATOM      4  C   UNL     1      34.356 -14.190 -21.691  0.00  0.00    -0.079 C 
ATOM      5  C   UNL     1      34.182 -14.814 -24.521  0.00  0.00    -0.044 C 
ATOM      6  C   UNL     1      35.269 -15.255 -22.305  0.00  0.00    -0.044 C 
ATOM      7  H   UNL     1      34.856 -12.739 -23.021  0.00  0.00    -0.080 HD
ENDROOT
BRANCH   2   8
ATOM      8  N   UNL     1      35.527 -16.839 -24.176  0.00  0.00    +0.389 N 
ATOM      9  H   UNL     1      36.464 -16.713 -23.794  0.00  0.00    -0.084 HD
ATOM     10  H   UNL     1      35.526 -16.657 -25.181  0.00  0.00    -0.084 HD
BRANCH   8  11
ATOM     11  C   UNL     1      35.100 -18.211 -23.951  0.00  0.00    -0.034 C 
BRANCH  11  14
ATOM     12  O   UNL     1      37.383 -20.193 -19.245  0.00  0.00    -0.474 OA
ATOM     13  N   UNL     1      36.939 -18.423 -22.375  0.00  0.00    -0.247 NA
ATOM     14  C   UNL     1      35.670 -18.775 -22.676  0.00  0.00    +0.037 C 
ATOM     15  C   UNL     1      34.886 -19.607 -21.893  0.00  0.00    +0.011 C 
ATOM     16  C   UNL     1      35.438 -20.123 -20.718  0.00  0.00    +0.015 C 
ATOM     17  C   UNL     1      34.630 -21.030 -19.836  0.00  0.00    +0.033 C 
ATOM     18  C   UNL     1      36.739 -19.757 -20.368  0.00  0.00    +0.154 C 
ATOM     19  C   UNL     1      35.541 -21.765 -18.862  0.00  0.00    +0.052 C 
ATOM     20  C   UNL     1      37.444 -18.925 -21.226  0.00  0.00    +0.135 C 
ATOM     21  C   UNL     1      36.528 -20.778 -18.255  0.00  0.00    +0.206 C 
ENDBRANCH  11  14
ENDBRANCH   8  11
ENDBRANCH   2   8
BRANCH   1  22
ATOM     22  C   UNL     1      33.164 -12.130 -22.071  0.00  0.00    -0.055 C 
BRANCH  22  28
ATOM     23  O   UNL     1      30.792  -9.933 -21.039  0.00  0.00    -0.273 OA
ATOM     24  O   UNL     1      36.224  -9.179 -25.261  0.00  0.00    -0.270 OA
ATOM     25  N   UNL     1      32.664  -9.724 -22.419  0.00  0.00    -0.261 N 
ATOM     26  N   UNL     1      34.433  -9.427 -23.807  0.00  0.00    -0.255 N 
ATOM     27  N   UNL     1      32.869  -7.082 -21.502  0.00  0.00    -0.262 NA
ATOM     28  C   UNL     1      32.825 -11.037 -23.076  0.00  0.00    +0.076 C 
ATOM     29  C   UNL     1      33.983 -10.799 -24.083  0.00  0.00    +0.113 C 
ATOM     30  C   UNL     1      33.619  -8.871 -22.867  0.00  0.00    +0.196 C 
ATOM     31  C   UNL     1      33.722  -7.619 -22.432  0.00  0.00    +0.092 C 
ATOM     32  C   UNL     1      31.726  -9.305 -21.512  0.00  0.00    +0.252 C 
ATOM     33  C   UNL     1      35.468  -8.733 -24.403  0.00  0.00    +0.251 C 
ATOM     34  C   UNL     1      34.785  -6.811 -22.987  0.00  0.00    +0.022 C 
ATOM     35  C   UNL     1      31.926  -7.865 -21.067  0.00  0.00    +0.210 C 
ATOM     36  C   UNL     1      35.622  -7.315 -23.914  0.00  0.00    +0.059 C 
ENDBRANCH  22  28
ENDBRANCH   1  22
TORSDOF 5
ENDMDL
MODEL 8
REMARK VINA RESULT:     -11.3      1.455      2.034
REMARK  Name = 25101874
REMARK  5 active torsions:
REMARK  status: ('A' for Active; 'I' for Inactive)
REMARK    1  A    between atoms: N_1  and  C_22
REMARK    2  A    between atoms: C_2  and  N_8
REMARK    3  A    between atoms: N_8  and  C_11
REMARK    4  A    between atoms: C_11  and  C_14
REMARK    5  A    between atoms: C_22  and  C_28
REMARK                            x       y       z     vdW  Elec       q    Type
REMARK                         _______ _______ _______ _____ _____    ______ ____
ROOT
ATOM      1  N   UNL     1      35.338 -21.943 -17.779  0.00  0.00    +0.388 N 
ATOM      2  C   UNL     1      34.924 -20.593 -20.342  0.00  0.00    -0.066 C 
ATOM      3  C   UNL     1      34.154 -22.243 -18.595  0.00  0.00    -0.079 C 
ATOM      4  C   UNL     1      36.486 -21.575 -18.620  0.00  0.00    -0.079 C 
ATOM      5  C   UNL     1      33.758 -21.042 -19.457  0.00  0.00    -0.044 C 
ATOM      6  C   UNL     1      36.168 -20.351 -19.483  0.00  0.00    -0.044 C 
ATOM      7  H   UNL     1      35.115 -21.144 -17.186  0.00  0.00    -0.080 HD
ENDROOT
BRANCH   2   8
ATOM      8  N   UNL     1      34.560 -19.390 -21.085  0.00  0.00    +0.389 N 
ATOM      9  H   UNL     1      34.143 -18.714 -20.445  0.00  0.00    -0.084 HD
ATOM     10  H   UNL     1      33.893 -19.645 -21.815  0.00  0.00    -0.084 HD
BRANCH   8  11
ATOM     11  C   UNL     1      35.731 -18.795 -21.712  0.00  0.00    -0.034 C 
BRANCH  11  14
ATOM     12  O   UNL     1      34.357 -14.689 -25.253  0.00  0.00    -0.474 OA
ATOM     13  N   UNL     1      35.286 -17.936 -23.943  0.00  0.00    -0.247 NA
ATOM     14  C   UNL     1      35.362 -17.654 -22.624  0.00  0.00    +0.037 C 
ATOM     15  C   UNL     1      35.125 -16.401 -22.081  0.00  0.00    +0.011 C 
ATOM     16  C   UNL     1      34.790 -15.358 -22.946  0.00  0.00    +0.015 C 
ATOM     17  C   UNL     1      34.525 -13.982 -22.407  0.00  0.00    +0.033 C 
ATOM     18  C   UNL     1      34.680 -15.625 -24.312  0.00  0.00    +0.154 C 
ATOM     19  C   UNL     1      34.577 -12.957 -23.532  0.00  0.00    +0.052 C 
ATOM     20  C   UNL     1      34.948 -16.912 -24.757  0.00  0.00    +0.135 C 
ATOM     21  C   UNL     1      33.794 -13.481 -24.727  0.00  0.00    +0.206 C 
ENDBRANCH  11  14
ENDBRANCH   8  11
ENDBRANCH   2   8
BRANCH   1  22
ATOM     22  C   UNL     1      35.674 -23.082 -16.925  0.00  0.00    -0.055 C 
BRANCH  22  28
ATOM     23  O   UNL     1      33.610 -22.613 -14.271  0.00  0.00    -0.273 OA
ATOM     24  O   UNL     1      40.239 -24.568 -14.644  0.00  0.00    -0.270 OA
ATOM     25  N   UNL     1      35.830 -23.313 -14.458  0.00  0.00    -0.261 N 
ATOM     26  N   UNL     1      38.002 -23.958 -14.529  0.00  0.00    -0.255 N 
ATOM     27  N   UNL     1      35.383 -24.870 -12.169  0.00  0.00    -0.262 NA
ATOM     28  C   UNL     1      36.367 -22.623 -15.648  0.00  0.00    +0.076 C 
ATOM     29  C   UNL     1      37.873 -23.004 -15.640  0.00  0.00    +0.113 C 
ATOM     30  C   UNL     1      36.805 -24.064 -13.888  0.00  0.00    +0.196 C 
ATOM     31  C   UNL     1      36.596 -24.807 -12.805  0.00  0.00    +0.092 C 
ATOM     32  C   UNL     1      34.577 -23.259 -13.903  0.00  0.00    +0.252 C 
ATOM     33  C   UNL     1      39.133 -24.634 -14.113  0.00  0.00    +0.251 C 
ATOM     34  C   UNL     1      37.719 -25.563 -12.296  0.00  0.00    +0.022 C 
ATOM     35  C   UNL     1      34.430 -24.143 -12.675  0.00  0.00    +0.210 C 
ATOM     36  C   UNL     1      38.922 -25.501 -12.897  0.00  0.00    +0.059 C 
ENDBRANCH  22  28
ENDBRANCH   1  22
TORSDOF 5
ENDMDL
MODEL 9
REMARK VINA RESULT:     -11.3      1.842      2.452
REMARK  Name = 25101874
REMARK  5 active torsions:
REMARK  status: ('A' for Active; 'I' for Inactive)
REMARK    1  A    between atoms: N_1  and  C_22
REMARK    2  A    between atoms: C_2  and  N_8
REMARK    3  A    between atoms: N_8  and  C_11
REMARK    4  A    between atoms: C_11  and  C_14
REMARK    5  A    between atoms: C_22  and  C_28
REMARK                            x       y       z     vdW  Elec       q    Type
REMARK                         _______ _______ _______ _____ _____    ______ ____
ROOT
ATOM      1  N   UNL     1      35.201 -21.244 -20.383  0.00  0.00    +0.388 N 
ATOM      2  C   UNL     1      35.036 -18.480 -21.329  0.00  0.00    -0.066 C 
ATOM      3  C   UNL     1      36.351 -20.340 -20.246  0.00  0.00    -0.079 C 
ATOM      4  C   UNL     1      33.932 -20.506 -20.307  0.00  0.00    -0.079 C 
ATOM      5  C   UNL     1      36.347 -19.270 -21.341  0.00  0.00    -0.044 C 
ATOM      6  C   UNL     1      33.846 -19.441 -21.403  0.00  0.00    -0.044 C 
ATOM      7  H   UNL     1      35.254 -21.682 -21.302  0.00  0.00    -0.080 HD
ENDROOT
BRANCH   2   8
ATOM      8  N   UNL     1      35.009 -17.529 -22.438  0.00  0.00    +0.389 N 
ATOM      9  H   UNL     1      34.046 -17.239 -22.607  0.00  0.00    -0.084 HD
ATOM     10  H   UNL     1      35.393 -17.983 -23.267  0.00  0.00    -0.084 HD
BRANCH   8  11
ATOM     11  C   UNL     1      35.814 -16.356 -22.133  0.00  0.00    -0.034 C 
BRANCH  11  14
ATOM     12  O   UNL     1      32.880 -11.614 -22.568  0.00  0.00    -0.474 OA
ATOM     13  N   UNL     1      35.149 -14.338 -23.315  0.00  0.00    -0.247 NA
ATOM     14  C   UNL     1      35.006 -15.087 -22.200  0.00  0.00    +0.037 C 
ATOM     15  C   UNL     1      34.176 -14.756 -21.140  0.00  0.00    +0.011 C 
ATOM     16  C   UNL     1      33.441 -13.571 -21.222  0.00  0.00    +0.015 C 
ATOM     17  C   UNL     1      32.529 -13.167 -20.100  0.00  0.00    +0.033 C 
ATOM     18  C   UNL     1      33.550 -12.788 -22.373  0.00  0.00    +0.154 C 
ATOM     19  C   UNL     1      32.158 -11.696 -20.227  0.00  0.00    +0.052 C 
ATOM     20  C   UNL     1      34.418 -13.203 -23.373  0.00  0.00    +0.135 C 
ATOM     21  C   UNL     1      31.785 -11.394 -21.671  0.00  0.00    +0.206 C 
ENDBRANCH  11  14
ENDBRANCH   8  11
ENDBRANCH   2   8
BRANCH   1  22
ATOM     22  C   UNL     1      35.248 -22.290 -19.362  0.00  0.00    -0.055 C 
BRANCH  22  28
ATOM     23  O   UNL     1      32.156 -22.033 -17.985  0.00  0.00    -0.273 OA
ATOM     24  O   UNL     1      38.386 -23.011 -15.133  0.00  0.00    -0.270 OA
ATOM     25  N   UNL     1      34.276 -22.406 -17.081  0.00  0.00    -0.261 N 
ATOM     26  N   UNL     1      36.295 -22.730 -16.100  0.00  0.00    -0.255 N 
ATOM     27  N   UNL     1      33.006 -23.929 -15.097  0.00  0.00    -0.262 NA
ATOM     28  C   UNL     1      35.219 -21.689 -17.962  0.00  0.00    +0.076 C 
ATOM     29  C   UNL     1      36.584 -21.846 -17.238  0.00  0.00    +0.113 C 
ATOM     30  C   UNL     1      34.958 -22.986 -16.061  0.00  0.00    +0.196 C 
ATOM     31  C   UNL     1      34.360 -23.712 -15.121  0.00  0.00    +0.092 C 
ATOM     32  C   UNL     1      32.912 -22.517 -17.158  0.00  0.00    +0.252 C 
ATOM     33  C   UNL     1      37.176 -23.218 -15.154  0.00  0.00    +0.251 C 
ATOM     34  C   UNL     1      35.199 -24.278 -14.088  0.00  0.00    +0.022 C 
ATOM     35  C   UNL     1      32.317 -23.368 -16.048  0.00  0.00    +0.210 C 
ATOM     36  C   UNL     1      36.528 -24.062 -14.085  0.00  0.00    +0.059 C 
ENDBRANCH  22  28
ENDBRANCH   1  22
TORSDOF 5
ENDMDL
