MODEL 1
REMARK VINA RESULT:     -12.4      0.000      0.000
REMARK  Name = 22479942
REMARK  4 active torsions:
REMARK  status: ('A' for Active; 'I' for Inactive)
REMARK    1  A    between atoms: C_4  and  C_17
REMARK    2  A    between atoms: C_7  and  C_14
REMARK    3  A    between atoms: C_20  and  N_24
REMARK    4  A    between atoms: C_25  and  C_28
REMARK                            x       y       z     vdW  Elec       q    Type
REMARK                         _______ _______ _______ _____ _____    ______ ____
ROOT
ATOM      1  N   UNL     1      31.312 -22.956 -16.837  0.00  0.00    -0.276 N 
ATOM      2  N   UNL     1      32.085 -22.383 -17.775  0.00  0.00    -0.173 NA
ATOM      3  C   UNL     1      33.328 -23.068 -15.980  0.00  0.00    +0.036 A 
ATOM      4  C   UNL     1      33.310 -22.453 -17.250  0.00  0.00    +0.102 A 
ATOM      5  C   UNL     1      31.998 -23.388 -15.733  0.00  0.00    +0.075 A 
ATOM      6  C   UNL     1      34.302 -23.387 -15.019  0.00  0.00    +0.006 C 
ATOM      7  C   UNL     1      33.895 -24.023 -13.839  0.00  0.00    +0.033 C 
ATOM      8  C   UNL     1      31.570 -24.021 -14.564  0.00  0.00    +0.019 C 
ATOM      9  C   UNL     1      32.551 -24.333 -13.618  0.00  0.00    +0.004 C 
ATOM     10  H   UNL     1      30.338 -23.056 -16.935  0.00  0.00    +0.189 HD
ENDROOT
BRANCH   7  14
ATOM     11  N   UNL     1      35.931 -25.186 -13.081  0.00  0.00    -0.218 N 
ATOM     12  N   UNL     1      34.919 -23.947 -11.592  0.00  0.00    -0.206 NA
ATOM     13  N   UNL     1      36.695 -25.335 -11.988  0.00  0.00    -0.157 NA
ATOM     14  C   UNL     1      34.879 -24.359 -12.839  0.00  0.00    +0.149 C 
ATOM     15  C   UNL     1      36.039 -24.565 -11.115  0.00  0.00    +0.218 C 
ATOM     16  H   UNL     1      36.111 -25.618 -13.947  0.00  0.00    +0.176 HD
ENDBRANCH   7  14
BRANCH   4  17
ATOM     17  C   UNL     1      34.439 -21.931 -17.978  0.00  0.00    +0.021 C 
ATOM     18  C   UNL     1      34.238 -21.226 -19.165  0.00  0.00    +0.016 C 
ATOM     19  C   UNL     1      35.732 -22.130 -17.496  0.00  0.00    +0.002 C 
ATOM     20  C   UNL     1      35.330 -20.721 -19.869  0.00  0.00    +0.051 C 
ATOM     21  C   UNL     1      36.825 -21.625 -18.201  0.00  0.00    +0.001 C 
ATOM     22  C   UNL     1      36.624 -20.920 -19.387  0.00  0.00    +0.015 C 
BRANCH  20  24
ATOM     23  O   UNL     1      36.266 -18.020 -20.654  0.00  0.00    -0.266 OA
ATOM     24  N   UNL     1      35.130 -20.014 -21.056  0.00  0.00    -0.278 N 
ATOM     25  C   UNL     1      35.591 -18.727 -21.399  0.00  0.00    +0.284 C 
ATOM     26  H   UNL     1      34.599 -20.477 -21.744  0.00  0.00    +0.155 HD
BRANCH  25  28
ATOM     27  O   UNL     1      35.407 -16.943 -23.033  0.00  0.00    -0.446 OA
ATOM     28  C   UNL     1      35.170 -18.245 -22.725  0.00  0.00    +0.199 C 
ATOM     29  C   UNL     1      34.551 -18.884 -23.774  0.00  0.00    +0.045 C 
ATOM     30  C   UNL     1      34.398 -17.913 -24.792  0.00  0.00    +0.044 C 
ATOM     31  C   UNL     1      34.935 -16.749 -24.292  0.00  0.00    +0.180 C 
ENDBRANCH  25  28
ENDBRANCH  20  24
ENDBRANCH   4  17
TORSDOF 4
ENDMDL
MODEL 2
REMARK VINA RESULT:     -11.9      2.068      3.218
REMARK  Name = 22479942
REMARK  4 active torsions:
REMARK  status: ('A' for Active; 'I' for Inactive)
REMARK    1  A    between atoms: C_4  and  C_17
REMARK    2  A    between atoms: C_7  and  C_14
REMARK    3  A    between atoms: C_20  and  N_24
REMARK    4  A    between atoms: C_25  and  C_28
REMARK                            x       y       z     vdW  Elec       q    Type
REMARK                         _______ _______ _______ _____ _____    ______ ____
ROOT
ATOM      1  N   UNL     1      32.435 -22.011 -19.071  0.00  0.00    -0.276 N 
ATOM      2  N   UNL     1      33.008 -21.162 -19.941  0.00  0.00    -0.173 NA
ATOM      3  C   UNL     1      34.478 -21.793 -18.305  0.00  0.00    +0.036 A 
ATOM      4  C   UNL     1      34.250 -21.032 -19.472  0.00  0.00    +0.102 A 
ATOM      5  C   UNL     1      33.265 -22.427 -18.065  0.00  0.00    +0.075 A 
ATOM      6  C   UNL     1      35.557 -22.018 -17.434  0.00  0.00    +0.006 C 
ATOM      7  C   UNL     1      35.369 -22.880 -16.346  0.00  0.00    +0.033 C 
ATOM      8  C   UNL     1      33.056 -23.290 -16.986  0.00  0.00    +0.019 C 
ATOM      9  C   UNL     1      34.139 -23.504 -16.128  0.00  0.00    +0.004 C 
ATOM     10  H   UNL     1      31.500 -22.308 -19.151  0.00  0.00    +0.189 HD
ENDROOT
BRANCH   7  14
ATOM     11  N   UNL     1      37.759 -23.215 -15.842  0.00  0.00    -0.218 N 
ATOM     12  N   UNL     1      36.395 -23.292 -14.136  0.00  0.00    -0.206 NA
ATOM     13  N   UNL     1      38.578 -23.446 -14.805  0.00  0.00    -0.157 NA
ATOM     14  C   UNL     1      36.464 -23.124 -15.437  0.00  0.00    +0.149 C 
ATOM     15  C   UNL     1      37.704 -23.484 -13.796  0.00  0.00    +0.218 C 
ATOM     16  H   UNL     1      38.058 -23.122 -16.776  0.00  0.00    +0.176 HD
ENDBRANCH   7  14
BRANCH   4  17
ATOM     17  C   UNL     1      35.194 -20.182 -20.153  0.00  0.00    +0.021 C 
ATOM     18  C   UNL     1      34.740 -19.099 -20.906  0.00  0.00    +0.016 C 
ATOM     19  C   UNL     1      36.561 -20.443 -20.058  0.00  0.00    +0.002 C 
ATOM     20  C   UNL     1      35.654 -18.277 -21.565  0.00  0.00    +0.051 C 
ATOM     21  C   UNL     1      37.475 -19.620 -20.718  0.00  0.00    +0.001 C 
ATOM     22  C   UNL     1      37.022 -18.537 -21.471  0.00  0.00    +0.015 C 
BRANCH  20  24
ATOM     23  O   UNL     1      35.057 -18.091 -24.462  0.00  0.00    -0.266 OA
ATOM     24  N   UNL     1      35.202 -17.192 -22.318  0.00  0.00    -0.278 N 
ATOM     25  C   UNL     1      34.927 -17.137 -23.699  0.00  0.00    +0.284 C 
ATOM     26  H   UNL     1      35.055 -16.357 -21.817  0.00  0.00    +0.155 HD
BRANCH  25  28
ATOM     27  O   UNL     1      33.832 -15.774 -25.381  0.00  0.00    -0.446 OA
ATOM     28  C   UNL     1      34.499 -15.819 -24.199  0.00  0.00    +0.199 C 
ATOM     29  C   UNL     1      34.649 -14.554 -23.680  0.00  0.00    +0.045 C 
ATOM     30  C   UNL     1      34.033 -13.675 -24.603  0.00  0.00    +0.044 C 
ATOM     31  C   UNL     1      33.550 -14.466 -25.620  0.00  0.00    +0.180 C 
ENDBRANCH  25  28
ENDBRANCH  20  24
ENDBRANCH   4  17
TORSDOF 4
ENDMDL
MODEL 3
REMARK VINA RESULT:     -11.5      4.571      8.593
REMARK  Name = 22479942
REMARK  4 active torsions:
REMARK  status: ('A' for Active; 'I' for Inactive)
REMARK    1  A    between atoms: C_4  and  C_17
REMARK    2  A    between atoms: C_7  and  C_14
REMARK    3  A    between atoms: C_20  and  N_24
REMARK    4  A    between atoms: C_25  and  C_28
REMARK                            x       y       z     vdW  Elec       q    Type
REMARK                         _______ _______ _______ _____ _____    ______ ____
ROOT
ATOM      1  N   UNL     1      32.039 -24.366 -13.431  0.00  0.00    -0.276 N 
ATOM      2  N   UNL     1      33.141 -24.651 -12.716  0.00  0.00    -0.173 NA
ATOM      3  C   UNL     1      33.678 -23.691 -14.723  0.00  0.00    +0.036 A 
ATOM      4  C   UNL     1      34.135 -24.238 -13.505  0.00  0.00    +0.102 A 
ATOM      5  C   UNL     1      32.293 -23.789 -14.647  0.00  0.00    +0.075 A 
ATOM      6  C   UNL     1      34.267 -23.130 -15.869  0.00  0.00    +0.006 C 
ATOM      7  C   UNL     1      33.429 -22.686 -16.901  0.00  0.00    +0.033 C 
ATOM      8  C   UNL     1      31.441 -23.353 -15.664  0.00  0.00    +0.019 C 
ATOM      9  C   UNL     1      32.041 -22.797 -16.798  0.00  0.00    +0.004 C 
ATOM     10  H   UNL     1      31.129 -24.557 -13.109  0.00  0.00    +0.189 HD
ENDROOT
BRANCH   7  14
ATOM     11  N   UNL     1      33.293 -21.401 -19.000  0.00  0.00    -0.218 N 
ATOM     12  N   UNL     1      35.269 -22.166 -18.466  0.00  0.00    -0.206 NA
ATOM     13  N   UNL     1      34.070 -20.974 -20.007  0.00  0.00    -0.157 NA
ATOM     14  C   UNL     1      34.013 -22.108 -18.087  0.00  0.00    +0.149 C 
ATOM     15  C   UNL     1      35.256 -21.464 -19.637  0.00  0.00    +0.218 C 
ATOM     16  H   UNL     1      32.327 -21.224 -18.929  0.00  0.00    +0.176 HD
ENDBRANCH   7  14
BRANCH   4  17
ATOM     17  C   UNL     1      35.503 -24.375 -13.074  0.00  0.00    +0.021 C 
ATOM     18  C   UNL     1      36.354 -25.269 -13.726  0.00  0.00    +0.016 C 
ATOM     19  C   UNL     1      35.977 -23.614 -12.006  0.00  0.00    +0.002 C 
ATOM     20  C   UNL     1      37.678 -25.401 -13.309  0.00  0.00    +0.051 C 
ATOM     21  C   UNL     1      37.302 -23.747 -11.589  0.00  0.00    +0.001 C 
ATOM     22  C   UNL     1      38.153 -24.640 -12.240  0.00  0.00    +0.015 C 
BRANCH  20  24
ATOM     23  O   UNL     1      40.058 -24.872 -14.993  0.00  0.00    -0.266 OA
ATOM     24  N   UNL     1      38.530 -26.294 -13.960  0.00  0.00    -0.278 N 
ATOM     25  C   UNL     1      39.657 -26.009 -14.756  0.00  0.00    +0.284 C 
ATOM     26  H   UNL     1      38.315 -27.249 -13.848  0.00  0.00    +0.155 HD
BRANCH  25  28
ATOM     27  O   UNL     1      41.411 -27.684 -14.695  0.00  0.00    -0.446 OA
ATOM     28  C   UNL     1      40.325 -27.185 -15.340  0.00  0.00    +0.199 C 
ATOM     29  C   UNL     1      40.054 -27.921 -16.469  0.00  0.00    +0.045 C 
ATOM     30  C   UNL     1      41.037 -28.938 -16.522  0.00  0.00    +0.044 C 
ATOM     31  C   UNL     1      41.839 -28.751 -15.420  0.00  0.00    +0.180 C 
ENDBRANCH  25  28
ENDBRANCH  20  24
ENDBRANCH   4  17
TORSDOF 4
ENDMDL
MODEL 4
REMARK VINA RESULT:     -10.7      3.816      8.119
REMARK  Name = 22479942
REMARK  4 active torsions:
REMARK  status: ('A' for Active; 'I' for Inactive)
REMARK    1  A    between atoms: C_4  and  C_17
REMARK    2  A    between atoms: C_7  and  C_14
REMARK    3  A    between atoms: C_20  and  N_24
REMARK    4  A    between atoms: C_25  and  C_28
REMARK                            x       y       z     vdW  Elec       q    Type
REMARK                         _______ _______ _______ _____ _____    ______ ____
ROOT
ATOM      1  N   UNL     1      36.800 -23.315 -14.989  0.00  0.00    -0.276 N 
ATOM      2  N   UNL     1      35.764 -23.796 -14.282  0.00  0.00    -0.173 NA
ATOM      3  C   UNL     1      35.053 -22.746 -16.186  0.00  0.00    +0.036 A 
ATOM      4  C   UNL     1      34.703 -23.448 -15.013  0.00  0.00    +0.102 A 
ATOM      5  C   UNL     1      36.440 -22.672 -16.144  0.00  0.00    +0.075 A 
ATOM      6  C   UNL     1      34.366 -22.169 -17.267  0.00  0.00    +0.006 C 
ATOM      7  C   UNL     1      35.110 -21.536 -18.272  0.00  0.00    +0.033 C 
ATOM      8  C   UNL     1      37.201 -22.047 -17.133  0.00  0.00    +0.019 C 
ATOM      9  C   UNL     1      36.504 -21.478 -18.203  0.00  0.00    +0.004 C 
ATOM     10  H   UNL     1      37.736 -23.416 -14.702  0.00  0.00    +0.189 HD
ENDROOT
BRANCH   7  14
ATOM     11  N   UNL     1      33.076 -20.997 -19.555  0.00  0.00    -0.218 N 
ATOM     12  N   UNL     1      34.961 -20.267 -20.386  0.00  0.00    -0.206 NA
ATOM     13  N   UNL     1      32.693 -20.362 -20.673  0.00  0.00    -0.157 NA
ATOM     14  C   UNL     1      34.425 -20.936 -19.391  0.00  0.00    +0.149 C 
ATOM     15  C   UNL     1      33.870 -19.939 -21.139  0.00  0.00    +0.218 C 
ATOM     16  H   UNL     1      32.460 -21.448 -18.933  0.00  0.00    +0.176 HD
ENDBRANCH   7  14
BRANCH   4  17
ATOM     17  C   UNL     1      33.376 -23.798 -14.573  0.00  0.00    +0.021 C 
ATOM     18  C   UNL     1      32.263 -23.222 -15.188  0.00  0.00    +0.016 C 
ATOM     19  C   UNL     1      33.204 -24.712 -13.535  0.00  0.00    +0.002 C 
ATOM     20  C   UNL     1      30.979 -23.561 -14.762  0.00  0.00    +0.051 C 
ATOM     21  C   UNL     1      31.919 -25.051 -13.109  0.00  0.00    +0.001 C 
ATOM     22  C   UNL     1      30.807 -24.476 -13.723  0.00  0.00    +0.015 C 
BRANCH  20  24
ATOM     23  O   UNL     1      28.783 -24.836 -16.290  0.00  0.00    -0.266 OA
ATOM     24  N   UNL     1      29.865 -22.987 -15.377  0.00  0.00    -0.278 N 
ATOM     25  C   UNL     1      28.835 -23.624 -16.098  0.00  0.00    +0.284 C 
ATOM     26  H   UNL     1      29.789 -22.009 -15.294  0.00  0.00    +0.155 HD
BRANCH  25  28
ATOM     27  O   UNL     1      27.537 -22.827 -17.985  0.00  0.00    -0.446 OA
ATOM     28  C   UNL     1      27.816 -22.722 -16.660  0.00  0.00    +0.199 C 
ATOM     29  C   UNL     1      27.046 -21.741 -16.080  0.00  0.00    +0.045 C 
ATOM     30  C   UNL     1      26.242 -21.208 -17.116  0.00  0.00    +0.044 C 
ATOM     31  C   UNL     1      26.578 -21.903 -18.256  0.00  0.00    +0.180 C 
ENDBRANCH  25  28
ENDBRANCH  20  24
ENDBRANCH   4  17
TORSDOF 4
ENDMDL
MODEL 5
REMARK VINA RESULT:     -10.4      3.654      7.311
REMARK  Name = 22479942
REMARK  4 active torsions:
REMARK  status: ('A' for Active; 'I' for Inactive)
REMARK    1  A    between atoms: C_4  and  C_17
REMARK    2  A    between atoms: C_7  and  C_14
REMARK    3  A    between atoms: C_20  and  N_24
REMARK    4  A    between atoms: C_25  and  C_28
REMARK                            x       y       z     vdW  Elec       q    Type
REMARK                         _______ _______ _______ _____ _____    ______ ____
ROOT
ATOM      1  N   UNL     1      38.220 -18.829 -21.481  0.00  0.00    -0.276 N 
ATOM      2  N   UNL     1      37.631 -18.119 -22.458  0.00  0.00    -0.173 NA
ATOM      3  C   UNL     1      36.088 -19.276 -21.227  0.00  0.00    +0.036 A 
ATOM      4  C   UNL     1      36.335 -18.393 -22.300  0.00  0.00    +0.102 A 
ATOM      5  C   UNL     1      37.348 -19.546 -20.706  0.00  0.00    +0.075 A 
ATOM      6  C   UNL     1      34.958 -19.872 -20.642  0.00  0.00    +0.006 C 
ATOM      7  C   UNL     1      35.145 -20.724 -19.545  0.00  0.00    +0.033 C 
ATOM      8  C   UNL     1      37.556 -20.392 -19.614  0.00  0.00    +0.019 C 
ATOM      9  C   UNL     1      36.422 -20.978 -19.043  0.00  0.00    +0.004 C 
ATOM     10  H   UNL     1      39.193 -18.833 -21.334  0.00  0.00    +0.189 HD
ENDROOT
BRANCH   7  14
ATOM     11  N   UNL     1      32.724 -20.913 -19.121  0.00  0.00    -0.218 N 
ATOM     12  N   UNL     1      33.995 -22.384 -18.122  0.00  0.00    -0.206 NA
ATOM     13  N   UNL     1      31.846 -21.663 -18.437  0.00  0.00    -0.157 NA
ATOM     14  C   UNL     1      33.998 -21.348 -18.929  0.00  0.00    +0.149 C 
ATOM     15  C   UNL     1      32.666 -22.538 -17.850  0.00  0.00    +0.218 C 
ATOM     16  H   UNL     1      32.477 -20.148 -19.690  0.00  0.00    +0.176 HD
ENDBRANCH   7  14
BRANCH   4  17
ATOM     17  C   UNL     1      35.359 -17.801 -23.181  0.00  0.00    +0.021 C 
ATOM     18  C   UNL     1      35.242 -16.413 -23.259  0.00  0.00    +0.016 C 
ATOM     19  C   UNL     1      34.533 -18.616 -23.954  0.00  0.00    +0.002 C 
ATOM     20  C   UNL     1      34.298 -15.840 -24.111  0.00  0.00    +0.051 C 
ATOM     21  C   UNL     1      33.588 -18.043 -24.806  0.00  0.00    +0.001 C 
ATOM     22  C   UNL     1      33.471 -16.655 -24.885  0.00  0.00    +0.015 C 
BRANCH  20  24
ATOM     23  O   UNL     1      33.648 -13.862 -22.001  0.00  0.00    -0.266 OA
ATOM     24  N   UNL     1      34.180 -14.452 -24.191  0.00  0.00    -0.278 N 
ATOM     25  C   UNL     1      33.869 -13.537 -23.166  0.00  0.00    +0.284 C 
ATOM     26  H   UNL     1      34.335 -14.062 -25.082  0.00  0.00    +0.155 HD
BRANCH  25  28
ATOM     27  O   UNL     1      33.095 -11.268 -22.792  0.00  0.00    -0.446 OA
ATOM     28  C   UNL     1      33.780 -12.130 -23.589  0.00  0.00    +0.199 C 
ATOM     29  C   UNL     1      34.279 -11.475 -24.691  0.00  0.00    +0.045 C 
ATOM     30  C   UNL     1      33.876 -10.124 -24.563  0.00  0.00    +0.044 C 
ATOM     31  C   UNL     1      33.159 -10.050 -23.390  0.00  0.00    +0.180 C 
ENDBRANCH  25  28
ENDBRANCH  20  24
ENDBRANCH   4  17
TORSDOF 4
ENDMDL
MODEL 6
REMARK VINA RESULT:     -10.3      8.946     15.045
REMARK  Name = 22479942
REMARK  4 active torsions:
REMARK  status: ('A' for Active; 'I' for Inactive)
REMARK    1  A    between atoms: C_4  and  C_17
REMARK    2  A    between atoms: C_7  and  C_14
REMARK    3  A    between atoms: C_20  and  N_24
REMARK    4  A    between atoms: C_25  and  C_28
REMARK                            x       y       z     vdW  Elec       q    Type
REMARK                         _______ _______ _______ _____ _____    ______ ____
ROOT
ATOM      1  N   UNL     1      35.960  -8.693 -24.932  0.00  0.00    -0.276 N 
ATOM      2  N   UNL     1      35.582  -9.933 -24.575  0.00  0.00    -0.173 NA
ATOM      3  C   UNL     1      34.196  -8.351 -23.674  0.00  0.00    +0.036 A 
ATOM      4  C   UNL     1      34.509  -9.720 -23.811  0.00  0.00    +0.102 A 
ATOM      5  C   UNL     1      35.168  -7.698 -24.422  0.00  0.00    +0.075 A 
ATOM      6  C   UNL     1      33.214  -7.595 -23.011  0.00  0.00    +0.006 C 
ATOM      7  C   UNL     1      33.251  -6.200 -23.131  0.00  0.00    +0.033 C 
ATOM      8  C   UNL     1      35.223  -6.309 -24.555  0.00  0.00    +0.019 C 
ATOM      9  C   UNL     1      34.240  -5.570 -23.890  0.00  0.00    +0.004 C 
ATOM     10  H   UNL     1      36.737  -8.516 -25.508  0.00  0.00    +0.189 HD
ENDROOT
BRANCH   7  14
ATOM     11  N   UNL     1      31.764  -4.241 -22.966  0.00  0.00    -0.218 N 
ATOM     12  N   UNL     1      31.682  -5.655 -21.302  0.00  0.00    -0.206 NA
ATOM     13  N   UNL     1      30.851  -3.698 -22.147  0.00  0.00    -0.157 NA
ATOM     14  C   UNL     1      32.253  -5.404 -22.458  0.00  0.00    +0.149 C 
ATOM     15  C   UNL     1      30.838  -4.592 -21.155  0.00  0.00    +0.218 C 
ATOM     16  H   UNL     1      32.043  -3.849 -23.826  0.00  0.00    +0.176 HD
ENDBRANCH   7  14
BRANCH   4  17
ATOM     17  C   UNL     1      33.805 -10.835 -23.229  0.00  0.00    +0.021 C 
ATOM     18  C   UNL     1      34.280 -12.134 -23.415  0.00  0.00    +0.016 C 
ATOM     19  C   UNL     1      32.651 -10.616 -22.479  0.00  0.00    +0.002 C 
ATOM     20  C   UNL     1      33.599 -13.213 -22.852  0.00  0.00    +0.051 C 
ATOM     21  C   UNL     1      31.969 -11.695 -21.916  0.00  0.00    +0.001 C 
ATOM     22  C   UNL     1      32.443 -12.993 -22.101  0.00  0.00    +0.015 C 
BRANCH  20  24
ATOM     23  O   UNL     1      33.873 -14.801 -25.339  0.00  0.00    -0.266 OA
ATOM     24  N   UNL     1      34.073 -14.512 -23.036  0.00  0.00    -0.278 N 
ATOM     25  C   UNL     1      34.191 -15.241 -24.236  0.00  0.00    +0.284 C 
ATOM     26  H   UNL     1      34.364 -14.980 -22.220  0.00  0.00    +0.155 HD
BRANCH  25  28
ATOM     27  O   UNL     1      34.269 -17.550 -24.977  0.00  0.00    -0.446 OA
ATOM     28  C   UNL     1      34.694 -16.617 -24.086  0.00  0.00    +0.199 C 
ATOM     29  C   UNL     1      35.557 -17.178 -23.173  0.00  0.00    +0.045 C 
ATOM     30  C   UNL     1      35.669 -18.544 -23.526  0.00  0.00    +0.044 C 
ATOM     31  C   UNL     1      34.867 -18.720 -24.630  0.00  0.00    +0.180 C 
ENDBRANCH  25  28
ENDBRANCH  20  24
ENDBRANCH   4  17
TORSDOF 4
ENDMDL
MODEL 7
REMARK VINA RESULT:     -10.3      4.887      8.764
REMARK  Name = 22479942
REMARK  4 active torsions:
REMARK  status: ('A' for Active; 'I' for Inactive)
REMARK    1  A    between atoms: C_4  and  C_17
REMARK    2  A    between atoms: C_7  and  C_14
REMARK    3  A    between atoms: C_20  and  N_24
REMARK    4  A    between atoms: C_25  and  C_28
REMARK                            x       y       z     vdW  Elec       q    Type
REMARK                         _______ _______ _______ _____ _____    ______ ____
ROOT
ATOM      1  N   UNL     1      32.473 -23.811 -15.453  0.00  0.00    -0.276 N 
ATOM      2  N   UNL     1      33.453 -24.262 -14.651  0.00  0.00    -0.173 NA
ATOM      3  C   UNL     1      34.298 -23.009 -16.368  0.00  0.00    +0.036 A 
ATOM      4  C   UNL     1      34.560 -23.772 -15.211  0.00  0.00    +0.102 A 
ATOM      5  C   UNL     1      32.915 -23.052 -16.503  0.00  0.00    +0.075 A 
ATOM      6  C   UNL     1      35.059 -22.294 -17.308  0.00  0.00    +0.006 C 
ATOM      7  C   UNL     1      34.392 -21.645 -18.355  0.00  0.00    +0.033 C 
ATOM      8  C   UNL     1      32.230 -22.412 -17.539  0.00  0.00    +0.019 C 
ATOM      9  C   UNL     1      33.001 -21.705 -18.466  0.00  0.00    +0.004 C 
ATOM     10  H   UNL     1      31.522 -24.008 -15.298  0.00  0.00    +0.189 HD
ENDROOT
BRANCH   7  14
ATOM     11  N   UNL     1      34.637 -20.493 -20.520  0.00  0.00    -0.218 N 
ATOM     12  N   UNL     1      36.410 -20.530 -19.243  0.00  0.00    -0.206 NA
ATOM     13  N   UNL     1      35.551 -19.830 -21.245  0.00  0.00    -0.157 NA
ATOM     14  C   UNL     1      35.154 -20.906 -19.332  0.00  0.00    +0.149 C 
ATOM     15  C   UNL     1      36.606 -19.879 -20.427  0.00  0.00    +0.218 C 
ATOM     16  H   UNL     1      33.711 -20.659 -20.812  0.00  0.00    +0.176 HD
ENDBRANCH   7  14
BRANCH   4  17
ATOM     17  C   UNL     1      35.848 -24.044 -14.623  0.00  0.00    +0.021 C 
ATOM     18  C   UNL     1      36.624 -25.101 -15.103  0.00  0.00    +0.016 C 
ATOM     19  C   UNL     1      36.318 -23.252 -13.577  0.00  0.00    +0.002 C 
ATOM     20  C   UNL     1      37.870 -25.363 -14.535  0.00  0.00    +0.051 C 
ATOM     21  C   UNL     1      37.565 -23.516 -13.009  0.00  0.00    +0.001 C 
ATOM     22  C   UNL     1      38.341 -24.571 -13.487  0.00  0.00    +0.015 C 
BRANCH  20  24
ATOM     23  O   UNL     1      40.790 -25.504 -15.021  0.00  0.00    -0.266 OA
ATOM     24  N   UNL     1      38.648 -26.419 -15.014  0.00  0.00    -0.278 N 
ATOM     25  C   UNL     1      40.039 -26.453 -15.234  0.00  0.00    +0.284 C 
ATOM     26  H   UNL     1      38.159 -27.247 -15.224  0.00  0.00    +0.155 HD
BRANCH  25  28
ATOM     27  O   UNL     1      41.711 -28.211 -15.280  0.00  0.00    -0.446 OA
ATOM     28  C   UNL     1      40.553 -27.716 -15.790  0.00  0.00    +0.199 C 
ATOM     29  C   UNL     1      40.069 -28.543 -16.777  0.00  0.00    +0.045 C 
ATOM     30  C   UNL     1      40.988 -29.614 -16.880  0.00  0.00    +0.044 C 
ATOM     31  C   UNL     1      41.969 -29.366 -15.947  0.00  0.00    +0.180 C 
ENDBRANCH  25  28
ENDBRANCH  20  24
ENDBRANCH   4  17
TORSDOF 4
ENDMDL
MODEL 8
REMARK VINA RESULT:     -10.1      5.254      8.793
REMARK  Name = 22479942
REMARK  4 active torsions:
REMARK  status: ('A' for Active; 'I' for Inactive)
REMARK    1  A    between atoms: C_4  and  C_17
REMARK    2  A    between atoms: C_7  and  C_14
REMARK    3  A    between atoms: C_20  and  N_24
REMARK    4  A    between atoms: C_25  and  C_28
REMARK                            x       y       z     vdW  Elec       q    Type
REMARK                         _______ _______ _______ _____ _____    ______ ____
ROOT
ATOM      1  N   UNL     1      35.737 -22.109 -17.184  0.00  0.00    -0.276 N 
ATOM      2  N   UNL     1      36.678 -22.687 -16.418  0.00  0.00    -0.173 NA
ATOM      3  C   UNL     1      34.582 -23.396 -15.835  0.00  0.00    +0.036 A 
ATOM      4  C   UNL     1      35.971 -23.469 -15.599  0.00  0.00    +0.102 A 
ATOM      5  C   UNL     1      34.457 -22.492 -16.884  0.00  0.00    +0.075 A 
ATOM      6  C   UNL     1      33.427 -23.981 -15.289  0.00  0.00    +0.006 C 
ATOM      7  C   UNL     1      32.182 -23.630 -15.828  0.00  0.00    +0.033 C 
ATOM      8  C   UNL     1      33.227 -22.128 -17.435  0.00  0.00    +0.019 C 
ATOM      9  C   UNL     1      32.086 -22.719 -16.882  0.00  0.00    +0.004 C 
ATOM     10  H   UNL     1      35.950 -21.467 -17.898  0.00  0.00    +0.189 HD
ENDROOT
BRANCH   7  14
ATOM     11  N   UNL     1      29.733 -23.875 -15.695  0.00  0.00    -0.218 N 
ATOM     12  N   UNL     1      30.901 -25.134 -14.344  0.00  0.00    -0.206 NA
ATOM     13  N   UNL     1      28.794 -24.565 -15.031  0.00  0.00    -0.157 NA
ATOM     14  C   UNL     1      30.982 -24.218 -15.282  0.00  0.00    +0.149 C 
ATOM     15  C   UNL     1      29.553 -25.313 -14.225  0.00  0.00    +0.218 C 
ATOM     16  H   UNL     1      29.542 -23.207 -16.393  0.00  0.00    +0.176 HD
ENDBRANCH   7  14
BRANCH   4  17
ATOM     17  C   UNL     1      36.643 -24.272 -14.609  0.00  0.00    +0.021 C 
ATOM     18  C   UNL     1      37.586 -25.222 -15.004  0.00  0.00    +0.016 C 
ATOM     19  C   UNL     1      36.352 -24.099 -13.257  0.00  0.00    +0.002 C 
ATOM     20  C   UNL     1      38.236 -25.999 -14.045  0.00  0.00    +0.051 C 
ATOM     21  C   UNL     1      37.002 -24.877 -12.298  0.00  0.00    +0.001 C 
ATOM     22  C   UNL     1      37.944 -25.827 -12.692  0.00  0.00    +0.015 C 
BRANCH  20  24
ATOM     23  O   UNL     1      41.008 -25.632 -15.027  0.00  0.00    -0.266 OA
ATOM     24  N   UNL     1      39.179 -26.949 -14.439  0.00  0.00    -0.278 N 
ATOM     25  C   UNL     1      40.494 -26.741 -14.902  0.00  0.00    +0.284 C 
ATOM     26  H   UNL     1      38.888 -27.888 -14.384  0.00  0.00    +0.155 HD
BRANCH  25  28
ATOM     27  O   UNL     1      42.024 -28.539 -14.342  0.00  0.00    -0.446 OA
ATOM     28  C   UNL     1      41.225 -27.962 -15.278  0.00  0.00    +0.199 C 
ATOM     29  C   UNL     1      41.265 -28.677 -16.453  0.00  0.00    +0.045 C 
ATOM     30  C   UNL     1      42.144 -29.762 -16.223  0.00  0.00    +0.044 C 
ATOM     31  C   UNL     1      42.578 -29.634 -14.924  0.00  0.00    +0.180 C 
ENDBRANCH  25  28
ENDBRANCH  20  24
ENDBRANCH   4  17
TORSDOF 4
ENDMDL
MODEL 9
REMARK VINA RESULT:     -10.0      6.982     11.297
REMARK  Name = 22479942
REMARK  4 active torsions:
REMARK  status: ('A' for Active; 'I' for Inactive)
REMARK    1  A    between atoms: C_4  and  C_17
REMARK    2  A    between atoms: C_7  and  C_14
REMARK    3  A    between atoms: C_20  and  N_24
REMARK    4  A    between atoms: C_25  and  C_28
REMARK                            x       y       z     vdW  Elec       q    Type
REMARK                         _______ _______ _______ _____ _____    ______ ____
ROOT
ATOM      1  N   UNL     1      33.682 -14.325 -25.404  0.00  0.00    -0.276 N 
ATOM      2  N   UNL     1      33.150 -13.373 -24.619  0.00  0.00    -0.173 NA
ATOM      3  C   UNL     1      34.195 -14.986 -23.377  0.00  0.00    +0.036 A 
ATOM      4  C   UNL     1      33.464 -13.779 -23.387  0.00  0.00    +0.102 A 
ATOM      5  C   UNL     1      34.323 -15.323 -24.719  0.00  0.00    +0.075 A 
ATOM      6  C   UNL     1      34.757 -15.825 -22.400  0.00  0.00    +0.006 C 
ATOM      7  C   UNL     1      35.433 -16.979 -22.818  0.00  0.00    +0.033 C 
ATOM      8  C   UNL     1      34.992 -16.468 -25.158  0.00  0.00    +0.019 C 
ATOM      9  C   UNL     1      35.546 -17.293 -24.174  0.00  0.00    +0.004 C 
ATOM     10  H   UNL     1      33.617 -14.306 -26.386  0.00  0.00    +0.189 HD
ENDROOT
BRANCH   7  14
ATOM     11  N   UNL     1      35.279 -18.690 -21.051  0.00  0.00    -0.218 N 
ATOM     12  N   UNL     1      37.290 -17.985 -21.537  0.00  0.00    -0.206 NA
ATOM     13  N   UNL     1      36.061 -19.394 -20.218  0.00  0.00    -0.157 NA
ATOM     14  C   UNL     1      36.017 -17.855 -21.832  0.00  0.00    +0.149 C 
ATOM     15  C   UNL     1      37.268 -18.931 -20.552  0.00  0.00    +0.218 C 
ATOM     16  H   UNL     1      34.298 -18.768 -21.091  0.00  0.00    +0.176 HD
ENDBRANCH   7  14
BRANCH   4  17
ATOM     17  C   UNL     1      33.059 -12.999 -22.244  0.00  0.00    +0.021 C 
ATOM     18  C   UNL     1      32.771 -11.642 -22.393  0.00  0.00    +0.016 C 
ATOM     19  C   UNL     1      32.954 -13.601 -20.992  0.00  0.00    +0.002 C 
ATOM     20  C   UNL     1      32.379 -10.888 -21.288  0.00  0.00    +0.051 C 
ATOM     21  C   UNL     1      32.562 -12.846 -19.886  0.00  0.00    +0.001 C 
ATOM     22  C   UNL     1      32.274 -11.490 -20.033  0.00  0.00    +0.015 C 
BRANCH  20  24
ATOM     23  O   UNL     1      33.004  -8.607 -19.501  0.00  0.00    -0.266 OA
ATOM     24  N   UNL     1      32.090  -9.530 -21.435  0.00  0.00    -0.278 N 
ATOM     25  C   UNL     1      32.402  -8.467 -20.564  0.00  0.00    +0.284 C 
ATOM     26  H   UNL     1      31.605  -9.284 -22.255  0.00  0.00    +0.155 HD
BRANCH  25  28
ATOM     27  O   UNL     1      31.392  -7.034 -22.240  0.00  0.00    -0.446 OA
ATOM     28  C   UNL     1      31.917  -7.145 -20.992  0.00  0.00    +0.199 C 
ATOM     29  C   UNL     1      31.886  -5.931 -20.346  0.00  0.00    +0.045 C 
ATOM     30  C   UNL     1      31.305  -5.015 -21.256  0.00  0.00    +0.044 C 
ATOM     31  C   UNL     1      31.021  -5.736 -22.393  0.00  0.00    +0.180 C 
ENDBRANCH  25  28
ENDBRANCH  20  24
ENDBRANCH   4  17
TORSDOF 4
ENDMDL
