MODEL 1
REMARK VINA RESULT:     -12.6      0.000      0.000
REMARK  Name = 58212050
REMARK  2 active torsions:
REMARK  status: ('A' for Active; 'I' for Inactive)
REMARK    1  A    between atoms: C_2  and  C_13
REMARK    2  A    between atoms: C_10  and  C_26
REMARK                            x       y       z     vdW  Elec       q    Type
REMARK                         _______ _______ _______ _____ _____    ______ ____
ROOT
ATOM      1  N   UNL     1      37.099 -22.758 -16.682  0.00  0.00    +0.389 N 
ATOM      2  C   UNL     1      34.648 -22.942 -16.982  0.00  0.00    +0.023 C 
ATOM      3  C   UNL     1      35.817 -22.844 -15.973  0.00  0.00    -0.068 C 
ATOM      4  C   UNL     1      34.778 -21.953 -18.135  0.00  0.00    -0.026 C 
ATOM      5  C   UNL     1      35.998 -21.285 -18.355  0.00  0.00    -0.047 C 
ATOM      6  C   UNL     1      37.170 -21.488 -17.422  0.00  0.00    -0.050 C 
ATOM      7  C   UNL     1      33.724 -21.757 -19.042  0.00  0.00    -0.004 C 
ATOM      8  C   UNL     1      36.117 -20.386 -19.425  0.00  0.00    -0.005 C 
ATOM      9  C   UNL     1      38.218 -22.863 -15.745  0.00  0.00    -0.100 C 
ATOM     10  C   UNL     1      35.051 -20.180 -20.299  0.00  0.00    +0.019 C 
ATOM     11  C   UNL     1      33.858 -20.870 -20.111  0.00  0.00    +0.001 C 
ATOM     12  H   UNL     1      37.164 -23.534 -17.341  0.00  0.00    -0.079 HD
ENDROOT
BRANCH   2  13
ATOM     13  C   UNL     1      33.326 -22.856 -16.229  0.00  0.00    -0.020 C 
ATOM     14  C   UNL     1      32.126 -22.780 -16.935  0.00  0.00    -0.004 C 
ATOM     15  C   UNL     1      33.318 -22.854 -14.838  0.00  0.00    -0.004 C 
ATOM     16  C   UNL     1      30.899 -22.699 -16.256  0.00  0.00    -0.000 C 
ATOM     17  C   UNL     1      30.891 -22.697 -14.841  0.00  0.00    -0.000 C 
ATOM     18  C   UNL     1      32.108 -22.775 -14.147  0.00  0.00    -0.000 C 
ATOM     19  C   UNL     1      29.681 -22.621 -16.952  0.00  0.00    -0.000 C 
ATOM     20  C   UNL     1      29.664 -22.616 -14.162  0.00  0.00    -0.000 C 
ATOM     21  C   UNL     1      28.471 -22.542 -16.261  0.00  0.00    -0.000 C 
ATOM     22  C   UNL     1      28.463 -22.539 -14.869  0.00  0.00    -0.000 C 
ENDBRANCH   2  13
BRANCH  10  26
ATOM     23  N   UNL     1      35.574 -18.006 -21.068  0.00  0.00    -0.147 NA
ATOM     24  N   UNL     1      35.727 -17.074 -22.047  0.00  0.00    -0.133 NA
ATOM     25  N   UNL     1      35.647 -16.455 -24.349  0.00  0.00    -0.341 N 
ATOM     26  C   UNL     1      35.188 -19.256 -21.403  0.00  0.00    +0.103 C 
ATOM     27  C   UNL     1      34.937 -19.641 -22.705  0.00  0.00    +0.024 C 
ATOM     28  C   UNL     1      35.093 -18.693 -23.701  0.00  0.00    +0.037 C 
ATOM     29  C   UNL     1      35.488 -17.424 -23.330  0.00  0.00    +0.147 C 
ATOM     30  H   UNL     1      35.928 -15.540 -24.118  0.00  0.00    +0.144 HD
ATOM     31  H   UNL     1      35.475 -16.696 -25.287  0.00  0.00    +0.144 HD
ENDBRANCH  10  26
TORSDOF 2
ENDMDL
MODEL 2
REMARK VINA RESULT:     -11.5      8.225     13.721
REMARK  Name = 58212050
REMARK  2 active torsions:
REMARK  status: ('A' for Active; 'I' for Inactive)
REMARK    1  A    between atoms: C_2  and  C_13
REMARK    2  A    between atoms: C_10  and  C_26
REMARK                            x       y       z     vdW  Elec       q    Type
REMARK                         _______ _______ _______ _____ _____    ______ ____
ROOT
ATOM      1  N   UNL     1      31.390 -10.344 -20.397  0.00  0.00    +0.389 N 
ATOM      2  C   UNL     1      32.278  -9.599 -22.585  0.00  0.00    +0.023 C 
ATOM      3  C   UNL     1      32.008  -9.220 -21.109  0.00  0.00    -0.068 C 
ATOM      4  C   UNL     1      32.896 -10.984 -22.736  0.00  0.00    -0.026 C 
ATOM      5  C   UNL     1      32.899 -11.875 -21.646  0.00  0.00    -0.047 C 
ATOM      6  C   UNL     1      32.350 -11.456 -20.302  0.00  0.00    -0.050 C 
ATOM      7  C   UNL     1      33.390 -11.425 -23.975  0.00  0.00    -0.004 C 
ATOM      8  C   UNL     1      33.456 -13.154 -21.794  0.00  0.00    -0.005 C 
ATOM      9  C   UNL     1      30.952  -9.935 -19.063  0.00  0.00    -0.100 C 
ATOM     10  C   UNL     1      33.970 -13.565 -23.022  0.00  0.00    +0.019 C 
ATOM     11  C   UNL     1      33.931 -12.703 -24.114  0.00  0.00    +0.001 C 
ATOM     12  H   UNL     1      30.570 -10.654 -20.919  0.00  0.00    -0.079 HD
ENDROOT
BRANCH   2  13
ATOM     13  C   UNL     1      33.072  -8.482 -23.253  0.00  0.00    -0.020 C 
ATOM     14  C   UNL     1      32.415  -7.344 -23.720  0.00  0.00    -0.004 C 
ATOM     15  C   UNL     1      34.451  -8.599 -23.396  0.00  0.00    -0.004 C 
ATOM     16  C   UNL     1      33.131  -6.307 -24.339  0.00  0.00    -0.000 C 
ATOM     17  C   UNL     1      34.533  -6.426 -24.486  0.00  0.00    -0.000 C 
ATOM     18  C   UNL     1      35.178  -7.578 -24.009  0.00  0.00    -0.000 C 
ATOM     19  C   UNL     1      32.485  -5.154 -24.816  0.00  0.00    -0.000 C 
ATOM     20  C   UNL     1      35.250  -5.389 -25.105  0.00  0.00    -0.000 C 
ATOM     21  C   UNL     1      33.212  -4.133 -25.429  0.00  0.00    -0.000 C 
ATOM     22  C   UNL     1      34.592  -4.250 -25.573  0.00  0.00    -0.000 C 
ENDBRANCH   2  13
BRANCH  10  26
ATOM     23  N   UNL     1      35.026 -15.434 -22.030  0.00  0.00    -0.147 NA
ATOM     24  N   UNL     1      35.577 -16.677 -22.077  0.00  0.00    -0.133 NA
ATOM     25  N   UNL     1      36.191 -18.627 -23.304  0.00  0.00    -0.341 N 
ATOM     26  C   UNL     1      34.536 -14.889 -23.164  0.00  0.00    +0.103 C 
ATOM     27  C   UNL     1      34.566 -15.537 -24.383  0.00  0.00    +0.024 C 
ATOM     28  C   UNL     1      35.126 -16.801 -24.430  0.00  0.00    +0.037 C 
ATOM     29  C   UNL     1      35.619 -17.334 -23.256  0.00  0.00    +0.147 C 
ATOM     30  H   UNL     1      36.552 -19.036 -22.485  0.00  0.00    +0.144 HD
ATOM     31  H   UNL     1      36.229 -19.116 -24.158  0.00  0.00    +0.144 HD
ENDBRANCH  10  26
TORSDOF 2
ENDMDL
MODEL 3
REMARK VINA RESULT:     -11.2      8.462     14.017
REMARK  Name = 58212050
REMARK  2 active torsions:
REMARK  status: ('A' for Active; 'I' for Inactive)
REMARK    1  A    between atoms: C_2  and  C_13
REMARK    2  A    between atoms: C_10  and  C_26
REMARK                            x       y       z     vdW  Elec       q    Type
REMARK                         _______ _______ _______ _____ _____    ______ ____
ROOT
ATOM      1  N   UNL     1      31.545 -10.103 -20.436  0.00  0.00    +0.389 N 
ATOM      2  C   UNL     1      32.283  -9.262 -22.645  0.00  0.00    +0.023 C 
ATOM      3  C   UNL     1      32.165  -8.968 -21.130  0.00  0.00    -0.068 C 
ATOM      4  C   UNL     1      32.802 -10.664 -22.937  0.00  0.00    -0.026 C 
ATOM      5  C   UNL     1      32.846 -11.626 -21.908  0.00  0.00    -0.047 C 
ATOM      6  C   UNL     1      32.443 -11.268 -20.497  0.00  0.00    -0.050 C 
ATOM      7  C   UNL     1      33.160 -11.048 -24.240  0.00  0.00    -0.004 C 
ATOM      8  C   UNL     1      33.312 -12.920 -22.184  0.00  0.00    -0.005 C 
ATOM      9  C   UNL     1      31.250  -9.761 -19.045  0.00  0.00    -0.100 C 
ATOM     10  C   UNL     1      33.692 -13.275 -23.477  0.00  0.00    +0.019 C 
ATOM     11  C   UNL     1      33.609 -12.341 -24.506  0.00  0.00    +0.001 C 
ATOM     12  H   UNL     1      30.666 -10.332 -20.899  0.00  0.00    -0.079 HD
ENDROOT
BRANCH   2  13
ATOM     13  C   UNL     1      33.080  -8.147 -23.311  0.00  0.00    -0.020 C 
ATOM     14  C   UNL     1      32.415  -7.086 -23.927  0.00  0.00    -0.004 C 
ATOM     15  C   UNL     1      34.471  -8.189 -23.306  0.00  0.00    -0.004 C 
ATOM     16  C   UNL     1      33.135  -6.052 -24.546  0.00  0.00    -0.000 C 
ATOM     17  C   UNL     1      34.549  -6.095 -24.542  0.00  0.00    -0.000 C 
ATOM     18  C   UNL     1      35.202  -7.169 -23.918  0.00  0.00    -0.000 C 
ATOM     19  C   UNL     1      32.481  -4.977 -25.171  0.00  0.00    -0.000 C 
ATOM     20  C   UNL     1      35.269  -5.060 -25.162  0.00  0.00    -0.000 C 
ATOM     21  C   UNL     1      33.212  -3.958 -25.782  0.00  0.00    -0.000 C 
ATOM     22  C   UNL     1      34.604  -4.000 -25.778  0.00  0.00    -0.000 C 
ENDBRANCH   2  13
BRANCH  10  26
ATOM     23  N   UNL     1      33.627 -15.207 -24.840  0.00  0.00    -0.147 NA
ATOM     24  N   UNL     1      34.017 -16.468 -25.169  0.00  0.00    -0.133 NA
ATOM     25  N   UNL     1      35.338 -18.406 -24.740  0.00  0.00    -0.341 N 
ATOM     26  C   UNL     1      34.164 -14.615 -23.752  0.00  0.00    +0.103 C 
ATOM     27  C   UNL     1      35.100 -15.232 -22.946  0.00  0.00    +0.024 C 
ATOM     28  C   UNL     1      35.497 -16.514 -23.281  0.00  0.00    +0.037 C 
ATOM     29  C   UNL     1      34.932 -17.095 -24.398  0.00  0.00    +0.147 C 
ATOM     30  H   UNL     1      34.954 -18.850 -25.531  0.00  0.00    +0.144 HD
ATOM     31  H   UNL     1      36.003 -18.875 -24.186  0.00  0.00    +0.144 HD
ENDBRANCH  10  26
TORSDOF 2
ENDMDL
MODEL 4
REMARK VINA RESULT:     -11.1      2.305      5.774
REMARK  Name = 58212050
REMARK  2 active torsions:
REMARK  status: ('A' for Active; 'I' for Inactive)
REMARK    1  A    between atoms: C_2  and  C_13
REMARK    2  A    between atoms: C_10  and  C_26
REMARK                            x       y       z     vdW  Elec       q    Type
REMARK                         _______ _______ _______ _____ _____    ______ ____
ROOT
ATOM      1  N   UNL     1      32.569 -23.127 -15.808  0.00  0.00    +0.389 N 
ATOM      2  C   UNL     1      35.022 -23.292 -15.517  0.00  0.00    +0.023 C 
ATOM      3  C   UNL     1      33.663 -24.026 -15.421  0.00  0.00    -0.068 C 
ATOM      4  C   UNL     1      35.166 -22.479 -16.797  0.00  0.00    -0.026 C 
ATOM      5  C   UNL     1      34.036 -22.221 -17.597  0.00  0.00    -0.047 C 
ATOM      6  C   UNL     1      32.685 -22.794 -17.236  0.00  0.00    -0.050 C 
ATOM      7  C   UNL     1      36.397 -21.903 -17.155  0.00  0.00    -0.004 C 
ATOM      8  C   UNL     1      34.171 -21.460 -18.768  0.00  0.00    -0.005 C 
ATOM      9  C   UNL     1      31.271 -23.744 -15.534  0.00  0.00    -0.100 C 
ATOM     10  C   UNL     1      35.406 -20.921 -19.125  0.00  0.00    +0.019 C 
ATOM     11  C   UNL     1      36.517 -21.137 -18.315  0.00  0.00    +0.001 C 
ATOM     12  H   UNL     1      32.635 -22.271 -15.257  0.00  0.00    -0.079 HD
ENDROOT
BRANCH   2  13
ATOM     13  C   UNL     1      36.149 -24.290 -15.278  0.00  0.00    -0.020 C 
ATOM     14  C   UNL     1      37.458 -23.837 -15.115  0.00  0.00    -0.004 C 
ATOM     15  C   UNL     1      35.871 -25.652 -15.223  0.00  0.00    -0.004 C 
ATOM     16  C   UNL     1      38.508 -24.743 -14.895  0.00  0.00    -0.000 C 
ATOM     17  C   UNL     1      38.226 -26.129 -14.840  0.00  0.00    -0.000 C 
ATOM     18  C   UNL     1      36.902 -26.567 -15.006  0.00  0.00    -0.000 C 
ATOM     19  C   UNL     1      39.832 -24.304 -14.730  0.00  0.00    -0.000 C 
ATOM     20  C   UNL     1      39.276 -27.035 -14.621  0.00  0.00    -0.000 C 
ATOM     21  C   UNL     1      40.863 -25.219 -14.513  0.00  0.00    -0.000 C 
ATOM     22  C   UNL     1      40.586 -26.582 -14.458  0.00  0.00    -0.000 C 
ENDBRANCH   2  13
BRANCH  10  26
ATOM     23  N   UNL     1      36.726 -19.528 -20.506  0.00  0.00    -0.147 NA
ATOM     24  N   UNL     1      36.927 -18.767 -21.615  0.00  0.00    -0.133 NA
ATOM     25  N   UNL     1      36.136 -17.844 -23.667  0.00  0.00    -0.341 N 
ATOM     26  C   UNL     1      35.531 -20.133 -20.331  0.00  0.00    +0.103 C 
ATOM     27  C   UNL     1      34.492 -20.016 -21.232  0.00  0.00    +0.024 C 
ATOM     28  C   UNL     1      34.696 -19.242 -22.360  0.00  0.00    +0.037 C 
ATOM     29  C   UNL     1      35.927 -18.636 -22.513  0.00  0.00    +0.147 C 
ATOM     30  H   UNL     1      37.002 -17.398 -23.807  0.00  0.00    +0.144 HD
ATOM     31  H   UNL     1      35.415 -17.740 -24.329  0.00  0.00    +0.144 HD
ENDBRANCH  10  26
TORSDOF 2
ENDMDL
MODEL 5
REMARK VINA RESULT:     -11.0      2.894      6.479
REMARK  Name = 58212050
REMARK  2 active torsions:
REMARK  status: ('A' for Active; 'I' for Inactive)
REMARK    1  A    between atoms: C_2  and  C_13
REMARK    2  A    between atoms: C_10  and  C_26
REMARK                            x       y       z     vdW  Elec       q    Type
REMARK                         _______ _______ _______ _____ _____    ______ ____
ROOT
ATOM      1  N   UNL     1      33.554 -24.083 -14.098  0.00  0.00    +0.389 N 
ATOM      2  C   UNL     1      36.008 -23.809 -14.268  0.00  0.00    +0.023 C 
ATOM      3  C   UNL     1      34.842 -24.754 -13.891  0.00  0.00    -0.068 C 
ATOM      4  C   UNL     1      35.774 -23.074 -15.582  0.00  0.00    -0.026 C 
ATOM      5  C   UNL     1      34.492 -23.068 -16.164  0.00  0.00    -0.047 C 
ATOM      6  C   UNL     1      33.352 -23.835 -15.535  0.00  0.00    -0.050 C 
ATOM      7  C   UNL     1      36.798 -22.325 -16.185  0.00  0.00    -0.004 C 
ATOM      8  C   UNL     1      34.277 -22.379 -17.367  0.00  0.00    -0.005 C 
ATOM      9  C   UNL     1      32.457 -24.890 -13.563  0.00  0.00    -0.100 C 
ATOM     10  C   UNL     1      35.311 -21.665 -17.969  0.00  0.00    +0.019 C 
ATOM     11  C   UNL     1      36.569 -21.633 -17.375  0.00  0.00    +0.001 C 
ATOM     12  H   UNL     1      33.562 -23.191 -13.602  0.00  0.00    -0.079 HD
ENDROOT
BRANCH   2  13
ATOM     13  C   UNL     1      37.320 -24.583 -14.208  0.00  0.00    -0.020 C 
ATOM     14  C   UNL     1      37.563 -25.615 -15.114  0.00  0.00    -0.004 C 
ATOM     15  C   UNL     1      38.274 -24.260 -13.248  0.00  0.00    -0.004 C 
ATOM     16  C   UNL     1      38.766 -26.338 -15.072  0.00  0.00    -0.000 C 
ATOM     17  C   UNL     1      39.736 -26.010 -14.095  0.00  0.00    -0.000 C 
ATOM     18  C   UNL     1      39.475 -24.968 -13.191  0.00  0.00    -0.000 C 
ATOM     19  C   UNL     1      39.026 -27.380 -15.977  0.00  0.00    -0.000 C 
ATOM     20  C   UNL     1      40.939 -26.733 -14.052  0.00  0.00    -0.000 C 
ATOM     21  C   UNL     1      40.227 -28.088 -15.920  0.00  0.00    -0.000 C 
ATOM     22  C   UNL     1      41.181 -27.766 -14.959  0.00  0.00    -0.000 C 
ENDBRANCH   2  13
BRANCH  10  26
ATOM     23  N   UNL     1      36.178 -20.450 -19.804  0.00  0.00    -0.147 NA
ATOM     24  N   UNL     1      36.045 -19.766 -20.971  0.00  0.00    -0.133 NA
ATOM     25  N   UNL     1      34.675 -18.895 -22.718  0.00  0.00    -0.341 N 
ATOM     26  C   UNL     1      35.076 -20.953 -19.206  0.00  0.00    +0.103 C 
ATOM     27  C   UNL     1      33.806 -20.805 -19.727  0.00  0.00    +0.024 C 
ATOM     28  C   UNL     1      33.671 -20.109 -20.915  0.00  0.00    +0.037 C 
ATOM     29  C   UNL     1      34.814 -19.607 -21.503  0.00  0.00    +0.147 C 
ATOM     30  H   UNL     1      35.470 -18.523 -23.164  0.00  0.00    +0.144 HD
ATOM     31  H   UNL     1      33.783 -18.771 -23.116  0.00  0.00    +0.144 HD
ENDBRANCH  10  26
TORSDOF 2
ENDMDL
MODEL 6
REMARK VINA RESULT:     -10.4     12.356     16.664
REMARK  Name = 58212050
REMARK  2 active torsions:
REMARK  status: ('A' for Active; 'I' for Inactive)
REMARK    1  A    between atoms: C_2  and  C_13
REMARK    2  A    between atoms: C_10  and  C_26
REMARK                            x       y       z     vdW  Elec       q    Type
REMARK                         _______ _______ _______ _____ _____    ______ ____
ROOT
ATOM      1  N   UNL     1      31.541  -3.127 -22.437  0.00  0.00    +0.389 N 
ATOM      2  C   UNL     1      32.545  -5.372 -22.146  0.00  0.00    +0.023 C 
ATOM      3  C   UNL     1      31.253  -4.522 -22.083  0.00  0.00    -0.068 C 
ATOM      4  C   UNL     1      33.375  -5.094 -23.394  0.00  0.00    -0.026 C 
ATOM      5  C   UNL     1      33.096  -3.964 -24.186  0.00  0.00    -0.047 C 
ATOM      6  C   UNL     1      31.940  -3.050 -23.852  0.00  0.00    -0.050 C 
ATOM      7  C   UNL     1      34.476  -5.901 -23.726  0.00  0.00    -0.004 C 
ATOM      8  C   UNL     1      33.871  -3.705 -25.327  0.00  0.00    -0.005 C 
ATOM      9  C   UNL     1      30.375  -2.279 -22.192  0.00  0.00    -0.100 C 
ATOM     10  C   UNL     1      34.942  -4.533 -25.659  0.00  0.00    +0.019 C 
ATOM     11  C   UNL     1      35.248  -5.627 -24.854  0.00  0.00    +0.001 C 
ATOM     12  H   UNL     1      32.306  -2.790 -21.853  0.00  0.00    -0.079 HD
ENDROOT
BRANCH   2  13
ATOM     13  C   UNL     1      32.190  -6.840 -21.943  0.00  0.00    -0.020 C 
ATOM     14  C   UNL     1      32.440  -7.454 -20.715  0.00  0.00    -0.004 C 
ATOM     15  C   UNL     1      31.619  -7.567 -22.982  0.00  0.00    -0.004 C 
ATOM     16  C   UNL     1      32.120  -8.806 -20.512  0.00  0.00    -0.000 C 
ATOM     17  C   UNL     1      31.539  -9.546 -21.569  0.00  0.00    -0.000 C 
ATOM     18  C   UNL     1      31.295  -8.912 -22.798  0.00  0.00    -0.000 C 
ATOM     19  C   UNL     1      32.365  -9.439 -19.283  0.00  0.00    -0.000 C 
ATOM     20  C   UNL     1      31.220 -10.898 -21.366  0.00  0.00    -0.000 C 
ATOM     21  C   UNL     1      32.041 -10.784 -19.098  0.00  0.00    -0.000 C 
ATOM     22  C   UNL     1      31.470 -11.512 -20.138  0.00  0.00    -0.000 C 
ENDBRANCH   2  13
BRANCH  10  26
ATOM     23  N   UNL     1      37.074  -4.228 -26.635  0.00  0.00    -0.147 NA
ATOM     24  N   UNL     1      37.895  -3.970 -27.688  0.00  0.00    -0.133 NA
ATOM     25  N   UNL     1      38.208  -3.479 -30.000  0.00  0.00    -0.341 N 
ATOM     26  C   UNL     1      35.738  -4.252 -26.833  0.00  0.00    +0.103 C 
ATOM     27  C   UNL     1      35.158  -4.026 -28.065  0.00  0.00    +0.024 C 
ATOM     28  C   UNL     1      35.993  -3.765 -29.136  0.00  0.00    +0.037 C 
ATOM     29  C   UNL     1      37.354  -3.746 -28.905  0.00  0.00    +0.147 C 
ATOM     30  H   UNL     1      39.184  -3.458 -29.870  0.00  0.00    +0.144 HD
ATOM     31  H   UNL     1      37.827  -3.312 -30.892  0.00  0.00    +0.144 HD
ENDBRANCH  10  26
TORSDOF 2
ENDMDL
MODEL 7
REMARK VINA RESULT:     -10.3      3.622      8.734
REMARK  Name = 58212050
REMARK  2 active torsions:
REMARK  status: ('A' for Active; 'I' for Inactive)
REMARK    1  A    between atoms: C_2  and  C_13
REMARK    2  A    between atoms: C_10  and  C_26
REMARK                            x       y       z     vdW  Elec       q    Type
REMARK                         _______ _______ _______ _____ _____    ______ ____
ROOT
ATOM      1  N   UNL     1      30.531 -22.952 -16.574  0.00  0.00    +0.389 N 
ATOM      2  C   UNL     1      32.642 -22.612 -17.822  0.00  0.00    +0.023 C 
ATOM      3  C   UNL     1      31.181 -22.145 -17.613  0.00  0.00    -0.068 C 
ATOM      4  C   UNL     1      33.382 -22.843 -16.511  0.00  0.00    -0.026 C 
ATOM      5  C   UNL     1      32.665 -22.909 -15.301  0.00  0.00    -0.047 C 
ATOM      6  C   UNL     1      31.170 -22.691 -15.274  0.00  0.00    -0.050 C 
ATOM      7  C   UNL     1      34.767 -23.079 -16.493  0.00  0.00    -0.004 C 
ATOM      8  C   UNL     1      33.349 -23.135 -14.097  0.00  0.00    -0.005 C 
ATOM      9  C   UNL     1      29.100 -22.654 -16.506  0.00  0.00    -0.100 C 
ATOM     10  C   UNL     1      34.728 -23.338 -14.094  0.00  0.00    +0.019 C 
ATOM     11  C   UNL     1      35.435 -23.316 -15.292  0.00  0.00    +0.001 C 
ATOM     12  H   UNL     1      30.638 -23.939 -16.808  0.00  0.00    -0.079 HD
ENDROOT
BRANCH   2  13
ATOM     13  C   UNL     1      33.343 -21.653 -18.778  0.00  0.00    -0.020 C 
ATOM     14  C   UNL     1      34.735 -21.564 -18.779  0.00  0.00    -0.004 C 
ATOM     15  C   UNL     1      32.593 -20.866 -19.647  0.00  0.00    -0.004 C 
ATOM     16  C   UNL     1      35.396 -20.685 -19.652  0.00  0.00    -0.000 C 
ATOM     17  C   UNL     1      34.634 -19.885 -20.536  0.00  0.00    -0.000 C 
ATOM     18  C   UNL     1      33.234 -19.987 -20.521  0.00  0.00    -0.000 C 
ATOM     19  C   UNL     1      36.797 -20.583 -19.666  0.00  0.00    -0.000 C 
ATOM     20  C   UNL     1      35.295 -19.005 -21.408  0.00  0.00    -0.000 C 
ATOM     21  C   UNL     1      37.437 -19.704 -20.540  0.00  0.00    -0.000 C 
ATOM     22  C   UNL     1      36.688 -18.916 -21.409  0.00  0.00    -0.000 C 
ENDBRANCH   2  13
BRANCH  10  26
ATOM     23  N   UNL     1      34.735 -24.291 -11.929  0.00  0.00    -0.147 NA
ATOM     24  N   UNL     1      35.316 -24.560 -10.729  0.00  0.00    -0.133 NA
ATOM     25  N   UNL     1      37.169 -24.389  -9.239  0.00  0.00    -0.341 N 
ATOM     26  C   UNL     1      35.422 -23.577 -12.847  0.00  0.00    +0.103 C 
ATOM     27  C   UNL     1      36.700 -23.103 -12.627  0.00  0.00    +0.024 C 
ATOM     28  C   UNL     1      37.290 -23.377 -11.406  0.00  0.00    +0.037 C 
ATOM     29  C   UNL     1      36.565 -24.108 -10.487  0.00  0.00    +0.147 C 
ATOM     30  H   UNL     1      36.679 -24.908  -8.561  0.00  0.00    +0.144 HD
ATOM     31  H   UNL     1      38.079 -24.064  -9.049  0.00  0.00    +0.144 HD
ENDBRANCH  10  26
TORSDOF 2
ENDMDL
MODEL 8
REMARK VINA RESULT:     -10.0     12.037     17.975
REMARK  Name = 58212050
REMARK  2 active torsions:
REMARK  status: ('A' for Active; 'I' for Inactive)
REMARK    1  A    between atoms: C_2  and  C_13
REMARK    2  A    between atoms: C_10  and  C_26
REMARK                            x       y       z     vdW  Elec       q    Type
REMARK                         _______ _______ _______ _____ _____    ______ ____
ROOT
ATOM      1  N   UNL     1      31.023  -3.769 -22.655  0.00  0.00    +0.389 N 
ATOM      2  C   UNL     1      32.118  -4.795 -24.624  0.00  0.00    +0.023 C 
ATOM      3  C   UNL     1      32.027  -3.554 -23.703  0.00  0.00    -0.068 C 
ATOM      4  C   UNL     1      32.145  -6.106 -23.848  0.00  0.00    -0.026 C 
ATOM      5  C   UNL     1      31.806  -6.121 -22.482  0.00  0.00    -0.047 C 
ATOM      6  C   UNL     1      31.474  -4.840 -21.752  0.00  0.00    -0.050 C 
ATOM      7  C   UNL     1      32.419  -7.324 -24.493  0.00  0.00    -0.004 C 
ATOM      8  C   UNL     1      31.818  -7.333 -21.775  0.00  0.00    -0.005 C 
ATOM      9  C   UNL     1      30.789  -2.536 -21.902  0.00  0.00    -0.100 C 
ATOM     10  C   UNL     1      32.123  -8.528 -22.423  0.00  0.00    +0.019 C 
ATOM     11  C   UNL     1      32.416  -8.524 -23.783  0.00  0.00    +0.001 C 
ATOM     12  H   UNL     1      30.144  -4.045 -23.091  0.00  0.00    -0.079 HD
ENDROOT
BRANCH   2  13
ATOM     13  C   UNL     1      33.280  -4.616 -25.594  0.00  0.00    -0.020 C 
ATOM     14  C   UNL     1      33.054  -4.077 -26.860  0.00  0.00    -0.004 C 
ATOM     15  C   UNL     1      34.565  -4.991 -25.215  0.00  0.00    -0.004 C 
ATOM     16  C   UNL     1      34.114  -3.907 -27.766  0.00  0.00    -0.000 C 
ATOM     17  C   UNL     1      35.421  -4.289 -27.381  0.00  0.00    -0.000 C 
ATOM     18  C   UNL     1      35.630  -4.830 -26.102  0.00  0.00    -0.000 C 
ATOM     19  C   UNL     1      33.904  -3.367 -29.045  0.00  0.00    -0.000 C 
ATOM     20  C   UNL     1      36.481  -4.120 -28.287  0.00  0.00    -0.000 C 
ATOM     21  C   UNL     1      34.969  -3.205 -29.933  0.00  0.00    -0.000 C 
ATOM     22  C   UNL     1      36.255  -3.581 -29.554  0.00  0.00    -0.000 C 
ENDBRANCH   2  13
BRANCH  10  26
ATOM     23  N   UNL     1      32.394 -10.878 -22.414  0.00  0.00    -0.147 NA
ATOM     24  N   UNL     1      32.417 -12.089 -21.796  0.00  0.00    -0.133 NA
ATOM     25  N   UNL     1      32.194 -13.416 -19.827  0.00  0.00    -0.341 N 
ATOM     26  C   UNL     1      32.126  -9.773 -21.685  0.00  0.00    +0.103 C 
ATOM     27  C   UNL     1      31.871  -9.811 -20.329  0.00  0.00    +0.024 C 
ATOM     28  C   UNL     1      31.894 -11.043 -19.701  0.00  0.00    +0.037 C 
ATOM     29  C   UNL     1      32.171 -12.156 -20.470  0.00  0.00    +0.147 C 
ATOM     30  H   UNL     1      32.388 -14.229 -20.346  0.00  0.00    +0.144 HD
ATOM     31  H   UNL     1      32.016 -13.479 -18.861  0.00  0.00    +0.144 HD
ENDBRANCH  10  26
TORSDOF 2
ENDMDL
MODEL 9
REMARK VINA RESULT:      -9.8     11.422     15.941
REMARK  Name = 58212050
REMARK  2 active torsions:
REMARK  status: ('A' for Active; 'I' for Inactive)
REMARK    1  A    between atoms: C_2  and  C_13
REMARK    2  A    between atoms: C_10  and  C_26
REMARK                            x       y       z     vdW  Elec       q    Type
REMARK                         _______ _______ _______ _____ _____    ______ ____
ROOT
ATOM      1  N   UNL     1      31.710  -4.923 -21.575  0.00  0.00    +0.389 N 
ATOM      2  C   UNL     1      33.054  -6.967 -21.951  0.00  0.00    +0.023 C 
ATOM      3  C   UNL     1      31.676  -6.390 -21.547  0.00  0.00    -0.068 C 
ATOM      4  C   UNL     1      33.651  -6.276 -23.171  0.00  0.00    -0.026 C 
ATOM      5  C   UNL     1      33.105  -5.061 -23.627  0.00  0.00    -0.047 C 
ATOM      6  C   UNL     1      31.890  -4.459 -22.960  0.00  0.00    -0.050 C 
ATOM      7  C   UNL     1      34.798  -6.785 -23.803  0.00  0.00    -0.004 C 
ATOM      8  C   UNL     1      33.666  -4.420 -24.742  0.00  0.00    -0.005 C 
ATOM      9  C   UNL     1      30.481  -4.366 -21.008  0.00  0.00    -0.100 C 
ATOM     10  C   UNL     1      34.786  -4.955 -25.377  0.00  0.00    +0.019 C 
ATOM     11  C   UNL     1      35.355  -6.133 -24.903  0.00  0.00    +0.001 C 
ATOM     12  H   UNL     1      32.494  -4.600 -21.008  0.00  0.00    -0.079 HD
ENDROOT
BRANCH   2  13
ATOM     13  C   UNL     1      32.945  -8.482 -22.080  0.00  0.00    -0.020 C 
ATOM     14  C   UNL     1      33.593  -9.141 -23.125  0.00  0.00    -0.004 C 
ATOM     15  C   UNL     1      32.197  -9.206 -21.157  0.00  0.00    -0.004 C 
ATOM     16  C   UNL     1      33.501 -10.536 -23.258  0.00  0.00    -0.000 C 
ATOM     17  C   UNL     1      32.741 -11.272 -22.320  0.00  0.00    -0.000 C 
ATOM     18  C   UNL     1      32.095 -10.593 -21.275  0.00  0.00    -0.000 C 
ATOM     19  C   UNL     1      34.148 -11.215 -24.304  0.00  0.00    -0.000 C 
ATOM     20  C   UNL     1      32.648 -12.668 -22.454  0.00  0.00    -0.000 C 
ATOM     21  C   UNL     1      34.045 -12.602 -24.422  0.00  0.00    -0.000 C 
ATOM     22  C   UNL     1      33.297 -13.327 -23.499  0.00  0.00    -0.000 C 
ENDBRANCH   2  13
BRANCH  10  26
ATOM     23  N   UNL     1      34.994  -2.992 -26.679  0.00  0.00    -0.147 NA
ATOM     24  N   UNL     1      35.489  -2.286 -27.731  0.00  0.00    -0.133 NA
ATOM     25  N   UNL     1      36.849  -2.161 -29.686  0.00  0.00    -0.341 N 
ATOM     26  C   UNL     1      35.360  -4.282 -26.522  0.00  0.00    +0.103 C 
ATOM     27  C   UNL     1      36.221  -4.929 -27.385  0.00  0.00    +0.024 C 
ATOM     28  C   UNL     1      36.725  -4.211 -28.455  0.00  0.00    +0.037 C 
ATOM     29  C   UNL     1      36.334  -2.895 -28.591  0.00  0.00    +0.147 C 
ATOM     30  H   UNL     1      36.590  -1.219 -29.812  0.00  0.00    +0.144 HD
ATOM     31  H   UNL     1      37.465  -2.592 -30.321  0.00  0.00    +0.144 HD
ENDBRANCH  10  26
TORSDOF 2
ENDMDL
