MODEL 1
REMARK VINA RESULT:     -13.1      0.000      0.000
REMARK  Name = 5291
REMARK  6 active torsions:
REMARK  status: ('A' for Active; 'I' for Inactive)
REMARK    1  A    between atoms: C_1  and  N_23
REMARK    2  A    between atoms: C_2  and  N_8
REMARK    3  A    between atoms: C_12  and  C_17
REMARK    4  A    between atoms: C_24  and  C_31
REMARK    5  A    between atoms: C_26  and  C_32
REMARK    6  A    between atoms: C_32  and  N_33
REMARK                            x       y       z     vdW  Elec       q    Type
REMARK                         _______ _______ _______ _____ _____    ______ ____
ROOT
ATOM      1  C   UNL     1      32.991 -22.703 -16.320  0.00  0.00    +0.052 C 
ATOM      2  C   UNL     1      33.009 -23.482 -14.053  0.00  0.00    +0.055 C 
ATOM      3  C   UNL     1      33.597 -22.740 -15.076  0.00  0.00    +0.030 C 
ATOM      4  C   UNL     1      31.822 -24.177 -14.290  0.00  0.00    -0.008 C 
ATOM      5  C   UNL     1      31.814 -23.386 -16.572  0.00  0.00    +0.014 C 
ATOM      6  C   UNL     1      31.226 -24.130 -15.549  0.00  0.00    -0.002 C 
ATOM      7  C   UNL     1      31.171 -24.981 -13.212  0.00  0.00    +0.032 C 
ENDROOT
BRANCH   2   8
ATOM      8  N   UNL     1      33.626 -23.519 -12.783  0.00  0.00    -0.248 N 
ATOM      9  N   UNL     1      35.632 -24.639 -13.263  0.00  0.00    -0.337 NA
ATOM     10  N   UNL     1      35.132 -23.901 -11.024  0.00  0.00    -0.170 NA
ATOM     11  C   UNL     1      34.853 -24.043 -12.336  0.00  0.00    +0.149 C 
ATOM     12  C   UNL     1      36.799 -25.131 -12.801  0.00  0.00    +0.147 C 
ATOM     13  C   UNL     1      37.198 -25.047 -11.483  0.00  0.00    +0.055 C 
ATOM     14  C   UNL     1      36.316 -24.416 -10.630  0.00  0.00    +0.114 C 
ATOM     15  H   UNL     1      33.094 -23.094 -12.072  0.00  0.00    +0.165 HD
BRANCH  12  17
ATOM     16  N   UNL     1      37.800 -26.992 -15.872  0.00  0.00    -0.242 NA
ATOM     17  C   UNL     1      37.632 -25.766 -13.794  0.00  0.00    +0.050 C 
ATOM     18  C   UNL     1      39.017 -25.783 -13.665  0.00  0.00    +0.006 C 
ATOM     19  C   UNL     1      37.078 -26.380 -14.906  0.00  0.00    +0.101 C 
ATOM     20  C   UNL     1      39.793 -26.403 -14.637  0.00  0.00    +0.021 C 
ATOM     21  C   UNL     1      39.142 -26.987 -15.712  0.00  0.00    +0.099 C 
ENDBRANCH  12  17
ENDBRANCH   2   8
BRANCH   1  23
ATOM     22  O   UNL     1      33.891 -23.542 -19.055  0.00  0.00    -0.270 OA
ATOM     23  N   UNL     1      33.588 -21.948 -17.359  0.00  0.00    -0.280 N 
ATOM     24  C   UNL     1      33.996 -22.380 -18.630  0.00  0.00    +0.249 C 
ATOM     25  H   UNL     1      33.736 -20.994 -17.164  0.00  0.00    +0.155 HD
BRANCH  24  31
ATOM     26  C   UNL     1      35.778 -19.439 -21.093  0.00  0.00    -0.043 C 
ATOM     27  C   UNL     1      36.585 -20.279 -20.338  0.00  0.00    -0.006 C 
ATOM     28  C   UNL     1      34.395 -19.550 -21.052  0.00  0.00    -0.006 C 
ATOM     29  C   UNL     1      35.997 -21.249 -19.527  0.00  0.00    +0.004 C 
ATOM     30  C   UNL     1      33.807 -20.520 -20.240  0.00  0.00    +0.004 C 
ATOM     31  C   UNL     1      34.608 -21.370 -19.478  0.00  0.00    +0.054 C 
BRANCH  26  32
ATOM     32  C   UNL     1      36.411 -18.393 -21.970  0.00  0.00    -0.050 C 
BRANCH  32  33
ATOM     33  N   UNL     1      35.411 -17.535 -22.604  0.00  0.00    +0.387 N 
ATOM     34  N   UNL     1      34.584 -15.473 -24.454  0.00  0.00    +0.383 N 
ATOM     35  C   UNL     1      35.346 -17.789 -24.048  0.00  0.00    -0.100 C 
ATOM     36  C   UNL     1      35.698 -16.119 -22.345  0.00  0.00    -0.100 C 
ATOM     37  C   UNL     1      34.298 -16.889 -24.713  0.00  0.00    -0.101 C 
ATOM     38  C   UNL     1      34.652 -15.219 -23.009  0.00  0.00    -0.101 C 
ATOM     39  C   UNL     1      33.583 -14.617 -25.086  0.00  0.00    -0.101 C 
ATOM     40  H   UNL     1      34.503 -17.759 -22.197  0.00  0.00    -0.079 HD
ATOM     41  H   UNL     1      35.492 -15.249 -24.862  0.00  0.00    -0.080 HD
ENDBRANCH  32  33
ENDBRANCH  26  32
ENDBRANCH  24  31
ENDBRANCH   1  23
TORSDOF 6
ENDMDL
MODEL 2
REMARK VINA RESULT:     -11.3      1.662      2.361
REMARK  Name = 5291
REMARK  6 active torsions:
REMARK  status: ('A' for Active; 'I' for Inactive)
REMARK    1  A    between atoms: C_1  and  N_23
REMARK    2  A    between atoms: C_2  and  N_8
REMARK    3  A    between atoms: C_12  and  C_17
REMARK    4  A    between atoms: C_24  and  C_31
REMARK    5  A    between atoms: C_26  and  C_32
REMARK    6  A    between atoms: C_32  and  N_33
REMARK                            x       y       z     vdW  Elec       q    Type
REMARK                         _______ _______ _______ _____ _____    ______ ____
ROOT
ATOM      1  C   UNL     1      34.295 -22.248 -17.459  0.00  0.00    +0.052 C 
ATOM      2  C   UNL     1      34.628 -22.867 -15.168  0.00  0.00    +0.055 C 
ATOM      3  C   UNL     1      34.958 -22.063 -16.258  0.00  0.00    +0.030 C 
ATOM      4  C   UNL     1      33.641 -23.845 -15.295  0.00  0.00    -0.008 C 
ATOM      5  C   UNL     1      33.313 -23.213 -17.603  0.00  0.00    +0.014 C 
ATOM      6  C   UNL     1      32.984 -24.018 -16.512  0.00  0.00    -0.002 C 
ATOM      7  C   UNL     1      33.269 -24.721 -14.143  0.00  0.00    +0.032 C 
ENDROOT
BRANCH   2   8
ATOM      8  N   UNL     1      35.303 -22.679 -13.941  0.00  0.00    -0.248 N 
ATOM      9  N   UNL     1      37.144 -24.113 -14.188  0.00  0.00    -0.337 NA
ATOM     10  N   UNL     1      36.847 -22.816 -12.179  0.00  0.00    -0.170 NA
ATOM     11  C   UNL     1      36.486 -23.228 -13.411  0.00  0.00    +0.149 C 
ATOM     12  C   UNL     1      38.273 -24.620 -13.650  0.00  0.00    +0.147 C 
ATOM     13  C   UNL     1      38.747 -24.278 -12.400  0.00  0.00    +0.055 C 
ATOM     14  C   UNL     1      37.986 -23.363 -11.702  0.00  0.00    +0.114 C 
ATOM     15  H   UNL     1      34.860 -22.039 -13.339  0.00  0.00    +0.165 HD
BRANCH  12  17
ATOM     16  N   UNL     1      41.006 -26.187 -15.641  0.00  0.00    -0.242 NA
ATOM     17  C   UNL     1      38.977 -25.567 -14.481  0.00  0.00    +0.050 C 
ATOM     18  C   UNL     1      38.360 -26.733 -14.923  0.00  0.00    +0.006 C 
ATOM     19  C   UNL     1      40.289 -25.343 -14.865  0.00  0.00    +0.101 C 
ATOM     20  C   UNL     1      39.064 -27.625 -15.723  0.00  0.00    +0.021 C 
ATOM     21  C   UNL     1      40.372 -27.309 -16.051  0.00  0.00    +0.099 C 
ENDBRANCH  12  17
ENDBRANCH   2   8
BRANCH   1  23
ATOM     22  O   UNL     1      36.973 -21.541 -18.608  0.00  0.00    -0.270 OA
ATOM     23  N   UNL     1      34.628 -21.430 -18.566  0.00  0.00    -0.280 N 
ATOM     24  C   UNL     1      35.900 -21.124 -19.074  0.00  0.00    +0.249 C 
ATOM     25  H   UNL     1      33.869 -21.024 -19.042  0.00  0.00    +0.155 HD
BRANCH  24  31
ATOM     26  C   UNL     1      35.979 -18.514 -22.401  0.00  0.00    -0.043 C 
ATOM     27  C   UNL     1      34.817 -19.214 -22.111  0.00  0.00    -0.006 C 
ATOM     28  C   UNL     1      37.115 -18.656 -21.617  0.00  0.00    -0.006 C 
ATOM     29  C   UNL     1      34.791 -20.074 -21.013  0.00  0.00    +0.004 C 
ATOM     30  C   UNL     1      37.089 -19.516 -20.519  0.00  0.00    +0.004 C 
ATOM     31  C   UNL     1      35.927 -20.225 -20.217  0.00  0.00    +0.054 C 
BRANCH  26  32
ATOM     32  C   UNL     1      36.008 -17.584 -23.585  0.00  0.00    -0.050 C 
BRANCH  32  33
ATOM     33  N   UNL     1      35.664 -16.213 -23.210  0.00  0.00    +0.387 N 
ATOM     34  N   UNL     1      33.805 -14.153 -22.398  0.00  0.00    +0.383 N 
ATOM     35  C   UNL     1      35.130 -16.165 -21.844  0.00  0.00    -0.100 C 
ATOM     36  C   UNL     1      34.701 -15.640 -24.158  0.00  0.00    -0.100 C 
ATOM     37  C   UNL     1      34.768 -14.728 -21.451  0.00  0.00    -0.101 C 
ATOM     38  C   UNL     1      34.338 -14.204 -23.766  0.00  0.00    -0.101 C 
ATOM     39  C   UNL     1      33.464 -12.783 -22.023  0.00  0.00    -0.101 C 
ATOM     40  H   UNL     1      36.518 -15.656 -23.242  0.00  0.00    -0.079 HD
ATOM     41  H   UNL     1      32.952 -14.710 -22.366  0.00  0.00    -0.080 HD
ENDBRANCH  32  33
ENDBRANCH  26  32
ENDBRANCH  24  31
ENDBRANCH   1  23
TORSDOF 6
ENDMDL
MODEL 3
REMARK VINA RESULT:     -10.4      2.720      5.800
REMARK  Name = 5291
REMARK  6 active torsions:
REMARK  status: ('A' for Active; 'I' for Inactive)
REMARK    1  A    between atoms: C_1  and  N_23
REMARK    2  A    between atoms: C_2  and  N_8
REMARK    3  A    between atoms: C_12  and  C_17
REMARK    4  A    between atoms: C_24  and  C_31
REMARK    5  A    between atoms: C_26  and  C_32
REMARK    6  A    between atoms: C_32  and  N_33
REMARK                            x       y       z     vdW  Elec       q    Type
REMARK                         _______ _______ _______ _____ _____    ______ ____
ROOT
ATOM      1  C   UNL     1      34.441 -20.007 -20.387  0.00  0.00    +0.052 C 
ATOM      2  C   UNL     1      33.246 -21.545 -18.988  0.00  0.00    +0.055 C 
ATOM      3  C   UNL     1      33.282 -20.354 -19.712  0.00  0.00    +0.030 C 
ATOM      4  C   UNL     1      34.369 -22.371 -18.949  0.00  0.00    -0.008 C 
ATOM      5  C   UNL     1      35.563 -20.816 -20.359  0.00  0.00    +0.014 C 
ATOM      6  C   UNL     1      35.528 -22.007 -19.633  0.00  0.00    -0.002 C 
ATOM      7  C   UNL     1      34.359 -23.652 -18.180  0.00  0.00    +0.032 C 
ENDROOT
BRANCH   2   8
ATOM      8  N   UNL     1      32.065 -21.900 -18.300  0.00  0.00    -0.248 N 
ATOM      9  N   UNL     1      32.918 -22.631 -16.239  0.00  0.00    -0.337 NA
ATOM     10  N   UNL     1      30.548 -22.645 -16.672  0.00  0.00    -0.170 NA
ATOM     11  C   UNL     1      31.833 -22.415 -17.011  0.00  0.00    +0.149 C 
ATOM     12  C   UNL     1      32.660 -23.126 -15.011  0.00  0.00    +0.147 C 
ATOM     13  C   UNL     1      31.390 -23.402 -14.547  0.00  0.00    +0.055 C 
ATOM     14  C   UNL     1      30.362 -23.139 -15.429  0.00  0.00    +0.114 C 
ATOM     15  H   UNL     1      31.244 -21.759 -18.824  0.00  0.00    +0.165 HD
BRANCH  12  17
ATOM     16  N   UNL     1      34.758 -24.223 -12.132  0.00  0.00    -0.242 NA
ATOM     17  C   UNL     1      33.822 -23.355 -14.186  0.00  0.00    +0.050 C 
ATOM     18  C   UNL     1      35.089 -22.959 -14.604  0.00  0.00    +0.006 C 
ATOM     19  C   UNL     1      33.712 -23.978 -12.953  0.00  0.00    +0.101 C 
ATOM     20  C   UNL     1      36.189 -23.193 -13.787  0.00  0.00    +0.021 C 
ATOM     21  C   UNL     1      35.972 -23.823 -12.572  0.00  0.00    +0.099 C 
ENDBRANCH  12  17
ENDBRANCH   2   8
BRANCH   1  23
ATOM     22  O   UNL     1      36.667 -18.035 -20.765  0.00  0.00    -0.270 OA
ATOM     23  N   UNL     1      34.477 -18.799 -21.123  0.00  0.00    -0.280 N 
ATOM     24  C   UNL     1      35.543 -17.900 -21.276  0.00  0.00    +0.249 C 
ATOM     25  H   UNL     1      33.644 -18.556 -21.590  0.00  0.00    +0.155 HD
BRANCH  24  31
ATOM     26  C   UNL     1      34.740 -14.465 -23.609  0.00  0.00    -0.043 C 
ATOM     27  C   UNL     1      34.710 -14.372 -22.225  0.00  0.00    -0.006 C 
ATOM     28  C   UNL     1      35.029 -15.667 -24.240  0.00  0.00    -0.006 C 
ATOM     29  C   UNL     1      34.976 -15.505 -21.456  0.00  0.00    +0.004 C 
ATOM     30  C   UNL     1      35.294 -16.800 -23.471  0.00  0.00    +0.004 C 
ATOM     31  C   UNL     1      35.268 -16.719 -22.079  0.00  0.00    +0.054 C 
BRANCH  26  32
ATOM     32  C   UNL     1      34.454 -13.242 -24.440  0.00  0.00    -0.050 C 
BRANCH  32  33
ATOM     33  N   UNL     1      34.172 -12.072 -23.610  0.00  0.00    +0.387 N 
ATOM     34  N   UNL     1      32.681  -9.688 -22.939  0.00  0.00    +0.383 N 
ATOM     35  C   UNL     1      32.823 -12.154 -23.037  0.00  0.00    -0.100 C 
ATOM     36  C   UNL     1      34.327 -10.835 -24.383  0.00  0.00    -0.100 C 
ATOM     37  C   UNL     1      32.526 -10.927 -22.167  0.00  0.00    -0.101 C 
ATOM     38  C   UNL     1      34.029  -9.607 -23.515  0.00  0.00    -0.101 C 
ATOM     39  C   UNL     1      32.400  -8.520 -22.108  0.00  0.00    -0.101 C 
ATOM     40  H   UNL     1      34.846 -12.061 -22.845  0.00  0.00    -0.079 HD
ATOM     41  H   UNL     1      32.006  -9.700 -23.704  0.00  0.00    -0.080 HD
ENDBRANCH  32  33
ENDBRANCH  26  32
ENDBRANCH  24  31
ENDBRANCH   1  23
TORSDOF 6
ENDMDL
