MODEL 1
REMARK VINA RESULT:     -12.1      0.000      0.000
REMARK  Name = 5289110
REMARK  6 active torsions:
REMARK  status: ('A' for Active; 'I' for Inactive)
REMARK    1  A    between atoms: C_3  and  C_9
REMARK    2  A    between atoms: C_4  and  C_22
REMARK    3  A    between atoms: N_8  and  C_11
REMARK    4  A    between atoms: C_11  and  C_13
REMARK    5  A    between atoms: N_21  and  C_24
REMARK    6  A    between atoms: C_24  and  C_26
REMARK                            x       y       z     vdW  Elec       q    Type
REMARK                         _______ _______ _______ _____ _____    ______ ____
ROOT
ATOM      1  N   UNL     1      35.057 -15.890 -20.729  0.00  0.00    -0.244 NA
ATOM      2  N   UNL     1      34.287 -13.790 -21.626  0.00  0.00    -0.244 NA
ATOM      3  C   UNL     1      35.304 -16.296 -21.991  0.00  0.00    +0.115 C 
ATOM      4  C   UNL     1      34.565 -14.282 -22.836  0.00  0.00    +0.115 C 
ATOM      5  C   UNL     1      35.073 -15.517 -23.107  0.00  0.00    +0.100 C 
ATOM      6  C   UNL     1      34.556 -14.645 -20.621  0.00  0.00    +0.250 C 
ENDROOT
BRANCH   3   9
ATOM      7  O   UNL     1      36.221 -18.057 -23.239  0.00  0.00    -0.269 OA
ATOM      8  N   UNL     1      35.942 -18.408 -20.965  0.00  0.00    -0.296 N 
ATOM      9  C   UNL     1      35.846 -17.637 -22.130  0.00  0.00    +0.260 C 
ATOM     10  H   UNL     1      35.627 -18.015 -20.120  0.00  0.00    +0.150 HD
BRANCH   8  11
ATOM     11  C   UNL     1      36.478 -19.750 -20.935  0.00  0.00    +0.117 C 
BRANCH  11  13
ATOM     12  F   UNL     1      34.110 -22.871 -16.903  0.00  0.00    -0.205 F 
ATOM     13  C   UNL     1      35.848 -20.583 -19.856  0.00  0.00    -0.003 C 
ATOM     14  C   UNL     1      36.615 -21.006 -18.777  0.00  0.00    -0.005 C 
ATOM     15  C   UNL     1      36.030 -21.780 -17.775  0.00  0.00    +0.005 C 
ATOM     16  C   UNL     1      34.504 -20.924 -19.948  0.00  0.00    -0.000 C 
ATOM     17  C   UNL     1      34.680 -22.126 -17.860  0.00  0.00    +0.136 C 
ATOM     18  C   UNL     1      33.918 -21.698 -18.946  0.00  0.00    +0.029 C 
ATOM     19  C   UNL     1      36.848 -22.235 -16.614  0.00  0.00    +0.033 C 
ENDBRANCH  11  13
ENDBRANCH   8  11
ENDBRANCH   3   9
BRANCH   4  22
ATOM     20  O   UNL     1      33.696 -13.783 -24.957  0.00  0.00    -0.269 OA
ATOM     21  N   UNL     1      34.668 -12.036 -23.780  0.00  0.00    -0.296 N 
ATOM     22  C   UNL     1      34.274 -13.355 -23.960  0.00  0.00    +0.260 C 
ATOM     23  H   UNL     1      35.126 -11.789 -22.944  0.00  0.00    +0.150 HD
BRANCH  21  24
ATOM     24  C   UNL     1      34.434 -11.015 -24.769  0.00  0.00    +0.117 C 
BRANCH  24  26
ATOM     25  F   UNL     1      34.072  -5.885 -22.497  0.00  0.00    -0.205 F 
ATOM     26  C   UNL     1      34.335  -9.654 -24.165  0.00  0.00    -0.003 C 
ATOM     27  C   UNL     1      33.141  -9.237 -23.576  0.00  0.00    -0.005 C 
ATOM     28  C   UNL     1      33.049  -7.964 -23.012  0.00  0.00    +0.005 C 
ATOM     29  C   UNL     1      35.436  -8.799 -24.189  0.00  0.00    -0.000 C 
ATOM     30  C   UNL     1      34.151  -7.109 -23.037  0.00  0.00    +0.136 C 
ATOM     31  C   UNL     1      35.344  -7.526 -23.626  0.00  0.00    +0.029 C 
ATOM     32  C   UNL     1      31.771  -7.521 -22.382  0.00  0.00    +0.033 C 
ENDBRANCH  24  26
ENDBRANCH  21  24
ENDBRANCH   4  22
TORSDOF 6
ENDMDL
MODEL 2
REMARK VINA RESULT:     -12.1      0.053     11.509
REMARK  Name = 5289110
REMARK  6 active torsions:
REMARK  status: ('A' for Active; 'I' for Inactive)
REMARK    1  A    between atoms: C_3  and  C_9
REMARK    2  A    between atoms: C_4  and  C_22
REMARK    3  A    between atoms: N_8  and  C_11
REMARK    4  A    between atoms: C_11  and  C_13
REMARK    5  A    between atoms: N_21  and  C_24
REMARK    6  A    between atoms: C_24  and  C_26
REMARK                            x       y       z     vdW  Elec       q    Type
REMARK                         _______ _______ _______ _____ _____    ______ ____
ROOT
ATOM      1  N   UNL     1      34.295 -13.799 -21.633  0.00  0.00    -0.244 NA
ATOM      2  N   UNL     1      35.061 -15.898 -20.732  0.00  0.00    -0.244 NA
ATOM      3  C   UNL     1      34.586 -14.264 -22.866  0.00  0.00    +0.115 C 
ATOM      4  C   UNL     1      35.317 -16.269 -21.990  0.00  0.00    +0.115 C 
ATOM      5  C   UNL     1      35.110 -15.518 -23.109  0.00  0.00    +0.100 C 
ATOM      6  C   UNL     1      34.554 -14.656 -20.627  0.00  0.00    +0.250 C 
ENDROOT
BRANCH   3   9
ATOM      7  O   UNL     1      33.780 -13.768 -25.011  0.00  0.00    -0.269 OA
ATOM      8  N   UNL     1      34.659 -12.011 -23.781  0.00  0.00    -0.296 N 
ATOM      9  C   UNL     1      34.314 -13.355 -23.966  0.00  0.00    +0.260 C 
ATOM     10  H   UNL     1      35.079 -11.751 -22.929  0.00  0.00    +0.150 HD
BRANCH   8  11
ATOM     11  C   UNL     1      34.432 -10.982 -24.770  0.00  0.00    +0.117 C 
BRANCH  11  13
ATOM     12  F   UNL     1      34.035  -5.876 -22.452  0.00  0.00    -0.205 F 
ATOM     13  C   UNL     1      34.323  -9.619 -24.149  0.00  0.00    -0.003 C 
ATOM     14  C   UNL     1      33.134  -9.231 -23.544  0.00  0.00    -0.005 C 
ATOM     15  C   UNL     1      33.033  -7.965 -22.967  0.00  0.00    +0.005 C 
ATOM     16  C   UNL     1      35.414  -8.758 -24.188  0.00  0.00    -0.000 C 
ATOM     17  C   UNL     1      34.123  -7.095 -23.002  0.00  0.00    +0.136 C 
ATOM     18  C   UNL     1      35.313  -7.492 -23.611  0.00  0.00    +0.029 C 
ATOM     19  C   UNL     1      31.760  -7.545 -22.314  0.00  0.00    +0.033 C 
ENDBRANCH  11  13
ENDBRANCH   8  11
ENDBRANCH   3   9
BRANCH   4  22
ATOM     20  O   UNL     1      36.238 -18.029 -23.236  0.00  0.00    -0.269 OA
ATOM     21  N   UNL     1      35.979 -18.375 -20.957  0.00  0.00    -0.296 N 
ATOM     22  C   UNL     1      35.879 -17.637 -22.128  0.00  0.00    +0.260 C 
ATOM     23  H   UNL     1      35.664 -17.973 -20.116  0.00  0.00    +0.150 HD
BRANCH  21  24
ATOM     24  C   UNL     1      36.526 -19.708 -20.925  0.00  0.00    +0.117 C 
BRANCH  24  26
ATOM     25  F   UNL     1      34.182 -22.877 -16.917  0.00  0.00    -0.205 F 
ATOM     26  C   UNL     1      35.907 -20.549 -19.859  0.00  0.00    -0.003 C 
ATOM     27  C   UNL     1      36.669 -20.968 -18.769  0.00  0.00    -0.005 C 
ATOM     28  C   UNL     1      36.089 -21.755 -17.774  0.00  0.00    +0.005 C 
ATOM     29  C   UNL     1      34.564 -20.915 -19.953  0.00  0.00    -0.000 C 
ATOM     30  C   UNL     1      34.747 -22.121 -17.869  0.00  0.00    +0.136 C 
ATOM     31  C   UNL     1      33.985 -21.702 -18.959  0.00  0.00    +0.029 C 
ATOM     32  C   UNL     1      36.908 -22.201 -16.609  0.00  0.00    +0.033 C 
ENDBRANCH  24  26
ENDBRANCH  21  24
ENDBRANCH   4  22
TORSDOF 6
ENDMDL
MODEL 3
REMARK VINA RESULT:     -12.1      2.276      3.278
REMARK  Name = 5289110
REMARK  6 active torsions:
REMARK  status: ('A' for Active; 'I' for Inactive)
REMARK    1  A    between atoms: C_3  and  C_9
REMARK    2  A    between atoms: C_4  and  C_22
REMARK    3  A    between atoms: N_8  and  C_11
REMARK    4  A    between atoms: C_11  and  C_13
REMARK    5  A    between atoms: N_21  and  C_24
REMARK    6  A    between atoms: C_24  and  C_26
REMARK                            x       y       z     vdW  Elec       q    Type
REMARK                         _______ _______ _______ _____ _____    ______ ____
ROOT
ATOM      1  N   UNL     1      34.311 -14.843 -25.174  0.00  0.00    -0.244 NA
ATOM      2  N   UNL     1      33.218 -13.014 -24.048  0.00  0.00    -0.244 NA
ATOM      3  C   UNL     1      34.531 -15.405 -23.968  0.00  0.00    +0.115 C 
ATOM      4  C   UNL     1      33.482 -13.649 -22.903  0.00  0.00    +0.115 C 
ATOM      5  C   UNL     1      34.130 -14.841 -22.773  0.00  0.00    +0.100 C 
ATOM      6  C   UNL     1      33.660 -13.665 -25.141  0.00  0.00    +0.250 C 
ENDROOT
BRANCH   3   9
ATOM      7  O   UNL     1      35.199 -17.410 -24.986  0.00  0.00    -0.269 OA
ATOM      8  N   UNL     1      35.952 -17.018 -22.828  0.00  0.00    -0.296 N 
ATOM      9  C   UNL     1      35.232 -16.677 -23.980  0.00  0.00    +0.260 C 
ATOM     10  H   UNL     1      35.936 -16.393 -22.068  0.00  0.00    +0.150 HD
BRANCH   8  11
ATOM     11  C   UNL     1      36.718 -18.236 -22.694  0.00  0.00    +0.117 C 
BRANCH  11  13
ATOM     12  F   UNL     1      34.707 -21.555 -18.626  0.00  0.00    -0.205 F 
ATOM     13  C   UNL     1      36.178 -19.123 -21.609  0.00  0.00    -0.003 C 
ATOM     14  C   UNL     1      34.805 -19.297 -21.482  0.00  0.00    -0.005 C 
ATOM     15  C   UNL     1      34.304 -20.120 -20.474  0.00  0.00    +0.005 C 
ATOM     16  C   UNL     1      37.057 -19.760 -20.741  0.00  0.00    -0.000 C 
ATOM     17  C   UNL     1      35.179 -20.763 -19.599  0.00  0.00    +0.136 C 
ATOM     18  C   UNL     1      36.556 -20.584 -19.733  0.00  0.00    +0.029 C 
ATOM     19  C   UNL     1      32.831 -20.311 -20.335  0.00  0.00    +0.033 C 
ENDBRANCH  11  13
ENDBRANCH   8  11
ENDBRANCH   3   9
BRANCH   4  22
ATOM     20  O   UNL     1      33.518 -13.210 -20.599  0.00  0.00    -0.269 OA
ATOM     21  N   UNL     1      32.005 -12.003 -21.877  0.00  0.00    -0.296 N 
ATOM     22  C   UNL     1      33.005 -12.946 -21.684  0.00  0.00    +0.260 C 
ATOM     23  H   UNL     1      31.657 -11.862 -22.788  0.00  0.00    +0.150 HD
BRANCH  21  24
ATOM     24  C   UNL     1      31.455 -11.223 -20.798  0.00  0.00    +0.117 C 
BRANCH  24  26
ATOM     25  F   UNL     1      32.454  -5.724 -21.402  0.00  0.00    -0.205 F 
ATOM     26  C   UNL     1      31.720  -9.764 -20.961  0.00  0.00    -0.003 C 
ATOM     27  C   UNL     1      31.594  -9.168 -22.216  0.00  0.00    -0.005 C 
ATOM     28  C   UNL     1      31.842  -7.803 -22.368  0.00  0.00    +0.005 C 
ATOM     29  C   UNL     1      32.091  -8.995 -19.859  0.00  0.00    -0.000 C 
ATOM     30  C   UNL     1      32.214  -7.035 -21.265  0.00  0.00    +0.136 C 
ATOM     31  C   UNL     1      32.339  -7.631 -20.011  0.00  0.00    +0.029 C 
ATOM     32  C   UNL     1      31.706  -7.170 -23.712  0.00  0.00    +0.033 C 
ENDBRANCH  24  26
ENDBRANCH  21  24
ENDBRANCH   4  22
TORSDOF 6
ENDMDL
MODEL 4
REMARK VINA RESULT:     -12.1      2.320     10.886
REMARK  Name = 5289110
REMARK  6 active torsions:
REMARK  status: ('A' for Active; 'I' for Inactive)
REMARK    1  A    between atoms: C_3  and  C_9
REMARK    2  A    between atoms: C_4  and  C_22
REMARK    3  A    between atoms: N_8  and  C_11
REMARK    4  A    between atoms: C_11  and  C_13
REMARK    5  A    between atoms: N_21  and  C_24
REMARK    6  A    between atoms: C_24  and  C_26
REMARK                            x       y       z     vdW  Elec       q    Type
REMARK                         _______ _______ _______ _____ _____    ______ ____
ROOT
ATOM      1  N   UNL     1      34.332 -17.864 -24.804  0.00  0.00    -0.244 NA
ATOM      2  N   UNL     1      35.197 -19.515 -23.277  0.00  0.00    -0.244 NA
ATOM      3  C   UNL     1      34.773 -16.908 -23.961  0.00  0.00    +0.115 C 
ATOM      4  C   UNL     1      35.596 -18.499 -22.509  0.00  0.00    +0.115 C 
ATOM      5  C   UNL     1      35.426 -17.172 -22.774  0.00  0.00    +0.100 C 
ATOM      6  C   UNL     1      34.573 -19.127 -24.405  0.00  0.00    +0.250 C 
ENDROOT
BRANCH   3   9
ATOM      7  O   UNL     1      34.140 -15.282 -25.528  0.00  0.00    -0.269 OA
ATOM      8  N   UNL     1      34.712 -14.539 -23.408  0.00  0.00    -0.296 N 
ATOM      9  C   UNL     1      34.523 -15.537 -24.373  0.00  0.00    +0.260 C 
ATOM     10  H   UNL     1      35.016 -14.810 -22.512  0.00  0.00    +0.150 HD
BRANCH   8  11
ATOM     11  C   UNL     1      34.484 -13.134 -23.655  0.00  0.00    +0.117 C 
BRANCH  11  13
ATOM     12  F   UNL     1      30.970 -10.891 -19.883  0.00  0.00    -0.205 F 
ATOM     13  C   UNL     1      33.544 -12.532 -22.650  0.00  0.00    -0.003 C 
ATOM     14  C   UNL     1      33.073 -11.238 -22.836  0.00  0.00    -0.005 C 
ATOM     15  C   UNL     1      32.201 -10.679 -21.902  0.00  0.00    +0.005 C 
ATOM     16  C   UNL     1      33.156 -13.276 -21.541  0.00  0.00    -0.000 C 
ATOM     17  C   UNL     1      31.806 -11.419 -20.786  0.00  0.00    +0.136 C 
ATOM     18  C   UNL     1      32.284 -12.717 -20.607  0.00  0.00    +0.029 C 
ATOM     19  C   UNL     1      31.691  -9.291 -22.098  0.00  0.00    +0.033 C 
ENDBRANCH  11  13
ENDBRANCH   8  11
ENDBRANCH   3   9
BRANCH   4  22
ATOM     20  O   UNL     1      37.073 -18.126 -20.725  0.00  0.00    -0.269 OA
ATOM     21  N   UNL     1      35.959 -20.160 -20.762  0.00  0.00    -0.296 N 
ATOM     22  C   UNL     1      36.286 -18.905 -21.257  0.00  0.00    +0.260 C 
ATOM     23  H   UNL     1      35.316 -20.713 -21.261  0.00  0.00    +0.150 HD
BRANCH  21  24
ATOM     24  C   UNL     1      36.525 -20.685 -19.546  0.00  0.00    +0.117 C 
BRANCH  24  26
ATOM     25  F   UNL     1      32.748 -23.517 -16.493  0.00  0.00    -0.205 F 
ATOM     26  C   UNL     1      35.525 -21.437 -18.733  0.00  0.00    -0.003 C 
ATOM     27  C   UNL     1      35.888 -21.966 -17.495  0.00  0.00    -0.005 C 
ATOM     28  C   UNL     1      34.952 -22.670 -16.736  0.00  0.00    +0.005 C 
ATOM     29  C   UNL     1      34.227 -21.610 -19.212  0.00  0.00    -0.000 C 
ATOM     30  C   UNL     1      33.654 -22.843 -17.215  0.00  0.00    +0.136 C 
ATOM     31  C   UNL     1      33.291 -22.314 -18.454  0.00  0.00    +0.029 C 
ATOM     32  C   UNL     1      35.343 -23.234 -15.411  0.00  0.00    +0.033 C 
ENDBRANCH  24  26
ENDBRANCH  21  24
ENDBRANCH   4  22
TORSDOF 6
ENDMDL
MODEL 5
REMARK VINA RESULT:     -12.1      2.309     10.868
REMARK  Name = 5289110
REMARK  6 active torsions:
REMARK  status: ('A' for Active; 'I' for Inactive)
REMARK    1  A    between atoms: C_3  and  C_9
REMARK    2  A    between atoms: C_4  and  C_22
REMARK    3  A    between atoms: N_8  and  C_11
REMARK    4  A    between atoms: C_11  and  C_13
REMARK    5  A    between atoms: N_21  and  C_24
REMARK    6  A    between atoms: C_24  and  C_26
REMARK                            x       y       z     vdW  Elec       q    Type
REMARK                         _______ _______ _______ _____ _____    ______ ____
ROOT
ATOM      1  N   UNL     1      33.287 -12.840 -24.046  0.00  0.00    -0.244 NA
ATOM      2  N   UNL     1      34.357 -14.648 -25.225  0.00  0.00    -0.244 NA
ATOM      3  C   UNL     1      33.508 -13.508 -22.895  0.00  0.00    +0.115 C 
ATOM      4  C   UNL     1      34.530 -15.232 -24.037  0.00  0.00    +0.115 C 
ATOM      5  C   UNL     1      34.139 -14.735 -22.830  0.00  0.00    +0.100 C 
ATOM      6  C   UNL     1      33.730 -13.458 -25.156  0.00  0.00    +0.250 C 
ENDROOT
BRANCH   3   9
ATOM      7  O   UNL     1      33.339 -13.310 -20.565  0.00  0.00    -0.269 OA
ATOM      8  N   UNL     1      32.261 -11.704 -21.843  0.00  0.00    -0.296 N 
ATOM      9  C   UNL     1      33.038 -12.858 -21.684  0.00  0.00    +0.260 C 
ATOM     10  H   UNL     1      32.060 -11.400 -22.757  0.00  0.00    +0.150 HD
BRANCH   8  11
ATOM     11  C   UNL     1      31.739 -10.932 -20.738  0.00  0.00    +0.117 C 
BRANCH  11  13
ATOM     12  F   UNL     1      32.328  -5.402 -21.562  0.00  0.00    -0.205 F 
ATOM     13  C   UNL     1      31.895  -9.455 -20.961  0.00  0.00    -0.003 C 
ATOM     14  C   UNL     1      31.633  -8.917 -22.215  0.00  0.00    -0.005 C 
ATOM     15  C   UNL     1      31.778  -7.545 -22.422  0.00  0.00    +0.005 C 
ATOM     16  C   UNL     1      32.301  -8.641 -19.910  0.00  0.00    -0.000 C 
ATOM     17  C   UNL     1      32.185  -6.721 -21.372  0.00  0.00    +0.136 C 
ATOM     18  C   UNL     1      32.446  -7.269 -20.117  0.00  0.00    +0.029 C 
ATOM     19  C   UNL     1      31.496  -6.963 -23.766  0.00  0.00    +0.033 C 
ENDBRANCH  11  13
ENDBRANCH   8  11
ENDBRANCH   3   9
BRANCH   4  22
ATOM     20  O   UNL     1      35.195 -17.195 -25.136  0.00  0.00    -0.269 OA
ATOM     21  N   UNL     1      35.871 -16.942 -22.932  0.00  0.00    -0.296 N 
ATOM     22  C   UNL     1      35.218 -16.548 -24.091  0.00  0.00    +0.260 C 
ATOM     23  H   UNL     1      35.832 -16.353 -22.143  0.00  0.00    +0.150 HD
BRANCH  21  24
ATOM     24  C   UNL     1      36.603 -18.179 -22.836  0.00  0.00    +0.117 C 
BRANCH  24  26
ATOM     25  F   UNL     1      34.724 -21.465 -18.679  0.00  0.00    -0.205 F 
ATOM     26  C   UNL     1      36.101 -19.051 -21.733  0.00  0.00    -0.003 C 
ATOM     27  C   UNL     1      34.731 -19.264 -21.581  0.00  0.00    -0.005 C 
ATOM     28  C   UNL     1      34.263 -20.079 -20.550  0.00  0.00    +0.005 C 
ATOM     29  C   UNL     1      37.002 -19.653 -20.856  0.00  0.00    -0.000 C 
ATOM     30  C   UNL     1      35.165 -20.680 -19.672  0.00  0.00    +0.136 C 
ATOM     31  C   UNL     1      36.534 -20.467 -19.825  0.00  0.00    +0.029 C 
ATOM     32  C   UNL     1      32.797 -20.306 -20.390  0.00  0.00    +0.033 C 
ENDBRANCH  24  26
ENDBRANCH  21  24
ENDBRANCH   4  22
TORSDOF 6
ENDMDL
MODEL 6
REMARK VINA RESULT:     -12.0      2.301      3.268
REMARK  Name = 5289110
REMARK  6 active torsions:
REMARK  status: ('A' for Active; 'I' for Inactive)
REMARK    1  A    between atoms: C_3  and  C_9
REMARK    2  A    between atoms: C_4  and  C_22
REMARK    3  A    between atoms: N_8  and  C_11
REMARK    4  A    between atoms: C_11  and  C_13
REMARK    5  A    between atoms: N_21  and  C_24
REMARK    6  A    between atoms: C_24  and  C_26
REMARK                            x       y       z     vdW  Elec       q    Type
REMARK                         _______ _______ _______ _____ _____    ______ ____
ROOT
ATOM      1  N   UNL     1      35.174 -19.460 -23.384  0.00  0.00    -0.244 NA
ATOM      2  N   UNL     1      34.234 -17.746 -24.794  0.00  0.00    -0.244 NA
ATOM      3  C   UNL     1      35.739 -18.487 -22.641  0.00  0.00    +0.115 C 
ATOM      4  C   UNL     1      34.833 -16.857 -23.998  0.00  0.00    +0.115 C 
ATOM      5  C   UNL     1      35.599 -17.139 -22.906  0.00  0.00    +0.100 C 
ATOM      6  C   UNL     1      34.446 -19.025 -24.430  0.00  0.00    +0.250 C 
ENDROOT
BRANCH   3   9
ATOM      7  O   UNL     1      37.592 -18.361 -21.209  0.00  0.00    -0.269 OA
ATOM      8  N   UNL     1      36.025 -20.011 -20.766  0.00  0.00    -0.296 N 
ATOM      9  C   UNL     1      36.529 -18.934 -21.507  0.00  0.00    +0.260 C 
ATOM     10  H   UNL     1      35.178 -20.419 -21.056  0.00  0.00    +0.150 HD
BRANCH   8  11
ATOM     11  C   UNL     1      36.681 -20.556 -19.599  0.00  0.00    +0.117 C 
BRANCH  11  13
ATOM     12  F   UNL     1      33.135 -23.526 -16.403  0.00  0.00    -0.205 F 
ATOM     13  C   UNL     1      35.736 -21.349 -18.743  0.00  0.00    -0.003 C 
ATOM     14  C   UNL     1      36.152 -21.804 -17.498  0.00  0.00    -0.005 C 
ATOM     15  C   UNL     1      35.274 -22.540 -16.702  0.00  0.00    +0.005 C 
ATOM     16  C   UNL     1      34.453 -21.621 -19.206  0.00  0.00    -0.000 C 
ATOM     17  C   UNL     1      33.985 -22.818 -17.159  0.00  0.00    +0.136 C 
ATOM     18  C   UNL     1      33.575 -22.358 -18.410  0.00  0.00    +0.029 C 
ATOM     19  C   UNL     1      35.716 -23.029 -15.364  0.00  0.00    +0.033 C 
ENDBRANCH  11  13
ENDBRANCH   8  11
ENDBRANCH   3   9
BRANCH   4  22
ATOM     20  O   UNL     1      34.271 -15.175 -25.533  0.00  0.00    -0.269 OA
ATOM     21  N   UNL     1      34.793 -14.500 -23.377  0.00  0.00    -0.296 N 
ATOM     22  C   UNL     1      34.613 -15.438 -24.383  0.00  0.00    +0.260 C 
ATOM     23  H   UNL     1      35.069 -14.810 -22.484  0.00  0.00    +0.150 HD
BRANCH  21  24
ATOM     24  C   UNL     1      34.594 -13.088 -23.588  0.00  0.00    +0.117 C 
BRANCH  24  26
ATOM     25  F   UNL     1      30.820 -10.920 -20.030  0.00  0.00    -0.205 F 
ATOM     26  C   UNL     1      33.592 -12.510 -22.645  0.00  0.00    -0.003 C 
ATOM     27  C   UNL     1      33.116 -11.214 -22.842  0.00  0.00    -0.005 C 
ATOM     28  C   UNL     1      32.180 -10.674 -21.960  0.00  0.00    +0.005 C 
ATOM     29  C   UNL     1      33.131 -13.266 -21.568  0.00  0.00    -0.000 C 
ATOM     30  C   UNL     1      31.720 -11.430 -20.882  0.00  0.00    +0.136 C 
ATOM     31  C   UNL     1      32.196 -12.726 -20.686  0.00  0.00    +0.029 C 
ATOM     32  C   UNL     1      31.672  -9.287 -22.173  0.00  0.00    +0.033 C 
ENDBRANCH  24  26
ENDBRANCH  21  24
ENDBRANCH   4  22
TORSDOF 6
ENDMDL
MODEL 7
REMARK VINA RESULT:     -12.0      2.321      3.560
REMARK  Name = 5289110
REMARK  6 active torsions:
REMARK  status: ('A' for Active; 'I' for Inactive)
REMARK    1  A    between atoms: C_3  and  C_9
REMARK    2  A    between atoms: C_4  and  C_22
REMARK    3  A    between atoms: N_8  and  C_11
REMARK    4  A    between atoms: C_11  and  C_13
REMARK    5  A    between atoms: N_21  and  C_24
REMARK    6  A    between atoms: C_24  and  C_26
REMARK                            x       y       z     vdW  Elec       q    Type
REMARK                         _______ _______ _______ _____ _____    ______ ____
ROOT
ATOM      1  N   UNL     1      33.068 -13.751 -22.858  0.00  0.00    -0.244 NA
ATOM      2  N   UNL     1      33.382 -11.362 -22.915  0.00  0.00    -0.244 NA
ATOM      3  C   UNL     1      33.919 -13.850 -23.900  0.00  0.00    +0.115 C 
ATOM      4  C   UNL     1      34.210 -11.563 -23.944  0.00  0.00    +0.115 C 
ATOM      5  C   UNL     1      34.533 -12.767 -24.496  0.00  0.00    +0.100 C 
ATOM      6  C   UNL     1      32.848 -12.496 -22.423  0.00  0.00    +0.250 C 
ENDROOT
BRANCH   3   9
ATOM      7  O   UNL     1      33.756 -15.556 -25.501  0.00  0.00    -0.269 OA
ATOM      8  N   UNL     1      34.913 -16.044 -23.552  0.00  0.00    -0.296 N 
ATOM      9  C   UNL     1      34.171 -15.196 -24.385  0.00  0.00    +0.260 C 
ATOM     10  H   UNL     1      35.211 -15.695 -22.681  0.00  0.00    +0.150 HD
BRANCH   8  11
ATOM     11  C   UNL     1      35.266 -17.401 -23.902  0.00  0.00    +0.117 C 
BRANCH  11  13
ATOM     12  F   UNL     1      36.489 -20.486 -19.364  0.00  0.00    -0.205 F 
ATOM     13  C   UNL     1      35.590 -18.227 -22.690  0.00  0.00    -0.003 C 
ATOM     14  C   UNL     1      34.580 -18.933 -22.048  0.00  0.00    -0.005 C 
ATOM     15  C   UNL     1      34.880 -19.699 -20.922  0.00  0.00    +0.005 C 
ATOM     16  C   UNL     1      36.898 -18.275 -22.221  0.00  0.00    -0.000 C 
ATOM     17  C   UNL     1      36.191 -19.753 -20.445  0.00  0.00    +0.136 C 
ATOM     18  C   UNL     1      37.199 -19.042 -21.095  0.00  0.00    +0.029 C 
ATOM     19  C   UNL     1      33.800 -20.460 -20.231  0.00  0.00    +0.033 C 
ENDBRANCH  11  13
ENDBRANCH   8  11
ENDBRANCH   3   9
BRANCH   4  22
ATOM     20  O   UNL     1      35.262 -10.340 -25.645  0.00  0.00    -0.269 OA
ATOM     21  N   UNL     1      34.787  -9.209 -23.677  0.00  0.00    -0.296 N 
ATOM     22  C   UNL     1      34.809 -10.324 -24.504  0.00  0.00    +0.260 C 
ATOM     23  H   UNL     1      34.401  -9.296 -22.775  0.00  0.00    +0.150 HD
BRANCH  21  24
ATOM     24  C   UNL     1      35.308  -7.930 -24.086  0.00  0.00    +0.117 C 
BRANCH  24  26
ATOM     25  F   UNL     1      32.071  -3.656 -22.393  0.00  0.00    -0.205 F 
ATOM     26  C   UNL     1      34.448  -6.797 -23.634  0.00  0.00    -0.003 C 
ATOM     27  C   UNL     1      33.824  -6.849 -22.388  0.00  0.00    -0.005 C 
ATOM     28  C   UNL     1      33.020  -5.789 -21.966  0.00  0.00    +0.005 C 
ATOM     29  C   UNL     1      34.269  -5.686 -24.458  0.00  0.00    -0.000 C 
ATOM     30  C   UNL     1      32.841  -4.679 -22.790  0.00  0.00    +0.136 C 
ATOM     31  C   UNL     1      33.465  -4.627 -24.037  0.00  0.00    +0.029 C 
ATOM     32  C   UNL     1      32.355  -5.848 -20.632  0.00  0.00    +0.033 C 
ENDBRANCH  24  26
ENDBRANCH  21  24
ENDBRANCH   4  22
TORSDOF 6
ENDMDL
MODEL 8
REMARK VINA RESULT:     -11.9      2.320     11.514
REMARK  Name = 5289110
REMARK  6 active torsions:
REMARK  status: ('A' for Active; 'I' for Inactive)
REMARK    1  A    between atoms: C_3  and  C_9
REMARK    2  A    between atoms: C_4  and  C_22
REMARK    3  A    between atoms: N_8  and  C_11
REMARK    4  A    between atoms: C_11  and  C_13
REMARK    5  A    between atoms: N_21  and  C_24
REMARK    6  A    between atoms: C_24  and  C_26
REMARK                            x       y       z     vdW  Elec       q    Type
REMARK                         _______ _______ _______ _____ _____    ______ ____
ROOT
ATOM      1  N   UNL     1      33.380 -11.364 -22.905  0.00  0.00    -0.244 NA
ATOM      2  N   UNL     1      33.071 -13.753 -22.852  0.00  0.00    -0.244 NA
ATOM      3  C   UNL     1      34.222 -11.533 -23.945  0.00  0.00    +0.115 C 
ATOM      4  C   UNL     1      33.917 -13.819 -23.883  0.00  0.00    +0.115 C 
ATOM      5  C   UNL     1      34.534 -12.764 -24.488  0.00  0.00    +0.100 C 
ATOM      6  C   UNL     1      32.849 -12.500 -22.414  0.00  0.00    +0.250 C 
ENDROOT
BRANCH   3   9
ATOM      7  O   UNL     1      35.292 -10.311 -25.636  0.00  0.00    -0.269 OA
ATOM      8  N   UNL     1      34.773  -9.178 -23.681  0.00  0.00    -0.296 N 
ATOM      9  C   UNL     1      34.806 -10.321 -24.491  0.00  0.00    +0.260 C 
ATOM     10  H   UNL     1      34.374  -9.255 -22.785  0.00  0.00    +0.150 HD
BRANCH   8  11
ATOM     11  C   UNL     1      35.293  -7.893 -24.089  0.00  0.00    +0.117 C 
BRANCH  11  13
ATOM     12  F   UNL     1      32.014  -3.657 -22.380  0.00  0.00    -0.205 F 
ATOM     13  C   UNL     1      34.417  -6.762 -23.629  0.00  0.00    -0.003 C 
ATOM     14  C   UNL     1      33.798  -6.832 -22.387  0.00  0.00    -0.005 C 
ATOM     15  C   UNL     1      32.985  -5.782 -21.960  0.00  0.00    +0.005 C 
ATOM     16  C   UNL     1      34.233  -5.657 -24.453  0.00  0.00    -0.000 C 
ATOM     17  C   UNL     1      32.795  -4.669 -22.781  0.00  0.00    +0.136 C 
ATOM     18  C   UNL     1      33.419  -4.608 -24.026  0.00  0.00    +0.029 C 
ATOM     19  C   UNL     1      32.320  -5.851 -20.627  0.00  0.00    +0.033 C 
ENDBRANCH  11  13
ENDBRANCH   8  11
ENDBRANCH   3   9
BRANCH   4  22
ATOM     20  O   UNL     1      33.771 -15.516 -25.495  0.00  0.00    -0.269 OA
ATOM     21  N   UNL     1      34.900 -16.022 -23.533  0.00  0.00    -0.296 N 
ATOM     22  C   UNL     1      34.178 -15.194 -24.381  0.00  0.00    +0.260 C 
ATOM     23  H   UNL     1      35.182 -15.671 -22.657  0.00  0.00    +0.150 HD
BRANCH  21  24
ATOM     24  C   UNL     1      35.252 -17.374 -23.883  0.00  0.00    +0.117 C 
BRANCH  24  26
ATOM     25  F   UNL     1      36.519 -20.488 -19.377  0.00  0.00    -0.205 F 
ATOM     26  C   UNL     1      35.585 -18.202 -22.687  0.00  0.00    -0.003 C 
ATOM     27  C   UNL     1      34.585 -18.926 -22.039  0.00  0.00    -0.005 C 
ATOM     28  C   UNL     1      34.897 -19.699 -20.921  0.00  0.00    +0.005 C 
ATOM     29  C   UNL     1      36.898 -18.251 -22.217  0.00  0.00    -0.000 C 
ATOM     30  C   UNL     1      36.209 -19.748 -20.451  0.00  0.00    +0.136 C 
ATOM     31  C   UNL     1      37.210 -19.024 -21.099  0.00  0.00    +0.029 C 
ATOM     32  C   UNL     1      33.825 -20.473 -20.231  0.00  0.00    +0.033 C 
ENDBRANCH  24  26
ENDBRANCH  21  24
ENDBRANCH   4  22
TORSDOF 6
ENDMDL
MODEL 9
REMARK VINA RESULT:     -11.9      7.633     12.751
REMARK  Name = 5289110
REMARK  6 active torsions:
REMARK  status: ('A' for Active; 'I' for Inactive)
REMARK    1  A    between atoms: C_3  and  C_9
REMARK    2  A    between atoms: C_4  and  C_22
REMARK    3  A    between atoms: N_8  and  C_11
REMARK    4  A    between atoms: C_11  and  C_13
REMARK    5  A    between atoms: N_21  and  C_24
REMARK    6  A    between atoms: C_24  and  C_26
REMARK                            x       y       z     vdW  Elec       q    Type
REMARK                         _______ _______ _______ _____ _____    ______ ____
ROOT
ATOM      1  N   UNL     1      38.211 -23.510 -14.958  0.00  0.00    -0.244 NA
ATOM      2  N   UNL     1      36.787 -24.495 -13.282  0.00  0.00    -0.244 NA
ATOM      3  C   UNL     1      37.176 -22.729 -15.326  0.00  0.00    +0.115 C 
ATOM      4  C   UNL     1      35.823 -23.680 -13.718  0.00  0.00    +0.115 C 
ATOM      5  C   UNL     1      35.932 -22.771 -14.728  0.00  0.00    +0.100 C 
ATOM      6  C   UNL     1      37.951 -24.358 -13.945  0.00  0.00    +0.250 C 
ENDROOT
BRANCH   3   9
ATOM      7  O   UNL     1      38.211 -20.846 -16.265  0.00  0.00    -0.269 OA
ATOM      8  N   UNL     1      36.793 -22.064 -17.635  0.00  0.00    -0.296 N 
ATOM      9  C   UNL     1      37.435 -21.806 -16.417  0.00  0.00    +0.260 C 
ATOM     10  H   UNL     1      36.191 -22.841 -17.688  0.00  0.00    +0.150 HD
BRANCH   8  11
ATOM     11  C   UNL     1      36.966 -21.253 -18.819  0.00  0.00    +0.117 C 
BRANCH  11  13
ATOM     12  F   UNL     1      32.041 -19.957 -21.202  0.00  0.00    -0.205 F 
ATOM     13  C   UNL     1      35.652 -20.906 -19.458  0.00  0.00    -0.003 C 
ATOM     14  C   UNL     1      35.628 -20.095 -20.587  0.00  0.00    -0.005 C 
ATOM     15  C   UNL     1      34.408 -19.773 -21.181  0.00  0.00    +0.005 C 
ATOM     16  C   UNL     1      34.471 -21.398 -18.913  0.00  0.00    -0.000 C 
ATOM     17  C   UNL     1      33.219 -20.263 -20.640  0.00  0.00    +0.136 C 
ATOM     18  C   UNL     1      33.251 -21.076 -19.507  0.00  0.00    +0.029 C 
ATOM     19  C   UNL     1      34.378 -18.905 -22.393  0.00  0.00    +0.033 C 
ENDBRANCH  11  13
ENDBRANCH   8  11
ENDBRANCH   3   9
BRANCH   4  22
ATOM     20  O   UNL     1      34.495 -24.430 -11.937  0.00  0.00    -0.269 OA
ATOM     21  N   UNL     1      33.436 -23.201 -13.594  0.00  0.00    -0.296 N 
ATOM     22  C   UNL     1      34.529 -23.816 -13.000  0.00  0.00    +0.260 C 
ATOM     23  H   UNL     1      33.565 -22.731 -14.450  0.00  0.00    +0.150 HD
BRANCH  21  24
ATOM     24  C   UNL     1      32.120 -23.224 -13.008  0.00  0.00    +0.117 C 
BRANCH  24  26
ATOM     25  F   UNL     1      28.175 -24.815 -16.683  0.00  0.00    -0.205 F 
ATOM     26  C   UNL     1      31.072 -23.643 -13.984  0.00  0.00    -0.003 C 
ATOM     27  C   UNL     1      30.197 -22.697 -14.517  0.00  0.00    -0.005 C 
ATOM     28  C   UNL     1      29.217 -23.090 -15.429  0.00  0.00    +0.005 C 
ATOM     29  C   UNL     1      30.968 -24.981 -14.363  0.00  0.00    -0.000 C 
ATOM     30  C   UNL     1      29.113 -24.428 -15.807  0.00  0.00    +0.136 C 
ATOM     31  C   UNL     1      29.988 -25.374 -15.274  0.00  0.00    +0.029 C 
ATOM     32  C   UNL     1      28.282 -22.075 -15.998  0.00  0.00    +0.033 C 
ENDBRANCH  24  26
ENDBRANCH  21  24
ENDBRANCH   4  22
TORSDOF 6
ENDMDL
