MODEL 1
REMARK VINA RESULT:     -12.4      0.000      0.000
REMARK  Name = 447736
REMARK  4 active torsions:
REMARK  status: ('A' for Active; 'I' for Inactive)
REMARK    1  A    between atoms: N_2  and  C_13
REMARK    2  A    between atoms: C_3  and  C_20
REMARK    3  A    between atoms: C_6  and  C_17
REMARK    4  A    between atoms: C_28  and  C_32
REMARK                            x       y       z     vdW  Elec       q    Type
REMARK                         _______ _______ _______ _____ _____    ______ ____
ROOT
ATOM      1  O   UNL     1      33.967 -23.651 -17.821  0.00  0.00    -0.270 OA
ATOM      2  N   UNL     1      35.321 -22.191 -16.570  0.00  0.00    -0.280 N 
ATOM      3  C   UNL     1      34.563 -22.589 -17.680  0.00  0.00    +0.249 C 
ATOM      4  H   UNL     1      35.734 -21.299 -16.627  0.00  0.00    +0.155 HD
ENDROOT
BRANCH   2  13
ATOM      5  N   UNL     1      38.551 -25.603 -12.536  0.00  0.00    +0.388 N 
ATOM      6  C   UNL     1      38.510 -24.623 -13.639  0.00  0.00    -0.039 C 
ATOM      7  C   UNL     1      37.108 -24.116 -13.954  0.00  0.00    -0.045 C 
ATOM      8  C   UNL     1      36.061 -24.304 -13.027  0.00  0.00    -0.030 C 
ATOM      9  C   UNL     1      36.297 -25.059 -11.744  0.00  0.00    +0.003 C 
ATOM     10  C   UNL     1      37.780 -25.131 -11.388  0.00  0.00    -0.076 C 
ATOM     11  C   UNL     1      36.844 -23.389 -15.126  0.00  0.00    +0.008 C 
ATOM     12  C   UNL     1      34.775 -23.823 -13.313  0.00  0.00    -0.003 C 
ATOM     13  C   UNL     1      35.562 -22.904 -15.395  0.00  0.00    +0.050 C 
ATOM     14  C   UNL     1      34.527 -23.126 -14.493  0.00  0.00    +0.014 C 
ATOM     15  H   UNL     1      39.520 -25.745 -12.251  0.00  0.00    -0.084 HD
ATOM     16  H   UNL     1      38.143 -26.479 -12.864  0.00  0.00    -0.084 HD
BRANCH   6  17
ATOM     17  C   UNL     1      39.199 -25.284 -14.840  0.00  0.00    -0.015 C 
ATOM     18  C   UNL     1      40.711 -25.293 -14.645  0.00  0.00    -0.002 C 
ATOM     19  C   UNL     1      38.669 -26.700 -15.040  0.00  0.00    -0.002 C 
ENDBRANCH   6  17
ENDBRANCH   2  13
BRANCH   3  20
ATOM     20  C   UNL     1      34.516 -21.613 -18.800  0.00  0.00    +0.054 C 
ATOM     21  C   UNL     1      35.668 -20.123 -20.296  0.00  0.00    +0.000 C 
ATOM     22  C   UNL     1      35.696 -21.048 -19.239  0.00  0.00    +0.005 C 
ATOM     23  C   UNL     1      34.428 -19.788 -20.891  0.00  0.00    +0.000 C 
ATOM     24  C   UNL     1      33.299 -21.304 -19.361  0.00  0.00    +0.005 C 
ATOM     25  C   UNL     1      33.252 -20.387 -20.411  0.00  0.00    +0.000 C 
ATOM     26  C   UNL     1      34.401 -18.863 -21.947  0.00  0.00    +0.003 C 
ATOM     27  C   UNL     1      36.844 -19.524 -20.776  0.00  0.00    +0.000 C 
ATOM     28  C   UNL     1      35.579 -18.278 -22.412  0.00  0.00    +0.031 C 
ATOM     29  C   UNL     1      36.799 -18.608 -21.827  0.00  0.00    +0.003 C 
BRANCH  28  32
ATOM     30  N   UNL     1      34.960 -17.650 -24.733  0.00  0.00    -0.343 N 
ATOM     31  N   UNL     1      36.046 -16.114 -23.346  0.00  0.00    -0.285 NA
ATOM     32  C   UNL     1      35.534 -17.322 -23.506  0.00  0.00    +0.117 C 
ATOM     33  H   UNL     1      34.939 -16.987 -25.461  0.00  0.00    +0.144 HD
ATOM     34  H   UNL     1      34.575 -18.545 -24.872  0.00  0.00    +0.144 HD
ATOM     35  H   UNL     1      36.016 -15.465 -24.086  0.00  0.00    +0.188 HD
ENDBRANCH  28  32
ENDBRANCH   3  20
TORSDOF 4
ENDMDL
MODEL 2
REMARK VINA RESULT:     -11.1      1.173      2.717
REMARK  Name = 447736
REMARK  4 active torsions:
REMARK  status: ('A' for Active; 'I' for Inactive)
REMARK    1  A    between atoms: N_2  and  C_13
REMARK    2  A    between atoms: C_3  and  C_20
REMARK    3  A    between atoms: C_6  and  C_17
REMARK    4  A    between atoms: C_28  and  C_32
REMARK                            x       y       z     vdW  Elec       q    Type
REMARK                         _______ _______ _______ _____ _____    ______ ____
ROOT
ATOM      1  O   UNL     1      34.497 -22.967 -17.716  0.00  0.00    -0.270 OA
ATOM      2  N   UNL     1      36.609 -22.005 -17.339  0.00  0.00    -0.280 N 
ATOM      3  C   UNL     1      35.372 -22.150 -17.982  0.00  0.00    +0.249 C 
ATOM      4  H   UNL     1      37.194 -21.292 -17.684  0.00  0.00    +0.155 HD
ENDROOT
BRANCH   2  13
ATOM      5  N   UNL     1      36.430 -25.268 -12.078  0.00  0.00    +0.388 N 
ATOM      6  C   UNL     1      35.772 -24.785 -13.309  0.00  0.00    -0.039 C 
ATOM      7  C   UNL     1      36.723 -24.097 -14.280  0.00  0.00    -0.045 C 
ATOM      8  C   UNL     1      38.117 -24.264 -14.147  0.00  0.00    -0.030 C 
ATOM      9  C   UNL     1      38.688 -25.071 -13.009  0.00  0.00    +0.003 C 
ATOM     10  C   UNL     1      37.651 -26.007 -12.394  0.00  0.00    -0.076 C 
ATOM     11  C   UNL     1      36.237 -23.353 -15.368  0.00  0.00    +0.008 C 
ATOM     12  C   UNL     1      38.989 -23.641 -15.051  0.00  0.00    -0.003 C 
ATOM     13  C   UNL     1      37.114 -22.747 -16.270  0.00  0.00    +0.050 C 
ATOM     14  C   UNL     1      38.488 -22.885 -16.109  0.00  0.00    +0.014 C 
ATOM     15  H   UNL     1      35.790 -25.883 -11.576  0.00  0.00    -0.084 HD
ATOM     16  H   UNL     1      36.678 -24.463 -11.504  0.00  0.00    -0.084 HD
BRANCH   6  17
ATOM     17  C   UNL     1      34.610 -23.890 -12.861  0.00  0.00    -0.015 C 
ATOM     18  C   UNL     1      33.282 -24.464 -13.341  0.00  0.00    -0.002 C 
ATOM     19  C   UNL     1      34.616 -23.732 -11.345  0.00  0.00    -0.002 C 
ENDBRANCH   6  17
ENDBRANCH   2  13
BRANCH   3  20
ATOM     20  C   UNL     1      35.132 -21.221 -19.116  0.00  0.00    +0.054 C 
ATOM     21  C   UNL     1      36.003 -19.704 -20.767  0.00  0.00    +0.000 C 
ATOM     22  C   UNL     1      36.212 -20.586 -19.694  0.00  0.00    +0.005 C 
ATOM     23  C   UNL     1      34.685 -19.482 -21.235  0.00  0.00    +0.000 C 
ATOM     24  C   UNL     1      33.843 -21.023 -19.551  0.00  0.00    +0.005 C 
ATOM     25  C   UNL     1      33.616 -20.150 -20.615  0.00  0.00    +0.000 C 
ATOM     26  C   UNL     1      34.476 -18.600 -22.307  0.00  0.00    +0.003 C 
ATOM     27  C   UNL     1      37.072 -19.037 -21.386  0.00  0.00    +0.000 C 
ATOM     28  C   UNL     1      35.550 -17.946 -22.910  0.00  0.00    +0.031 C 
ATOM     29  C   UNL     1      36.846 -18.164 -22.451  0.00  0.00    +0.003 C 
BRANCH  28  32
ATOM     30  N   UNL     1      35.746 -15.710 -23.972  0.00  0.00    -0.343 N 
ATOM     31  N   UNL     1      34.682 -17.460 -25.098  0.00  0.00    -0.285 NA
ATOM     32  C   UNL     1      35.316 -17.035 -24.019  0.00  0.00    +0.117 C 
ATOM     33  H   UNL     1      35.578 -15.110 -24.735  0.00  0.00    +0.144 HD
ATOM     34  H   UNL     1      36.218 -15.374 -23.176  0.00  0.00    +0.144 HD
ATOM     35  H   UNL     1      34.523 -16.844 -25.850  0.00  0.00    +0.188 HD
ENDBRANCH  28  32
ENDBRANCH   3  20
TORSDOF 4
ENDMDL
MODEL 3
REMARK VINA RESULT:     -11.0      0.728      1.621
REMARK  Name = 447736
REMARK  4 active torsions:
REMARK  status: ('A' for Active; 'I' for Inactive)
REMARK    1  A    between atoms: N_2  and  C_13
REMARK    2  A    between atoms: C_3  and  C_20
REMARK    3  A    between atoms: C_6  and  C_17
REMARK    4  A    between atoms: C_28  and  C_32
REMARK                            x       y       z     vdW  Elec       q    Type
REMARK                         _______ _______ _______ _____ _____    ______ ____
ROOT
ATOM      1  O   UNL     1      34.605 -23.063 -18.124  0.00  0.00    -0.270 OA
ATOM      2  N   UNL     1      36.148 -21.929 -16.759  0.00  0.00    -0.280 N 
ATOM      3  C   UNL     1      35.394 -22.147 -17.921  0.00  0.00    +0.249 C 
ATOM      4  H   UNL     1      36.736 -21.140 -16.768  0.00  0.00    +0.155 HD
ENDROOT
BRANCH   2  13
ATOM      5  N   UNL     1      38.481 -25.784 -12.511  0.00  0.00    +0.388 N 
ATOM      6  C   UNL     1      38.679 -24.777 -13.572  0.00  0.00    -0.039 C 
ATOM      7  C   UNL     1      37.388 -24.109 -14.028  0.00  0.00    -0.045 C 
ATOM      8  C   UNL     1      36.224 -24.200 -13.238  0.00  0.00    -0.030 C 
ATOM      9  C   UNL     1      36.221 -25.010 -11.966  0.00  0.00    +0.003 C 
ATOM     10  C   UNL     1      37.634 -25.257 -11.443  0.00  0.00    -0.076 C 
ATOM     11  C   UNL     1      37.347 -23.327 -15.194  0.00  0.00    +0.008 C 
ATOM     12  C   UNL     1      35.042 -23.571 -13.653  0.00  0.00    -0.003 C 
ATOM     13  C   UNL     1      36.168 -22.694 -15.593  0.00  0.00    +0.050 C 
ATOM     14  C   UNL     1      35.014 -22.821 -14.826  0.00  0.00    +0.014 C 
ATOM     15  H   UNL     1      39.388 -26.040 -12.121  0.00  0.00    -0.084 HD
ATOM     16  H   UNL     1      38.023 -26.600 -12.917  0.00  0.00    -0.084 HD
BRANCH   6  17
ATOM     17  C   UNL     1      39.431 -25.481 -14.709  0.00  0.00    -0.015 C 
ATOM     18  C   UNL     1      40.858 -25.806 -14.280  0.00  0.00    -0.002 C 
ATOM     19  C   UNL     1      38.691 -26.746 -15.131  0.00  0.00    -0.002 C 
ENDBRANCH   6  17
ENDBRANCH   2  13
BRANCH   3  20
ATOM     20  C   UNL     1      35.614 -21.166 -19.015  0.00  0.00    +0.054 C 
ATOM     21  C   UNL     1      34.755 -19.938 -20.897  0.00  0.00    +0.000 C 
ATOM     22  C   UNL     1      34.564 -20.863 -19.856  0.00  0.00    +0.005 C 
ATOM     23  C   UNL     1      36.025 -19.334 -21.061  0.00  0.00    +0.000 C 
ATOM     24  C   UNL     1      36.857 -20.593 -19.153  0.00  0.00    +0.005 C 
ATOM     25  C   UNL     1      37.065 -19.672 -20.180  0.00  0.00    +0.000 C 
ATOM     26  C   UNL     1      36.215 -18.409 -22.100  0.00  0.00    +0.003 C 
ATOM     27  C   UNL     1      33.715 -19.600 -21.776  0.00  0.00    +0.000 C 
ATOM     28  C   UNL     1      35.170 -18.084 -22.965  0.00  0.00    +0.031 C 
ATOM     29  C   UNL     1      33.922 -18.679 -22.803  0.00  0.00    +0.003 C 
BRANCH  28  32
ATOM     30  N   UNL     1      35.949 -15.875 -23.790  0.00  0.00    -0.343 N 
ATOM     31  N   UNL     1      35.040 -17.434 -25.274  0.00  0.00    -0.285 NA
ATOM     32  C   UNL     1      35.385 -17.126 -24.037  0.00  0.00    +0.117 C 
ATOM     33  H   UNL     1      36.086 -15.242 -24.531  0.00  0.00    +0.144 HD
ATOM     34  H   UNL     1      36.211 -15.626 -22.874  0.00  0.00    +0.144 HD
ATOM     35  H   UNL     1      35.184 -16.786 -26.002  0.00  0.00    +0.188 HD
ENDBRANCH  28  32
ENDBRANCH   3  20
TORSDOF 4
ENDMDL
MODEL 4
REMARK VINA RESULT:     -11.0      2.790      4.921
REMARK  Name = 447736
REMARK  4 active torsions:
REMARK  status: ('A' for Active; 'I' for Inactive)
REMARK    1  A    between atoms: N_2  and  C_13
REMARK    2  A    between atoms: C_3  and  C_20
REMARK    3  A    between atoms: C_6  and  C_17
REMARK    4  A    between atoms: C_28  and  C_32
REMARK                            x       y       z     vdW  Elec       q    Type
REMARK                         _______ _______ _______ _____ _____    ______ ____
ROOT
ATOM      1  O   UNL     1      37.592 -19.325 -20.051  0.00  0.00    -0.270 OA
ATOM      2  N   UNL     1      35.522 -20.368 -19.657  0.00  0.00    -0.280 N 
ATOM      3  C   UNL     1      36.413 -19.518 -20.326  0.00  0.00    +0.249 C 
ATOM      4  H   UNL     1      34.605 -20.401 -20.014  0.00  0.00    +0.155 HD
ENDROOT
BRANCH   2  13
ATOM      5  N   UNL     1      34.181 -24.086 -14.889  0.00  0.00    +0.388 N 
ATOM      6  C   UNL     1      33.844 -23.532 -16.216  0.00  0.00    -0.039 C 
ATOM      7  C   UNL     1      34.966 -22.712 -16.838  0.00  0.00    -0.045 C 
ATOM      8  C   UNL     1      36.281 -22.815 -16.340  0.00  0.00    -0.030 C 
ATOM      9  C   UNL     1      36.585 -23.687 -15.148  0.00  0.00    +0.003 C 
ATOM     10  C   UNL     1      35.494 -24.728 -14.909  0.00  0.00    -0.076 C 
ATOM     11  C   UNL     1      34.736 -21.902 -17.962  0.00  0.00    +0.008 C 
ATOM     12  C   UNL     1      37.315 -22.070 -16.925  0.00  0.00    -0.003 C 
ATOM     13  C   UNL     1      35.775 -21.173 -18.545  0.00  0.00    +0.050 C 
ATOM     14  C   UNL     1      37.062 -21.252 -18.024  0.00  0.00    +0.014 C 
ATOM     15  H   UNL     1      33.477 -24.775 -14.626  0.00  0.00    -0.084 HD
ATOM     16  H   UNL     1      34.203 -23.322 -14.213  0.00  0.00    -0.084 HD
BRANCH   6  17
ATOM     17  C   UNL     1      32.540 -22.743 -16.042  0.00  0.00    -0.015 C 
ATOM     18  C   UNL     1      31.361 -23.536 -16.595  0.00  0.00    -0.002 C 
ATOM     19  C   UNL     1      32.321 -22.398 -14.573  0.00  0.00    -0.002 C 
ENDBRANCH   6  17
ENDBRANCH   2  13
BRANCH   3  20
ATOM     20  C   UNL     1      35.834 -18.763 -21.468  0.00  0.00    +0.054 C 
ATOM     21  C   UNL     1      35.184 -16.662 -22.442  0.00  0.00    +0.000 C 
ATOM     22  C   UNL     1      35.730 -17.390 -21.372  0.00  0.00    +0.005 C 
ATOM     23  C   UNL     1      34.750 -17.352 -23.600  0.00  0.00    +0.000 C 
ATOM     24  C   UNL     1      35.421 -19.456 -22.581  0.00  0.00    +0.005 C 
ATOM     25  C   UNL     1      34.876 -18.750 -23.653  0.00  0.00    +0.000 C 
ATOM     26  C   UNL     1      34.205 -16.623 -24.669  0.00  0.00    +0.003 C 
ATOM     27  C   UNL     1      35.059 -15.264 -22.388  0.00  0.00    +0.000 C 
ATOM     28  C   UNL     1      34.088 -15.235 -24.599  0.00  0.00    +0.031 C 
ATOM     29  C   UNL     1      34.515 -14.557 -23.460  0.00  0.00    +0.003 C 
BRANCH  28  32
ATOM     30  N   UNL     1      33.828 -13.153 -25.927  0.00  0.00    -0.343 N 
ATOM     31  N   UNL     1      32.692 -15.098 -26.549  0.00  0.00    -0.285 NA
ATOM     32  C   UNL     1      33.520 -14.495 -25.714  0.00  0.00    +0.117 C 
ATOM     33  H   UNL     1      33.433 -12.671 -26.689  0.00  0.00    +0.144 HD
ATOM     34  H   UNL     1      34.442 -12.686 -25.315  0.00  0.00    +0.144 HD
ATOM     35  H   UNL     1      32.306 -14.598 -27.305  0.00  0.00    +0.188 HD
ENDBRANCH  28  32
ENDBRANCH   3  20
TORSDOF 4
ENDMDL
MODEL 5
REMARK VINA RESULT:     -10.6      9.440     15.932
REMARK  Name = 447736
REMARK  4 active torsions:
REMARK  status: ('A' for Active; 'I' for Inactive)
REMARK    1  A    between atoms: N_2  and  C_13
REMARK    2  A    between atoms: C_3  and  C_20
REMARK    3  A    between atoms: C_6  and  C_17
REMARK    4  A    between atoms: C_28  and  C_32
REMARK                            x       y       z     vdW  Elec       q    Type
REMARK                         _______ _______ _______ _____ _____    ______ ____
ROOT
ATOM      1  O   UNL     1      34.935  -9.652 -24.284  0.00  0.00    -0.270 OA
ATOM      2  N   UNL     1      32.975  -9.911 -23.012  0.00  0.00    -0.280 N 
ATOM      3  C   UNL     1      34.048 -10.347 -23.800  0.00  0.00    +0.249 C 
ATOM      4  H   UNL     1      32.351 -10.610 -22.706  0.00  0.00    +0.155 HD
ENDROOT
BRANCH   2  13
ATOM      5  N   UNL     1      32.102  -3.811 -23.631  0.00  0.00    +0.388 N 
ATOM      6  C   UNL     1      32.108  -5.169 -24.211  0.00  0.00    -0.039 C 
ATOM      7  C   UNL     1      32.271  -6.274 -23.175  0.00  0.00    -0.045 C 
ATOM      8  C   UNL     1      32.055  -6.003 -21.809  0.00  0.00    -0.030 C 
ATOM      9  C   UNL     1      31.723  -4.608 -21.346  0.00  0.00    +0.003 C 
ATOM     10  C   UNL     1      31.198  -3.737 -22.485  0.00  0.00    -0.076 C 
ATOM     11  C   UNL     1      32.559  -7.594 -23.560  0.00  0.00    +0.008 C 
ATOM     12  C   UNL     1      32.191  -7.026 -20.859  0.00  0.00    -0.003 C 
ATOM     13  C   UNL     1      32.680  -8.609 -22.608  0.00  0.00    +0.050 C 
ATOM     14  C   UNL     1      32.502  -8.324 -21.258  0.00  0.00    +0.014 C 
ATOM     15  H   UNL     1      31.794  -3.147 -24.342  0.00  0.00    -0.084 HD
ATOM     16  H   UNL     1      33.045  -3.587 -23.317  0.00  0.00    -0.084 HD
BRANCH   6  17
ATOM     17  C   UNL     1      33.202  -5.181 -25.287  0.00  0.00    -0.015 C 
ATOM     18  C   UNL     1      33.044  -3.983 -26.217  0.00  0.00    -0.002 C 
ATOM     19  C   UNL     1      34.582  -5.187 -24.639  0.00  0.00    -0.002 C 
ENDBRANCH   6  17
ENDBRANCH   2  13
BRANCH   3  20
ATOM     20  C   UNL     1      34.076 -11.805 -24.086  0.00  0.00    +0.054 C 
ATOM     21  C   UNL     1      34.573 -14.046 -23.367  0.00  0.00    +0.000 C 
ATOM     22  C   UNL     1      34.540 -12.665 -23.112  0.00  0.00    +0.005 C 
ATOM     23  C   UNL     1      34.130 -14.530 -24.621  0.00  0.00    +0.000 C 
ATOM     24  C   UNL     1      33.640 -12.250 -25.313  0.00  0.00    +0.005 C 
ATOM     25  C   UNL     1      33.666 -13.618 -25.584  0.00  0.00    +0.000 C 
ATOM     26  C   UNL     1      34.164 -15.910 -24.876  0.00  0.00    +0.003 C 
ATOM     27  C   UNL     1      35.037 -14.957 -22.405  0.00  0.00    +0.000 C 
ATOM     28  C   UNL     1      34.627 -16.801 -23.908  0.00  0.00    +0.031 C 
ATOM     29  C   UNL     1      35.063 -16.325 -22.674  0.00  0.00    +0.003 C 
BRANCH  28  32
ATOM     30  N   UNL     1      35.593 -19.066 -23.585  0.00  0.00    -0.343 N 
ATOM     31  N   UNL     1      33.784 -18.751 -25.030  0.00  0.00    -0.285 NA
ATOM     32  C   UNL     1      34.657 -18.228 -24.187  0.00  0.00    +0.117 C 
ATOM     33  H   UNL     1      35.595 -20.029 -23.788  0.00  0.00    +0.144 HD
ATOM     34  H   UNL     1      36.253 -18.694 -22.956  0.00  0.00    +0.144 HD
ATOM     35  H   UNL     1      33.802 -19.717 -25.220  0.00  0.00    +0.188 HD
ENDBRANCH  28  32
ENDBRANCH   3  20
TORSDOF 4
ENDMDL
MODEL 6
REMARK VINA RESULT:     -10.3      3.368     11.236
REMARK  Name = 447736
REMARK  4 active torsions:
REMARK  status: ('A' for Active; 'I' for Inactive)
REMARK    1  A    between atoms: N_2  and  C_13
REMARK    2  A    between atoms: C_3  and  C_20
REMARK    3  A    between atoms: C_6  and  C_17
REMARK    4  A    between atoms: C_28  and  C_32
REMARK                            x       y       z     vdW  Elec       q    Type
REMARK                         _______ _______ _______ _____ _____    ______ ____
ROOT
ATOM      1  O   UNL     1      35.009 -19.538 -22.859  0.00  0.00    -0.270 OA
ATOM      2  N   UNL     1      35.121 -17.654 -21.457  0.00  0.00    -0.280 N 
ATOM      3  C   UNL     1      35.131 -19.024 -21.753  0.00  0.00    +0.249 C 
ATOM      4  H   UNL     1      35.232 -17.416 -20.507  0.00  0.00    +0.155 HD
ENDROOT
BRANCH   2  13
ATOM      5  N   UNL     1      33.371 -12.022 -23.347  0.00  0.00    +0.388 N 
ATOM      6  C   UNL     1      33.757 -12.946 -22.262  0.00  0.00    -0.039 C 
ATOM      7  C   UNL     1      34.290 -14.284 -22.760  0.00  0.00    -0.045 C 
ATOM      8  C   UNL     1      34.701 -14.429 -24.101  0.00  0.00    -0.030 C 
ATOM      9  C   UNL     1      34.562 -13.287 -25.075  0.00  0.00    +0.003 C 
ATOM     10  C   UNL     1      34.418 -11.944 -24.364  0.00  0.00    -0.076 C 
ATOM     11  C   UNL     1      34.457 -15.370 -21.885  0.00  0.00    +0.008 C 
ATOM     12  C   UNL     1      35.205 -15.658 -24.552  0.00  0.00    -0.003 C 
ATOM     13  C   UNL     1      34.971 -16.585 -22.342  0.00  0.00    +0.050 C 
ATOM     14  C   UNL     1      35.339 -16.732 -23.675  0.00  0.00    +0.014 C 
ATOM     15  H   UNL     1      33.217 -11.093 -22.956  0.00  0.00    -0.084 HD
ATOM     16  H   UNL     1      32.519 -12.372 -23.785  0.00  0.00    -0.084 HD
BRANCH   6  17
ATOM     17  C   UNL     1      32.533 -13.083 -21.348  0.00  0.00    -0.015 C 
ATOM     18  C   UNL     1      32.959 -13.536 -19.956  0.00  0.00    -0.002 C 
ATOM     19  C   UNL     1      31.772 -11.764 -21.280  0.00  0.00    -0.002 C 
ENDBRANCH   6  17
ENDBRANCH   2  13
BRANCH   3  20
ATOM     20  C   UNL     1      35.281 -19.926 -20.581  0.00  0.00    +0.054 C 
ATOM     21  C   UNL     1      34.277 -21.363 -18.935  0.00  0.00    +0.000 C 
ATOM     22  C   UNL     1      34.152 -20.509 -20.043  0.00  0.00    +0.005 C 
ATOM     23  C   UNL     1      35.560 -21.610 -18.391  0.00  0.00    +0.000 C 
ATOM     24  C   UNL     1      36.539 -20.149 -20.072  0.00  0.00    +0.005 C 
ATOM     25  C   UNL     1      36.682 -20.995 -18.971  0.00  0.00    +0.000 C 
ATOM     26  C   UNL     1      35.684 -22.464 -17.284  0.00  0.00    +0.003 C 
ATOM     27  C   UNL     1      33.156 -21.978 -18.355  0.00  0.00    +0.000 C 
ATOM     28  C   UNL     1      34.560 -23.067 -16.720  0.00  0.00    +0.031 C 
ATOM     29  C   UNL     1      33.298 -22.824 -17.255  0.00  0.00    +0.003 C 
BRANCH  28  32
ATOM     30  N   UNL     1      33.690 -24.081 -14.627  0.00  0.00    -0.343 N 
ATOM     31  N   UNL     1      35.819 -24.640 -15.411  0.00  0.00    -0.285 NA
ATOM     32  C   UNL     1      34.705 -23.949 -15.573  0.00  0.00    +0.117 C 
ATOM     33  H   UNL     1      33.809 -24.685 -13.858  0.00  0.00    +0.144 HD
ATOM     34  H   UNL     1      32.853 -23.572 -14.729  0.00  0.00    +0.144 HD
ATOM     35  H   UNL     1      35.919 -25.238 -14.635  0.00  0.00    +0.188 HD
ENDBRANCH  28  32
ENDBRANCH   3  20
TORSDOF 4
ENDMDL
MODEL 7
REMARK VINA RESULT:     -10.3      9.704     16.461
REMARK  Name = 447736
REMARK  4 active torsions:
REMARK  status: ('A' for Active; 'I' for Inactive)
REMARK    1  A    between atoms: N_2  and  C_13
REMARK    2  A    between atoms: C_3  and  C_20
REMARK    3  A    between atoms: C_6  and  C_17
REMARK    4  A    between atoms: C_28  and  C_32
REMARK                            x       y       z     vdW  Elec       q    Type
REMARK                         _______ _______ _______ _____ _____    ______ ____
ROOT
ATOM      1  O   UNL     1      30.691  -9.846 -22.112  0.00  0.00    -0.270 OA
ATOM      2  N   UNL     1      32.808  -8.825 -22.050  0.00  0.00    -0.280 N 
ATOM      3  C   UNL     1      31.912  -9.903 -22.023  0.00  0.00    +0.249 C 
ATOM      4  H   UNL     1      33.762  -9.054 -21.965  0.00  0.00    +0.155 HD
ENDROOT
BRANCH   2  13
ATOM      5  N   UNL     1      32.325  -3.353 -24.909  0.00  0.00    +0.388 N 
ATOM      6  C   UNL     1      32.359  -4.828 -24.965  0.00  0.00    -0.039 C 
ATOM      7  C   UNL     1      32.307  -5.492 -23.595  0.00  0.00    -0.045 C 
ATOM      8  C   UNL     1      31.893  -4.756 -22.465  0.00  0.00    -0.030 C 
ATOM      9  C   UNL     1      31.558  -3.291 -22.583  0.00  0.00    +0.003 C 
ATOM     10  C   UNL     1      31.258  -2.888 -24.024  0.00  0.00    -0.076 C 
ATOM     11  C   UNL     1      32.590  -6.859 -23.438  0.00  0.00    +0.008 C 
ATOM     12  C   UNL     1      31.832  -5.374 -21.208  0.00  0.00    -0.003 C 
ATOM     13  C   UNL     1      32.514  -7.468 -22.184  0.00  0.00    +0.050 C 
ATOM     14  C   UNL     1      32.142  -6.725 -21.069  0.00  0.00    +0.014 C 
ATOM     15  H   UNL     1      32.163  -2.987 -25.848  0.00  0.00    -0.084 HD
ATOM     16  H   UNL     1      33.218  -3.020 -24.545  0.00  0.00    -0.084 HD
BRANCH   6  17
ATOM     17  C   UNL     1      33.606  -5.207 -25.775  0.00  0.00    -0.015 C 
ATOM     18  C   UNL     1      33.773  -4.265 -26.962  0.00  0.00    -0.002 C 
ATOM     19  C   UNL     1      34.843  -5.184 -24.885  0.00  0.00    -0.002 C 
ENDBRANCH   6  17
ENDBRANCH   2  13
BRANCH   3  20
ATOM     20  C   UNL     1      32.532 -11.241 -21.838  0.00  0.00    +0.054 C 
ATOM     21  C   UNL     1      33.862 -13.043 -22.715  0.00  0.00    +0.000 C 
ATOM     22  C   UNL     1      33.270 -11.779 -22.873  0.00  0.00    +0.005 C 
ATOM     23  C   UNL     1      33.690 -13.742 -21.496  0.00  0.00    +0.000 C 
ATOM     24  C   UNL     1      32.350 -11.898 -20.645  0.00  0.00    +0.005 C 
ATOM     25  C   UNL     1      32.930 -13.155 -20.470  0.00  0.00    +0.000 C 
ATOM     26  C   UNL     1      34.281 -15.005 -21.339  0.00  0.00    +0.003 C 
ATOM     27  C   UNL     1      34.621 -13.629 -23.741  0.00  0.00    +0.000 C 
ATOM     28  C   UNL     1      35.033 -15.572 -22.368  0.00  0.00    +0.031 C 
ATOM     29  C   UNL     1      35.202 -14.885 -23.567  0.00  0.00    +0.003 C 
BRANCH  28  32
ATOM     30  N   UNL     1      35.686 -17.495 -20.938  0.00  0.00    -0.343 N 
ATOM     31  N   UNL     1      36.160 -17.513 -23.227  0.00  0.00    -0.285 NA
ATOM     32  C   UNL     1      35.638 -16.882 -22.189  0.00  0.00    +0.117 C 
ATOM     33  H   UNL     1      36.100 -18.383 -20.840  0.00  0.00    +0.144 HD
ATOM     34  H   UNL     1      35.304 -17.040 -20.153  0.00  0.00    +0.144 HD
ATOM     35  H   UNL     1      36.570 -18.400 -23.108  0.00  0.00    +0.188 HD
ENDBRANCH  28  32
ENDBRANCH   3  20
TORSDOF 4
ENDMDL
MODEL 8
REMARK VINA RESULT:     -10.3      2.289     10.357
REMARK  Name = 447736
REMARK  4 active torsions:
REMARK  status: ('A' for Active; 'I' for Inactive)
REMARK    1  A    between atoms: N_2  and  C_13
REMARK    2  A    between atoms: C_3  and  C_20
REMARK    3  A    between atoms: C_6  and  C_17
REMARK    4  A    between atoms: C_28  and  C_32
REMARK                            x       y       z     vdW  Elec       q    Type
REMARK                         _______ _______ _______ _____ _____    ______ ____
ROOT
ATOM      1  O   UNL     1      32.968 -20.656 -20.418  0.00  0.00    -0.270 OA
ATOM      2  N   UNL     1      35.147 -19.781 -20.539  0.00  0.00    -0.280 N 
ATOM      3  C   UNL     1      34.120 -20.572 -20.007  0.00  0.00    +0.249 C 
ATOM      4  H   UNL     1      36.016 -19.836 -20.081  0.00  0.00    +0.155 HD
ENDROOT
BRANCH   2  13
ATOM      5  N   UNL     1      34.697 -14.382 -23.540  0.00  0.00    +0.388 N 
ATOM      6  C   UNL     1      35.069 -15.150 -22.335  0.00  0.00    -0.039 C 
ATOM      7  C   UNL     1      35.030 -16.660 -22.537  0.00  0.00    -0.045 C 
ATOM      8  C   UNL     1      35.005 -17.201 -23.839  0.00  0.00    -0.030 C 
ATOM      9  C   UNL     1      34.954 -16.298 -25.045  0.00  0.00    +0.003 C 
ATOM     10  C   UNL     1      35.409 -14.879 -24.717  0.00  0.00    -0.076 C 
ATOM     11  C   UNL     1      35.097 -17.541 -21.446  0.00  0.00    +0.008 C 
ATOM     12  C   UNL     1      34.984 -18.591 -24.022  0.00  0.00    -0.003 C 
ATOM     13  C   UNL     1      35.088 -18.924 -21.639  0.00  0.00    +0.050 C 
ATOM     14  C   UNL     1      35.025 -19.449 -22.925  0.00  0.00    +0.014 C 
ATOM     15  H   UNL     1      34.935 -13.401 -23.396  0.00  0.00    -0.084 HD
ATOM     16  H   UNL     1      33.695 -14.488 -23.697  0.00  0.00    -0.084 HD
BRANCH   6  17
ATOM     17  C   UNL     1      34.151 -14.666 -21.206  0.00  0.00    -0.015 C 
ATOM     18  C   UNL     1      34.978 -14.138 -20.039  0.00  0.00    -0.002 C 
ATOM     19  C   UNL     1      33.196 -13.595 -21.722  0.00  0.00    -0.002 C 
ENDBRANCH   6  17
ENDBRANCH   2  13
BRANCH   3  20
ATOM     20  C   UNL     1      34.486 -21.363 -18.803  0.00  0.00    +0.054 C 
ATOM     21  C   UNL     1      36.149 -22.052 -17.206  0.00  0.00    +0.000 C 
ATOM     22  C   UNL     1      35.786 -21.309 -18.343  0.00  0.00    +0.005 C 
ATOM     23  C   UNL     1      35.172 -22.843 -16.555  0.00  0.00    +0.000 C 
ATOM     24  C   UNL     1      33.519 -22.124 -18.189  0.00  0.00    +0.005 C 
ATOM     25  C   UNL     1      33.861 -22.868 -17.059  0.00  0.00    +0.000 C 
ATOM     26  C   UNL     1      35.535 -23.584 -15.420  0.00  0.00    +0.003 C 
ATOM     27  C   UNL     1      37.459 -22.026 -16.703  0.00  0.00    +0.000 C 
ATOM     28  C   UNL     1      36.841 -23.547 -14.933  0.00  0.00    +0.031 C 
ATOM     29  C   UNL     1      37.802 -22.769 -15.573  0.00  0.00    +0.003 C 
BRANCH  28  32
ATOM     30  N   UNL     1      36.440 -25.416 -13.348  0.00  0.00    -0.343 N 
ATOM     31  N   UNL     1      38.268 -23.990 -13.051  0.00  0.00    -0.285 NA
ATOM     32  C   UNL     1      37.201 -24.322 -13.756  0.00  0.00    +0.117 C 
ATOM     33  H   UNL     1      36.703 -25.928 -12.548  0.00  0.00    +0.144 HD
ATOM     34  H   UNL     1      35.641 -25.678 -13.859  0.00  0.00    +0.144 HD
ATOM     35  H   UNL     1      38.513 -24.514 -12.254  0.00  0.00    +0.188 HD
ENDBRANCH  28  32
ENDBRANCH   3  20
TORSDOF 4
ENDMDL
MODEL 9
REMARK VINA RESULT:     -10.2      2.941     10.521
REMARK  Name = 447736
REMARK  4 active torsions:
REMARK  status: ('A' for Active; 'I' for Inactive)
REMARK    1  A    between atoms: N_2  and  C_13
REMARK    2  A    between atoms: C_3  and  C_20
REMARK    3  A    between atoms: C_6  and  C_17
REMARK    4  A    between atoms: C_28  and  C_32
REMARK                            x       y       z     vdW  Elec       q    Type
REMARK                         _______ _______ _______ _____ _____    ______ ____
ROOT
ATOM      1  O   UNL     1      37.183 -20.764 -20.412  0.00  0.00    -0.270 OA
ATOM      2  N   UNL     1      35.078 -19.720 -20.337  0.00  0.00    -0.280 N 
ATOM      3  C   UNL     1      36.098 -20.562 -19.876  0.00  0.00    +0.249 C 
ATOM      4  H   UNL     1      34.268 -19.677 -19.778  0.00  0.00    +0.155 HD
ENDROOT
BRANCH   2  13
ATOM      5  N   UNL     1      34.782 -14.520 -23.688  0.00  0.00    +0.388 N 
ATOM      6  C   UNL     1      35.102 -15.212 -22.423  0.00  0.00    -0.039 C 
ATOM      7  C   UNL     1      35.060 -16.731 -22.531  0.00  0.00    -0.045 C 
ATOM      8  C   UNL     1      35.082 -17.354 -23.796  0.00  0.00    -0.030 C 
ATOM      9  C   UNL     1      35.084 -16.529 -25.058  0.00  0.00    +0.003 C 
ATOM     10  C   UNL     1      35.535 -15.094 -24.802  0.00  0.00    -0.076 C 
ATOM     11  C   UNL     1      35.078 -17.542 -21.384  0.00  0.00    +0.008 C 
ATOM     12  C   UNL     1      35.059 -18.753 -23.891  0.00  0.00    -0.003 C 
ATOM     13  C   UNL     1      35.067 -18.934 -21.490  0.00  0.00    +0.050 C 
ATOM     14  C   UNL     1      35.051 -19.539 -22.742  0.00  0.00    +0.014 C 
ATOM     15  H   UNL     1      35.021 -13.533 -23.598  0.00  0.00    -0.084 HD
ATOM     16  H   UNL     1      33.786 -14.632 -23.878  0.00  0.00    -0.084 HD
BRANCH   6  17
ATOM     17  C   UNL     1      34.143 -14.653 -21.364  0.00  0.00    -0.015 C 
ATOM     18  C   UNL     1      34.926 -14.129 -20.165  0.00  0.00    -0.002 C 
ATOM     19  C   UNL     1      33.272 -13.556 -21.964  0.00  0.00    -0.002 C 
ENDBRANCH   6  17
ENDBRANCH   2  13
BRANCH   3  20
ATOM     20  C   UNL     1      35.799 -21.296 -18.619  0.00  0.00    +0.054 C 
ATOM     21  C   UNL     1      34.202 -22.399 -17.198  0.00  0.00    +0.000 C 
ATOM     22  C   UNL     1      34.503 -21.705 -18.382  0.00  0.00    +0.005 C 
ATOM     23  C   UNL     1      35.237 -22.665 -16.269  0.00  0.00    +0.000 C 
ATOM     24  C   UNL     1      36.822 -21.541 -17.733  0.00  0.00    +0.005 C 
ATOM     25  C   UNL     1      36.542 -22.228 -16.552  0.00  0.00    +0.000 C 
ATOM     26  C   UNL     1      34.936 -23.358 -15.086  0.00  0.00    +0.003 C 
ATOM     27  C   UNL     1      32.898 -22.835 -16.916  0.00  0.00    +0.000 C 
ATOM     28  C   UNL     1      33.635 -23.784 -14.822  0.00  0.00    +0.031 C 
ATOM     29  C   UNL     1      32.617 -23.523 -15.735  0.00  0.00    +0.003 C 
BRANCH  28  32
ATOM     30  N   UNL     1      32.184 -25.268 -13.457  0.00  0.00    -0.343 N 
ATOM     31  N   UNL     1      34.176 -24.427 -12.570  0.00  0.00    -0.285 NA
ATOM     32  C   UNL     1      33.340 -24.500 -13.591  0.00  0.00    +0.117 C 
ATOM     33  H   UNL     1      32.005 -25.745 -12.615  0.00  0.00    +0.144 HD
ATOM     34  H   UNL     1      31.548 -25.333 -14.206  0.00  0.00    +0.144 HD
ATOM     35  H   UNL     1      33.978 -24.911 -11.736  0.00  0.00    +0.188 HD
ENDBRANCH  28  32
ENDBRANCH   3  20
TORSDOF 4
ENDMDL
