MODEL 1
REMARK VINA RESULT:     -11.2      0.000      0.000
REMARK  Name = 657131
REMARK  7 active torsions:
REMARK  status: ('A' for Active; 'I' for Inactive)
REMARK    1  A    between atoms: C_1  and  CA_2
REMARK    2  A    between atoms: C_1  and  C_3
REMARK    3  A    between atoms: CA_2  and  C_28
REMARK    4  A    between atoms: C_4  and  O_9
REMARK    5  A    between atoms: O_9  and  C_11
REMARK    6  A    between atoms: C_19  and  C_21
REMARK    7  A    between atoms: C_28  and  O_29
REMARK                            x       y       z     vdW  Elec       q    Type
REMARK                         _______ _______ _______ _____ _____    ______ ____
ROOT
ATOM      1  C   UNL     1      35.266 -14.752 -22.723  0.00  0.00    +0.074 C 
ENDROOT
BRANCH   1   2
ATOM      2  C   UNL     1      34.306 -13.682 -22.510  0.00  0.00    -0.016 C 
ATOM      3  C   UNL     1      32.460 -11.631 -22.097  0.00  0.00    +0.145 C 
ATOM      4  C   UNL     1      34.228 -12.622 -23.412  0.00  0.00    -0.001 C 
ATOM      5  C   UNL     1      33.459 -13.718 -21.401  0.00  0.00    -0.001 C 
ATOM      6  C   UNL     1      33.306 -11.596 -23.206  0.00  0.00    +0.037 C 
ATOM      7  C   UNL     1      32.536 -12.692 -21.195  0.00  0.00    +0.037 C 
BRANCH   3   8
ATOM      8  O   UNL     1      31.560 -10.631 -21.897  0.00  0.00    -0.453 OA
BRANCH   8  10
ATOM      9 BR   UNL     1      31.923  -9.965 -18.869  0.00  0.00    -0.046 Br
ATOM     10  C   UNL     1      32.052  -9.355 -21.679  0.00  0.00    +0.151 C 
ATOM     11  C   UNL     1      32.274  -8.894 -20.393  0.00  0.00    +0.069 C 
ATOM     12  C   UNL     1      32.311  -8.566 -22.786  0.00  0.00    +0.038 C 
ATOM     13  C   UNL     1      32.770  -7.603 -20.209  0.00  0.00    +0.010 C 
ATOM     14  C   UNL     1      32.808  -7.275 -22.602  0.00  0.00    +0.003 C 
ATOM     15  C   UNL     1      33.037  -6.794 -21.313  0.00  0.00    +0.001 C 
ENDBRANCH   8  10
ENDBRANCH   3   8
ENDBRANCH   1   2
BRANCH   1  16
ATOM     16  CA  UNL     1      34.977 -16.035 -23.042  0.00  0.00    +0.108 C 
ATOM     17  O   UNL     1      34.395 -18.776 -23.586  0.00  0.00    -0.270 OA
ATOM     18  N   UNL     1      35.046 -17.068 -22.149  0.00  0.00    -0.278 N 
ATOM     19  C   UNL     1      34.749 -18.381 -22.477  0.00  0.00    +0.249 C 
ATOM     20  H   UNL     1      35.320 -16.868 -21.225  0.00  0.00    +0.155 HD
BRANCH  19  21
ATOM     21  C   UNL     1      34.904 -19.368 -21.377  0.00  0.00    +0.054 C 
ATOM     22  C   UNL     1      33.772 -19.931 -20.823  0.00  0.00    +0.005 C 
ATOM     23  C   UNL     1      36.173 -19.691 -20.946  0.00  0.00    +0.005 C 
ATOM     24  C   UNL     1      33.917 -20.857 -19.792  0.00  0.00    +0.000 C 
ATOM     25  C   UNL     1      36.318 -20.618 -19.914  0.00  0.00    +0.000 C 
ATOM     26  C   UNL     1      35.189 -21.201 -19.336  0.00  0.00    +0.000 C 
ENDBRANCH  19  21
BRANCH  16  28
ATOM     27  OXT UNL     1      33.452 -16.229 -24.899  0.00  0.00    -0.244 OA
ATOM     28  C   UNL     1      34.580 -16.340 -24.442  0.00  0.00    +0.348 C 
BRANCH  28  29
ATOM     29  O   UNL     1      35.644 -16.766 -25.165  0.00  0.00    -0.476 OA
ATOM     30  H   UNL     1      35.514 -17.325 -25.905  0.00  0.00    +0.295 HD
ENDBRANCH  28  29
ENDBRANCH  16  28
ENDBRANCH   1  16
TORSDOF 7
ENDMDL
MODEL 2
REMARK VINA RESULT:     -10.7      3.205      9.895
REMARK  Name = 657131
REMARK  7 active torsions:
REMARK  status: ('A' for Active; 'I' for Inactive)
REMARK    1  A    between atoms: C_1  and  CA_2
REMARK    2  A    between atoms: C_1  and  C_3
REMARK    3  A    between atoms: CA_2  and  C_28
REMARK    4  A    between atoms: C_4  and  O_9
REMARK    5  A    between atoms: O_9  and  C_11
REMARK    6  A    between atoms: C_19  and  C_21
REMARK    7  A    between atoms: C_28  and  O_29
REMARK                            x       y       z     vdW  Elec       q    Type
REMARK                         _______ _______ _______ _____ _____    ______ ____
ROOT
ATOM      1  C   UNL     1      31.818 -11.524 -21.323  0.00  0.00    +0.074 C 
ENDROOT
BRANCH   1   2
ATOM      2  C   UNL     1      32.808 -12.519 -21.700  0.00  0.00    -0.016 C 
ATOM      3  C   UNL     1      34.709 -14.427 -22.428  0.00  0.00    +0.145 C 
ATOM      4  C   UNL     1      33.250 -13.456 -20.766  0.00  0.00    -0.001 C 
ATOM      5  C   UNL     1      33.317 -12.537 -23.000  0.00  0.00    -0.001 C 
ATOM      6  C   UNL     1      34.200 -14.410 -21.130  0.00  0.00    +0.037 C 
ATOM      7  C   UNL     1      34.268 -13.491 -23.363  0.00  0.00    +0.037 C 
BRANCH   3   8
ATOM      8  O   UNL     1      35.635 -15.359 -22.783  0.00  0.00    -0.453 OA
BRANCH   8  10
ATOM      9 BR   UNL     1      36.528 -17.879 -21.171  0.00  0.00    -0.046 Br
ATOM     10  C   UNL     1      35.179 -16.544 -23.335  0.00  0.00    +0.151 C 
ATOM     11  C   UNL     1      35.483 -17.760 -22.748  0.00  0.00    +0.069 C 
ATOM     12  C   UNL     1      34.415 -16.466 -24.486  0.00  0.00    +0.038 C 
ATOM     13  C   UNL     1      35.007 -18.935 -23.330  0.00  0.00    +0.010 C 
ATOM     14  C   UNL     1      33.938 -17.641 -25.068  0.00  0.00    +0.003 C 
ATOM     15  C   UNL     1      34.235 -18.875 -24.490  0.00  0.00    +0.001 C 
ENDBRANCH   8  10
ENDBRANCH   3   8
ENDBRANCH   1   2
BRANCH   1  16
ATOM     16  CA  UNL     1      32.069 -10.254 -20.929  0.00  0.00    +0.108 C 
ATOM     17  O   UNL     1      32.643  -7.548 -20.224  0.00  0.00    -0.270 OA
ATOM     18  N   UNL     1      32.602  -9.301 -21.752  0.00  0.00    -0.278 N 
ATOM     19  C   UNL     1      32.857  -8.000 -21.347  0.00  0.00    +0.249 C 
ATOM     20  H   UNL     1      32.814  -9.552 -22.680  0.00  0.00    +0.155 HD
BRANCH  19  21
ATOM     21  C   UNL     1      33.460  -7.115 -22.377  0.00  0.00    +0.054 C 
ATOM     22  C   UNL     1      34.612  -7.525 -23.015  0.00  0.00    +0.005 C 
ATOM     23  C   UNL     1      32.847  -5.914 -22.664  0.00  0.00    +0.005 C 
ATOM     24  C   UNL     1      35.177  -6.695 -23.982  0.00  0.00    +0.000 C 
ATOM     25  C   UNL     1      33.412  -5.083 -23.632  0.00  0.00    +0.000 C 
ATOM     26  C   UNL     1      34.578  -5.474 -24.291  0.00  0.00    +0.000 C 
ENDBRANCH  19  21
BRANCH  16  28
ATOM     27  OXT UNL     1      30.649  -9.657 -19.074  0.00  0.00    -0.244 OA
ATOM     28  C   UNL     1      31.764  -9.881 -19.523  0.00  0.00    +0.348 C 
BRANCH  28  29
ATOM     29  O   UNL     1      32.897  -9.815 -18.783  0.00  0.00    -0.476 OA
ATOM     30  H   UNL     1      33.712 -10.099 -19.148  0.00  0.00    +0.295 HD
ENDBRANCH  28  29
ENDBRANCH  16  28
ENDBRANCH   1  16
TORSDOF 7
ENDMDL
MODEL 3
REMARK VINA RESULT:     -10.6      4.046      9.988
REMARK  Name = 657131
REMARK  7 active torsions:
REMARK  status: ('A' for Active; 'I' for Inactive)
REMARK    1  A    between atoms: C_1  and  CA_2
REMARK    2  A    between atoms: C_1  and  C_3
REMARK    3  A    between atoms: CA_2  and  C_28
REMARK    4  A    between atoms: C_4  and  O_9
REMARK    5  A    between atoms: O_9  and  C_11
REMARK    6  A    between atoms: C_19  and  C_21
REMARK    7  A    between atoms: C_28  and  O_29
REMARK                            x       y       z     vdW  Elec       q    Type
REMARK                         _______ _______ _______ _____ _____    ______ ____
ROOT
ATOM      1  C   UNL     1      35.745 -18.090 -21.426  0.00  0.00    +0.074 C 
ENDROOT
BRANCH   1   2
ATOM      2  C   UNL     1      35.522 -19.327 -20.696  0.00  0.00    -0.016 C 
ATOM      3  C   UNL     1      35.096 -21.702 -19.294  0.00  0.00    +0.145 C 
ATOM      4  C   UNL     1      34.223 -19.787 -20.480  0.00  0.00    -0.001 C 
ATOM      5  C   UNL     1      36.609 -20.056 -20.210  0.00  0.00    -0.001 C 
ATOM      6  C   UNL     1      34.010 -20.975 -19.780  0.00  0.00    +0.037 C 
ATOM      7  C   UNL     1      36.395 -21.243 -19.510  0.00  0.00    +0.037 C 
BRANCH   3   8
ATOM      8  O   UNL     1      34.888 -22.860 -18.612  0.00  0.00    -0.453 OA
BRANCH   8  10
ATOM      9 BR   UNL     1      36.657 -22.649 -16.048  0.00  0.00    -0.046 Br
ATOM     10  C   UNL     1      34.145 -22.797 -17.445  0.00  0.00    +0.151 C 
ATOM     11  C   UNL     1      34.770 -22.700 -16.214  0.00  0.00    +0.069 C 
ATOM     12  C   UNL     1      32.766 -22.833 -17.557  0.00  0.00    +0.038 C 
ATOM     13  C   UNL     1      33.991 -22.637 -15.058  0.00  0.00    +0.010 C 
ATOM     14  C   UNL     1      31.987 -22.770 -16.401  0.00  0.00    +0.003 C 
ATOM     15  C   UNL     1      32.600 -22.673 -15.152  0.00  0.00    +0.001 C 
ENDBRANCH   8  10
ENDBRANCH   3   8
ENDBRANCH   1   2
BRANCH   1  16
ATOM     16  CA  UNL     1      35.216 -17.764 -22.628  0.00  0.00    +0.108 C 
ATOM     17  O   UNL     1      34.110 -16.945 -25.129  0.00  0.00    -0.270 OA
ATOM     18  N   UNL     1      34.982 -16.477 -23.024  0.00  0.00    -0.278 N 
ATOM     19  C   UNL     1      34.441 -16.144 -24.256  0.00  0.00    +0.249 C 
ATOM     20  H   UNL     1      35.210 -15.748 -22.402  0.00  0.00    +0.155 HD
BRANCH  19  21
ATOM     21  C   UNL     1      34.239 -14.692 -24.497  0.00  0.00    +0.054 C 
ATOM     22  C   UNL     1      33.743 -14.283 -25.718  0.00  0.00    +0.005 C 
ATOM     23  C   UNL     1      34.551 -13.801 -23.493  0.00  0.00    +0.005 C 
ATOM     24  C   UNL     1      33.553 -12.921 -25.944  0.00  0.00    +0.000 C 
ATOM     25  C   UNL     1      34.361 -12.437 -23.719  0.00  0.00    +0.000 C 
ATOM     26  C   UNL     1      33.862 -11.997 -24.946  0.00  0.00    +0.000 C 
ENDBRANCH  19  21
BRANCH  16  28
ATOM     27  OXT UNL     1      35.645 -19.513 -24.231  0.00  0.00    -0.244 OA
ATOM     28  C   UNL     1      34.856 -18.865 -23.560  0.00  0.00    +0.348 C 
BRANCH  28  29
ATOM     29  O   UNL     1      33.516 -19.067 -23.575  0.00  0.00    -0.476 OA
ATOM     30  H   UNL     1      32.952 -18.502 -23.085  0.00  0.00    +0.295 HD
ENDBRANCH  28  29
ENDBRANCH  16  28
ENDBRANCH   1  16
TORSDOF 7
ENDMDL
MODEL 4
REMARK VINA RESULT:     -10.5      2.949      9.889
REMARK  Name = 657131
REMARK  7 active torsions:
REMARK  status: ('A' for Active; 'I' for Inactive)
REMARK    1  A    between atoms: C_1  and  CA_2
REMARK    2  A    between atoms: C_1  and  C_3
REMARK    3  A    between atoms: CA_2  and  C_28
REMARK    4  A    between atoms: C_4  and  O_9
REMARK    5  A    between atoms: O_9  and  C_11
REMARK    6  A    between atoms: C_19  and  C_21
REMARK    7  A    between atoms: C_28  and  O_29
REMARK                            x       y       z     vdW  Elec       q    Type
REMARK                         _______ _______ _______ _____ _____    ______ ____
ROOT
ATOM      1  C   UNL     1      31.840 -11.620 -21.244  0.00  0.00    +0.074 C 
ENDROOT
BRANCH   1   2
ATOM      2  C   UNL     1      32.844 -12.575 -21.682  0.00  0.00    -0.016 C 
ATOM      3  C   UNL     1      34.772 -14.407 -22.525  0.00  0.00    +0.145 C 
ATOM      4  C   UNL     1      33.382 -13.489 -20.776  0.00  0.00    -0.001 C 
ATOM      5  C   UNL     1      33.271 -12.578 -23.010  0.00  0.00    -0.001 C 
ATOM      6  C   UNL     1      34.345 -14.406 -21.197  0.00  0.00    +0.037 C 
ATOM      7  C   UNL     1      34.235 -13.494 -23.431  0.00  0.00    +0.037 C 
BRANCH   3   8
ATOM      8  O   UNL     1      35.711 -15.302 -22.936  0.00  0.00    -0.453 OA
BRANCH   8  10
ATOM      9 BR   UNL     1      33.881 -16.596 -25.109  0.00  0.00    -0.046 Br
ATOM     10  C   UNL     1      35.466 -16.646 -22.706  0.00  0.00    +0.151 C 
ATOM     11  C   UNL     1      34.672 -17.377 -23.573  0.00  0.00    +0.069 C 
ATOM     12  C   UNL     1      36.040 -17.224 -21.587  0.00  0.00    +0.038 C 
ATOM     13  C   UNL     1      34.445 -18.728 -23.313  0.00  0.00    +0.010 C 
ATOM     14  C   UNL     1      35.813 -18.576 -21.327  0.00  0.00    +0.003 C 
ATOM     15  C   UNL     1      35.015 -19.327 -22.190  0.00  0.00    +0.001 C 
ENDBRANCH   8  10
ENDBRANCH   3   8
ENDBRANCH   1   2
BRANCH   1  16
ATOM     16  CA  UNL     1      32.063 -10.338 -20.871  0.00  0.00    +0.108 C 
ATOM     17  O   UNL     1      32.580  -7.610 -20.211  0.00  0.00    -0.270 OA
ATOM     18  N   UNL     1      32.599  -9.394 -21.702  0.00  0.00    -0.278 N 
ATOM     19  C   UNL     1      32.826  -8.081 -21.319  0.00  0.00    +0.249 C 
ATOM     20  H   UNL     1      32.836  -9.661 -22.620  0.00  0.00    +0.155 HD
BRANCH  19  21
ATOM     21  C   UNL     1      33.438  -7.208 -22.354  0.00  0.00    +0.054 C 
ATOM     22  C   UNL     1      32.872  -5.974 -22.602  0.00  0.00    +0.005 C 
ATOM     23  C   UNL     1      34.552  -7.657 -23.030  0.00  0.00    +0.005 C 
ATOM     24  C   UNL     1      33.446  -5.154 -23.573  0.00  0.00    +0.000 C 
ATOM     25  C   UNL     1      35.127  -6.837 -24.001  0.00  0.00    +0.000 C 
ATOM     26  C   UNL     1      34.573  -5.585 -24.273  0.00  0.00    +0.000 C 
ENDBRANCH  19  21
BRANCH  16  28
ATOM     27  OXT UNL     1      30.594  -9.720 -19.062  0.00  0.00    -0.244 OA
ATOM     28  C   UNL     1      31.721  -9.941 -19.480  0.00  0.00    +0.348 C 
BRANCH  28  29
ATOM     29  O   UNL     1      32.836  -9.849 -18.715  0.00  0.00    -0.476 OA
ATOM     30  H   UNL     1      33.035 -10.521 -18.095  0.00  0.00    +0.295 HD
ENDBRANCH  28  29
ENDBRANCH  16  28
ENDBRANCH   1  16
TORSDOF 7
ENDMDL
MODEL 5
REMARK VINA RESULT:     -10.4      3.904      9.985
REMARK  Name = 657131
REMARK  7 active torsions:
REMARK  status: ('A' for Active; 'I' for Inactive)
REMARK    1  A    between atoms: C_1  and  CA_2
REMARK    2  A    between atoms: C_1  and  C_3
REMARK    3  A    between atoms: CA_2  and  C_28
REMARK    4  A    between atoms: C_4  and  O_9
REMARK    5  A    between atoms: O_9  and  C_11
REMARK    6  A    between atoms: C_19  and  C_21
REMARK    7  A    between atoms: C_28  and  O_29
REMARK                            x       y       z     vdW  Elec       q    Type
REMARK                         _______ _______ _______ _____ _____    ______ ____
ROOT
ATOM      1  C   UNL     1      35.633 -18.865 -21.600  0.00  0.00    +0.074 C 
ENDROOT
BRANCH   1   2
ATOM      2  C   UNL     1      34.928 -19.822 -20.764  0.00  0.00    -0.016 C 
ATOM      3  C   UNL     1      33.578 -21.662 -19.159  0.00  0.00    +0.145 C 
ATOM      4  C   UNL     1      33.543 -19.742 -20.623  0.00  0.00    -0.001 C 
ATOM      5  C   UNL     1      35.639 -20.824 -20.101  0.00  0.00    -0.001 C 
ATOM      6  C   UNL     1      32.867 -20.661 -19.821  0.00  0.00    +0.037 C 
ATOM      7  C   UNL     1      34.963 -21.744 -19.299  0.00  0.00    +0.037 C 
BRANCH   3   8
ATOM      8  O   UNL     1      32.919 -22.560 -18.377  0.00  0.00    -0.453 OA
BRANCH   8  10
ATOM      9 BR   UNL     1      30.608 -22.795 -16.291  0.00  0.00    -0.046 Br
ATOM     10  C   UNL     1      33.375 -22.744 -17.082  0.00  0.00    +0.151 C 
ATOM     11  C   UNL     1      32.484 -22.868 -16.030  0.00  0.00    +0.069 C 
ATOM     12  C   UNL     1      34.744 -22.799 -16.883  0.00  0.00    +0.038 C 
ATOM     13  C   UNL     1      32.977 -23.053 -14.739  0.00  0.00    +0.010 C 
ATOM     14  C   UNL     1      35.236 -22.984 -15.591  0.00  0.00    +0.003 C 
ATOM     15  C   UNL     1      34.353 -23.110 -14.519  0.00  0.00    +0.001 C 
ENDBRANCH   8  10
ENDBRANCH   3   8
ENDBRANCH   1   2
BRANCH   1  16
ATOM     16  CA  UNL     1      35.169 -18.305 -22.742  0.00  0.00    +0.108 C 
ATOM     17  O   UNL     1      34.202 -17.004 -25.091  0.00  0.00    -0.270 OA
ATOM     18  N   UNL     1      34.990 -16.960 -22.903  0.00  0.00    -0.278 N 
ATOM     19  C   UNL     1      34.515 -16.389 -24.074  0.00  0.00    +0.249 C 
ATOM     20  H   UNL     1      35.209 -16.366 -22.149  0.00  0.00    +0.155 HD
BRANCH  19  21
ATOM     21  C   UNL     1      34.365 -14.910 -24.051  0.00  0.00    +0.054 C 
ATOM     22  C   UNL     1      34.706 -14.225 -22.903  0.00  0.00    +0.005 C 
ATOM     23  C   UNL     1      33.894 -14.272 -25.179  0.00  0.00    +0.005 C 
ATOM     24  C   UNL     1      34.566 -12.838 -22.882  0.00  0.00    +0.000 C 
ATOM     25  C   UNL     1      33.754 -12.884 -25.157  0.00  0.00    +0.000 C 
ATOM     26  C   UNL     1      34.090 -12.167 -24.008  0.00  0.00    +0.000 C 
ENDBRANCH  19  21
BRANCH  16  28
ATOM     27  OXT UNL     1      35.621 -19.814 -24.567  0.00  0.00    -0.244 OA
ATOM     28  C   UNL     1      34.821 -19.204 -23.874  0.00  0.00    +0.348 C 
BRANCH  28  29
ATOM     29  O   UNL     1      33.479 -19.265 -24.048  0.00  0.00    -0.476 OA
ATOM     30  H   UNL     1      33.008 -18.504 -24.326  0.00  0.00    +0.295 HD
ENDBRANCH  28  29
ENDBRANCH  16  28
ENDBRANCH   1  16
TORSDOF 7
ENDMDL
MODEL 6
REMARK VINA RESULT:     -10.4      3.181      9.581
REMARK  Name = 657131
REMARK  7 active torsions:
REMARK  status: ('A' for Active; 'I' for Inactive)
REMARK    1  A    between atoms: C_1  and  CA_2
REMARK    2  A    between atoms: C_1  and  C_3
REMARK    3  A    between atoms: CA_2  and  C_28
REMARK    4  A    between atoms: C_4  and  O_9
REMARK    5  A    between atoms: O_9  and  C_11
REMARK    6  A    between atoms: C_19  and  C_21
REMARK    7  A    between atoms: C_28  and  O_29
REMARK                            x       y       z     vdW  Elec       q    Type
REMARK                         _______ _______ _______ _____ _____    ______ ____
ROOT
ATOM      1  C   UNL     1      36.292 -17.071 -22.159  0.00  0.00    +0.074 C 
ENDROOT
BRANCH   1   2
ATOM      2  C   UNL     1      35.988 -18.297 -21.440  0.00  0.00    -0.016 C 
ATOM      3  C   UNL     1      35.402 -20.648 -20.058  0.00  0.00    +0.145 C 
ATOM      4  C   UNL     1      37.017 -19.044 -20.866  0.00  0.00    -0.001 C 
ATOM      5  C   UNL     1      34.665 -18.725 -21.321  0.00  0.00    -0.001 C 
ATOM      6  C   UNL     1      36.724 -20.220 -20.175  0.00  0.00    +0.037 C 
ATOM      7  C   UNL     1      34.373 -19.901 -20.630  0.00  0.00    +0.037 C 
BRANCH   3   8
ATOM      8  O   UNL     1      35.117 -21.795 -19.383  0.00  0.00    -0.453 OA
BRANCH   8  10
ATOM      9 BR   UNL     1      33.035 -22.925 -17.349  0.00  0.00    -0.046 Br
ATOM     10  C   UNL     1      35.631 -21.935 -18.104  0.00  0.00    +0.151 C 
ATOM     11  C   UNL     1      34.843 -22.424 -17.076  0.00  0.00    +0.069 C 
ATOM     12  C   UNL     1      36.950 -21.572 -17.897  0.00  0.00    +0.038 C 
ATOM     13  C   UNL     1      35.392 -22.553 -15.800  0.00  0.00    +0.010 C 
ATOM     14  C   UNL     1      37.499 -21.701 -16.621  0.00  0.00    +0.003 C 
ATOM     15  C   UNL     1      36.720 -22.191 -15.573  0.00  0.00    +0.001 C 
ENDBRANCH   8  10
ENDBRANCH   3   8
ENDBRANCH   1   2
BRANCH   1  16
ATOM     16  CA  UNL     1      35.412 -16.311 -22.853  0.00  0.00    +0.108 C 
ATOM     17  O   UNL     1      33.544 -14.629 -24.206  0.00  0.00    -0.270 OA
ATOM     18  N   UNL     1      34.784 -15.216 -22.328  0.00  0.00    -0.278 N 
ATOM     19  C   UNL     1      33.884 -14.439 -23.040  0.00  0.00    +0.249 C 
ATOM     20  H   UNL     1      34.982 -14.968 -21.396  0.00  0.00    +0.155 HD
BRANCH  19  21
ATOM     21  C   UNL     1      33.286 -13.303 -22.292  0.00  0.00    +0.054 C 
ATOM     22  C   UNL     1      33.161 -12.083 -22.923  0.00  0.00    +0.005 C 
ATOM     23  C   UNL     1      32.872 -13.506 -20.992  0.00  0.00    +0.005 C 
ATOM     24  C   UNL     1      32.599 -11.017 -22.222  0.00  0.00    +0.000 C 
ATOM     25  C   UNL     1      32.310 -12.439 -20.291  0.00  0.00    +0.000 C 
ATOM     26  C   UNL     1      32.173 -11.194 -20.906  0.00  0.00    +0.000 C 
ENDBRANCH  19  21
BRANCH  16  28
ATOM     27  OXT UNL     1      34.330 -17.583 -24.592  0.00  0.00    -0.244 OA
ATOM     28  C   UNL     1      35.102 -16.698 -24.255  0.00  0.00    +0.348 C 
BRANCH  28  29
ATOM     29  O   UNL     1      35.795 -15.933 -25.132  0.00  0.00    -0.476 OA
ATOM     30  H   UNL     1      35.364 -15.240 -25.592  0.00  0.00    +0.295 HD
ENDBRANCH  28  29
ENDBRANCH  16  28
ENDBRANCH   1  16
TORSDOF 7
ENDMDL
MODEL 7
REMARK VINA RESULT:     -10.3      1.736      2.556
REMARK  Name = 657131
REMARK  7 active torsions:
REMARK  status: ('A' for Active; 'I' for Inactive)
REMARK    1  A    between atoms: C_1  and  CA_2
REMARK    2  A    between atoms: C_1  and  C_3
REMARK    3  A    between atoms: CA_2  and  C_28
REMARK    4  A    between atoms: C_4  and  O_9
REMARK    5  A    between atoms: O_9  and  C_11
REMARK    6  A    between atoms: C_19  and  C_21
REMARK    7  A    between atoms: C_28  and  O_29
REMARK                            x       y       z     vdW  Elec       q    Type
REMARK                         _______ _______ _______ _____ _____    ______ ____
ROOT
ATOM      1  C   UNL     1      35.391 -15.846 -21.462  0.00  0.00    +0.074 C 
ENDROOT
BRANCH   1   2
ATOM      2  C   UNL     1      34.780 -14.684 -22.085  0.00  0.00    -0.016 C 
ATOM      3  C   UNL     1      33.610 -12.452 -23.283  0.00  0.00    +0.145 C 
ATOM      4  C   UNL     1      33.918 -13.869 -21.351  0.00  0.00    -0.001 C 
ATOM      5  C   UNL     1      35.057 -14.382 -23.419  0.00  0.00    -0.001 C 
ATOM      6  C   UNL     1      33.333 -12.753 -21.949  0.00  0.00    +0.037 C 
ATOM      7  C   UNL     1      34.472 -13.266 -24.017  0.00  0.00    +0.037 C 
BRANCH   3   8
ATOM      8  O   UNL     1      33.040 -11.363 -23.866  0.00  0.00    -0.453 OA
BRANCH   8  10
ATOM      9 BR   UNL     1      31.705  -9.125 -22.148  0.00  0.00    -0.046 Br
ATOM     10  C   UNL     1      33.760 -10.180 -23.865  0.00  0.00    +0.151 C 
ATOM     11  C   UNL     1      33.311  -9.081 -23.153  0.00  0.00    +0.069 C 
ATOM     12  C   UNL     1      34.934 -10.140 -24.597  0.00  0.00    +0.038 C 
ATOM     13  C   UNL     1      34.061  -7.905 -23.173  0.00  0.00    +0.010 C 
ATOM     14  C   UNL     1      35.684  -8.963 -24.616  0.00  0.00    +0.003 C 
ATOM     15  C   UNL     1      35.247  -7.846 -23.905  0.00  0.00    +0.001 C 
ENDBRANCH   8  10
ENDBRANCH   3   8
ENDBRANCH   1   2
BRANCH   1  16
ATOM     16  CA  UNL     1      35.213 -17.137 -21.828  0.00  0.00    +0.108 C 
ATOM     17  O   UNL     1      34.824 -19.891 -22.470  0.00  0.00    -0.270 OA
ATOM     18  N   UNL     1      35.015 -18.154 -20.936  0.00  0.00    -0.278 N 
ATOM     19  C   UNL     1      34.832 -19.475 -21.314  0.00  0.00    +0.249 C 
ATOM     20  H   UNL     1      35.002 -17.936 -19.976  0.00  0.00    +0.155 HD
BRANCH  19  21
ATOM     21  C   UNL     1      34.656 -20.442 -20.199  0.00  0.00    +0.054 C 
ATOM     22  C   UNL     1      35.776 -20.946 -19.573  0.00  0.00    +0.005 C 
ATOM     23  C   UNL     1      33.378 -20.800 -19.825  0.00  0.00    +0.005 C 
ATOM     24  C   UNL     1      35.611 -21.853 -18.527  0.00  0.00    +0.000 C 
ATOM     25  C   UNL     1      33.213 -21.708 -18.778  0.00  0.00    +0.000 C 
ATOM     26  C   UNL     1      34.330 -22.234 -18.129  0.00  0.00    +0.000 C 
ENDBRANCH  19  21
BRANCH  16  28
ATOM     27  OXT UNL     1      34.301 -17.399 -24.045  0.00  0.00    -0.244 OA
ATOM     28  C   UNL     1      35.250 -17.467 -23.277  0.00  0.00    +0.348 C 
BRANCH  28  29
ATOM     29  O   UNL     1      36.490 -17.864 -23.651  0.00  0.00    -0.476 OA
ATOM     30  H   UNL     1      36.594 -18.488 -24.343  0.00  0.00    +0.295 HD
ENDBRANCH  28  29
ENDBRANCH  16  28
ENDBRANCH   1  16
TORSDOF 7
ENDMDL
MODEL 8
REMARK VINA RESULT:     -10.2      5.631      9.351
REMARK  Name = 657131
REMARK  7 active torsions:
REMARK  status: ('A' for Active; 'I' for Inactive)
REMARK    1  A    between atoms: C_1  and  CA_2
REMARK    2  A    between atoms: C_1  and  C_3
REMARK    3  A    between atoms: CA_2  and  C_28
REMARK    4  A    between atoms: C_4  and  O_9
REMARK    5  A    between atoms: O_9  and  C_11
REMARK    6  A    between atoms: C_19  and  C_21
REMARK    7  A    between atoms: C_28  and  O_29
REMARK                            x       y       z     vdW  Elec       q    Type
REMARK                         _______ _______ _______ _____ _____    ______ ____
ROOT
ATOM      1  C   UNL     1      34.206 -22.919 -18.558  0.00  0.00    +0.074 C 
ENDROOT
BRANCH   1   2
ATOM      2  C   UNL     1      34.673 -21.727 -19.246  0.00  0.00    -0.016 C 
ATOM      3  C   UNL     1      35.572 -19.440 -20.567  0.00  0.00    +0.145 C 
ATOM      4  C   UNL     1      33.760 -20.876 -19.869  0.00  0.00    -0.001 C 
ATOM      5  C   UNL     1      36.037 -21.433 -19.285  0.00  0.00    -0.001 C 
ATOM      6  C   UNL     1      34.209 -19.732 -20.529  0.00  0.00    +0.037 C 
ATOM      7  C   UNL     1      36.486 -20.290 -19.945  0.00  0.00    +0.037 C 
BRANCH   3   8
ATOM      8  O   UNL     1      36.010 -18.324 -21.211  0.00  0.00    -0.453 OA
BRANCH   8  10
ATOM      9 BR   UNL     1      35.099 -15.363 -21.604  0.00  0.00    -0.046 Br
ATOM     10  C   UNL     1      35.513 -18.074 -22.479  0.00  0.00    +0.151 C 
ATOM     11  C   UNL     1      35.063 -16.812 -22.826  0.00  0.00    +0.069 C 
ATOM     12  C   UNL     1      35.483 -19.126 -23.378  0.00  0.00    +0.038 C 
ATOM     13  C   UNL     1      34.568 -16.595 -24.112  0.00  0.00    +0.010 C 
ATOM     14  C   UNL     1      34.988 -18.909 -24.665  0.00  0.00    +0.003 C 
ATOM     15  C   UNL     1      34.531 -17.643 -25.031  0.00  0.00    +0.001 C 
ENDBRANCH   8  10
ENDBRANCH   3   8
ENDBRANCH   1   2
BRANCH   1  16
ATOM     16  CA  UNL     1      33.671 -22.967 -17.315  0.00  0.00    +0.108 C 
ATOM     17  O   UNL     1      32.420 -23.054 -14.751  0.00  0.00    -0.270 OA
ATOM     18  N   UNL     1      32.331 -22.858 -17.067  0.00  0.00    -0.278 N 
ATOM     19  C   UNL     1      31.785 -22.909 -15.794  0.00  0.00    +0.249 C 
ATOM     20  H   UNL     1      31.723 -22.738 -17.832  0.00  0.00    +0.155 HD
BRANCH  19  21
ATOM     21  C   UNL     1      30.309 -22.749 -15.723  0.00  0.00    +0.054 C 
ATOM     22  C   UNL     1      29.548 -23.111 -16.814  0.00  0.00    +0.005 C 
ATOM     23  C   UNL     1      29.749 -22.247 -14.567  0.00  0.00    +0.005 C 
ATOM     24  C   UNL     1      28.163 -22.962 -16.747  0.00  0.00    +0.000 C 
ATOM     25  C   UNL     1      28.364 -22.098 -14.500  0.00  0.00    +0.000 C 
ATOM     26  C   UNL     1      27.571 -22.455 -15.591  0.00  0.00    +0.000 C 
ENDBRANCH  19  21
BRANCH  16  28
ATOM     27  OXT UNL     1      35.188 -22.227 -15.594  0.00  0.00    -0.244 OA
ATOM     28  C   UNL     1      34.592 -23.131 -16.159  0.00  0.00    +0.348 C 
BRANCH  28  29
ATOM     29  O   UNL     1      34.692 -24.434 -15.802  0.00  0.00    -0.476 OA
ATOM     30  H   UNL     1      34.167 -25.079 -16.232  0.00  0.00    +0.295 HD
ENDBRANCH  28  29
ENDBRANCH  16  28
ENDBRANCH   1  16
TORSDOF 7
ENDMDL
MODEL 9
REMARK VINA RESULT:     -10.1      5.618      9.387
REMARK  Name = 657131
REMARK  7 active torsions:
REMARK  status: ('A' for Active; 'I' for Inactive)
REMARK    1  A    between atoms: C_1  and  CA_2
REMARK    2  A    between atoms: C_1  and  C_3
REMARK    3  A    between atoms: CA_2  and  C_28
REMARK    4  A    between atoms: C_4  and  O_9
REMARK    5  A    between atoms: O_9  and  C_11
REMARK    6  A    between atoms: C_19  and  C_21
REMARK    7  A    between atoms: C_28  and  O_29
REMARK                            x       y       z     vdW  Elec       q    Type
REMARK                         _______ _______ _______ _____ _____    ______ ____
ROOT
ATOM      1  C   UNL     1      32.645 -22.234 -18.005  0.00  0.00    +0.074 C 
ENDROOT
BRANCH   1   2
ATOM      2  C   UNL     1      33.556 -21.525 -18.888  0.00  0.00    -0.016 C 
ATOM      3  C   UNL     1      35.307 -20.164 -20.582  0.00  0.00    +0.145 C 
ATOM      4  C   UNL     1      33.060 -20.608 -19.815  0.00  0.00    -0.001 C 
ATOM      5  C   UNL     1      34.929 -21.761 -18.809  0.00  0.00    -0.001 C 
ATOM      6  C   UNL     1      33.935 -19.927 -20.662  0.00  0.00    +0.037 C 
ATOM      7  C   UNL     1      35.804 -21.080 -19.656  0.00  0.00    +0.037 C 
BRANCH   3   8
ATOM      8  O   UNL     1      36.160 -19.500 -21.408  0.00  0.00    -0.453 OA
BRANCH   8  10
ATOM      9 BR   UNL     1      35.318 -19.755 -24.403  0.00  0.00    -0.046 Br
ATOM     10  C   UNL     1      35.729 -18.302 -21.953  0.00  0.00    +0.151 C 
ATOM     11  C   UNL     1      35.317 -18.234 -23.273  0.00  0.00    +0.069 C 
ATOM     12  C   UNL     1      35.725 -17.186 -21.134  0.00  0.00    +0.038 C 
ATOM     13  C   UNL     1      34.888 -17.011 -23.789  0.00  0.00    +0.010 C 
ATOM     14  C   UNL     1      35.295 -15.964 -21.651  0.00  0.00    +0.003 C 
ATOM     15  C   UNL     1      34.877 -15.877 -22.979  0.00  0.00    +0.001 C 
ENDBRANCH   8  10
ENDBRANCH   3   8
ENDBRANCH   1   2
BRANCH   1  16
ATOM     16  CA  UNL     1      32.967 -22.824 -16.831  0.00  0.00    +0.108 C 
ATOM     17  O   UNL     1      33.776 -24.070 -14.393  0.00  0.00    -0.270 OA
ATOM     18  N   UNL     1      34.244 -23.170 -16.486  0.00  0.00    -0.278 N 
ATOM     19  C   UNL     1      34.571 -23.775 -15.282  0.00  0.00    +0.249 C 
ATOM     20  H   UNL     1      34.967 -22.980 -17.125  0.00  0.00    +0.155 HD
BRANCH  19  21
ATOM     21  C   UNL     1      36.010 -24.097 -15.097  0.00  0.00    +0.054 C 
ATOM     22  C   UNL     1      36.951 -23.134 -15.398  0.00  0.00    +0.005 C 
ATOM     23  C   UNL     1      36.358 -25.345 -14.627  0.00  0.00    +0.005 C 
ATOM     24  C   UNL     1      38.301 -23.435 -15.224  0.00  0.00    +0.000 C 
ATOM     25  C   UNL     1      37.709 -25.647 -14.453  0.00  0.00    +0.000 C 
ATOM     26  C   UNL     1      38.680 -24.691 -14.751  0.00  0.00    +0.000 C 
ENDBRANCH  19  21
BRANCH  16  28
ATOM     27  OXT UNL     1      31.096 -24.069 -15.956  0.00  0.00    -0.244 OA
ATOM     28  C   UNL     1      31.871 -23.127 -15.873  0.00  0.00    +0.348 C 
BRANCH  28  29
ATOM     29  O   UNL     1      31.833 -22.211 -14.876  0.00  0.00    -0.476 OA
ATOM     30  H   UNL     1      32.373 -22.321 -14.118  0.00  0.00    +0.295 HD
ENDBRANCH  28  29
ENDBRANCH  16  28
ENDBRANCH   1  16
TORSDOF 7
ENDMDL
