MODEL 1
REMARK VINA RESULT:     -11.6      0.000      0.000
REMARK  Name = 4470378
REMARK  6 active torsions:
REMARK  status: ('A' for Active; 'I' for Inactive)
REMARK    1  A    between atoms: C_5  and  O_10
REMARK    2  A    between atoms: C_6  and  O_24
REMARK    3  A    between atoms: O_10  and  C_11
REMARK    4  A    between atoms: C_12  and  C_19
REMARK    5  A    between atoms: O_24  and  C_25
REMARK    6  A    between atoms: C_26  and  C_33
REMARK                            x       y       z     vdW  Elec       q    Type
REMARK                         _______ _______ _______ _____ _____    ______ ____
ROOT
ATOM      1  F   UNL     1      31.876 -11.444 -21.934  0.00  0.00    -0.221 F 
ATOM      2  F   UNL     1      34.406 -15.228 -20.565  0.00  0.00    -0.199 F 
ATOM      3  N   UNL     1      34.556 -13.239 -23.596  0.00  0.00    -0.331 NA
ATOM      4  C   UNL     1      33.113 -13.338 -21.203  0.00  0.00    +0.031 C 
ATOM      5  C   UNL     1      33.576 -12.349 -23.316  0.00  0.00    +0.298 C 
ATOM      6  C   UNL     1      34.788 -14.169 -22.653  0.00  0.00    +0.312 C 
ATOM      7  C   UNL     1      32.833 -12.355 -22.147  0.00  0.00    +0.270 C 
ATOM      8  C   UNL     1      34.113 -14.271 -21.455  0.00  0.00    +0.201 C 
ATOM      9  C   UNL     1      32.343 -13.392 -19.928  0.00  0.00    +0.032 C 
ENDROOT
BRANCH   5  10
ATOM     10  O   UNL     1      33.319 -11.392 -24.262  0.00  0.00    -0.428 OA
BRANCH  10  11
ATOM     11  C   UNL     1      34.032 -10.213 -24.183  0.00  0.00    +0.148 C 
ATOM     12  C   UNL     1      34.268  -7.987 -23.321  0.00  0.00    +0.032 C 
ATOM     13  C   UNL     1      33.547  -9.179 -23.400  0.00  0.00    +0.040 C 
ATOM     14  C   UNL     1      35.218 -10.090 -24.888  0.00  0.00    +0.038 C 
ATOM     15  C   UNL     1      35.463  -7.847 -24.025  0.00  0.00    +0.003 C 
ATOM     16  C   UNL     1      35.938  -8.898 -24.809  0.00  0.00    +0.003 C 
BRANCH  12  19
ATOM     17  N   UNL     1      33.494  -7.089 -21.208  0.00  0.00    -0.387 N 
ATOM     18  N   UNL     1      33.590  -5.678 -23.042  0.00  0.00    -0.345 N 
ATOM     19  C   UNL     1      33.776  -6.897 -22.508  0.00  0.00    +0.096 C 
ATOM     20  H   UNL     1      33.159  -6.342 -20.661  0.00  0.00    +0.157 HD
ATOM     21  H   UNL     1      33.624  -7.977 -20.802  0.00  0.00    +0.157 HD
ATOM     22  H   UNL     1      33.253  -4.941 -22.483  0.00  0.00    +0.144 HD
ATOM     23  H   UNL     1      33.790  -5.522 -23.994  0.00  0.00    +0.144 HD
ENDBRANCH  12  19
ENDBRANCH  10  11
ENDBRANCH   5  10
BRANCH   6  24
ATOM     24  O   UNL     1      35.788 -15.087 -22.929  0.00  0.00    -0.426 OA
BRANCH  24  25
ATOM     25  C   UNL     1      35.429 -16.393 -23.060  0.00  0.00    +0.148 C 
ATOM     26  C   UNL     1      35.197 -18.604 -22.114  0.00  0.00    +0.034 C 
ATOM     27  C   UNL     1      35.564 -17.265 -21.980  0.00  0.00    +0.040 C 
ATOM     28  C   UNL     1      34.927 -16.860 -24.275  0.00  0.00    +0.038 C 
ATOM     29  C   UNL     1      34.696 -19.072 -23.329  0.00  0.00    +0.003 C 
ATOM     30  C   UNL     1      34.560 -18.199 -24.409  0.00  0.00    +0.003 C 
BRANCH  26  33
ATOM     31  N   UNL     1      36.568 -19.701 -20.359  0.00  0.00    -0.343 N 
ATOM     32  N   UNL     1      34.289 -20.184 -20.547  0.00  0.00    -0.285 NA
ATOM     33  C   UNL     1      35.339 -19.514 -20.988  0.00  0.00    +0.117 C 
ATOM     34  H   UNL     1      36.642 -20.322 -19.598  0.00  0.00    +0.144 HD
ATOM     35  H   UNL     1      37.363 -19.213 -20.674  0.00  0.00    +0.144 HD
ATOM     36  H   UNL     1      34.384 -20.800 -19.785  0.00  0.00    +0.188 HD
ENDBRANCH  26  33
ENDBRANCH  24  25
ENDBRANCH   6  24
TORSDOF 6
ENDMDL
MODEL 2
REMARK VINA RESULT:     -11.6      0.051      8.688
REMARK  Name = 4470378
REMARK  6 active torsions:
REMARK  status: ('A' for Active; 'I' for Inactive)
REMARK    1  A    between atoms: C_5  and  O_10
REMARK    2  A    between atoms: C_6  and  O_24
REMARK    3  A    between atoms: O_10  and  C_11
REMARK    4  A    between atoms: C_12  and  C_19
REMARK    5  A    between atoms: O_24  and  C_25
REMARK    6  A    between atoms: C_26  and  C_33
REMARK                            x       y       z     vdW  Elec       q    Type
REMARK                         _______ _______ _______ _____ _____    ______ ____
ROOT
ATOM      1  F   UNL     1      34.396 -15.212 -20.521  0.00  0.00    -0.221 F 
ATOM      2  F   UNL     1      31.875 -11.441 -21.939  0.00  0.00    -0.199 F 
ATOM      3  N   UNL     1      34.565 -13.250 -23.568  0.00  0.00    -0.331 NA
ATOM      4  C   UNL     1      33.108 -13.328 -21.184  0.00  0.00    +0.031 C 
ATOM      5  C   UNL     1      34.803 -14.182 -22.617  0.00  0.00    +0.298 C 
ATOM      6  C   UNL     1      33.588 -12.368 -23.292  0.00  0.00    +0.312 C 
ATOM      7  C   UNL     1      34.109 -14.263 -21.421  0.00  0.00    +0.270 C 
ATOM      8  C   UNL     1      32.834 -12.353 -22.138  0.00  0.00    +0.201 C 
ATOM      9  C   UNL     1      32.331 -13.368 -19.912  0.00  0.00    +0.032 C 
ENDROOT
BRANCH   5  10
ATOM     10  O   UNL     1      35.795 -15.091 -22.874  0.00  0.00    -0.428 OA
BRANCH  10  11
ATOM     11  C   UNL     1      35.423 -16.411 -23.026  0.00  0.00    +0.148 C 
ATOM     12  C   UNL     1      35.170 -18.613 -22.108  0.00  0.00    +0.032 C 
ATOM     13  C   UNL     1      35.545 -17.278 -21.953  0.00  0.00    +0.040 C 
ATOM     14  C   UNL     1      34.935 -16.841 -24.249  0.00  0.00    +0.038 C 
ATOM     15  C   UNL     1      34.677 -19.061 -23.333  0.00  0.00    +0.003 C 
ATOM     16  C   UNL     1      34.560 -18.175 -24.404  0.00  0.00    +0.003 C 
BRANCH  12  19
ATOM     17  N   UNL     1      34.216 -20.198 -20.544  0.00  0.00    -0.387 N 
ATOM     18  N   UNL     1      36.480 -19.729 -20.404  0.00  0.00    -0.345 N 
ATOM     19  C   UNL     1      35.291 -19.531 -20.998  0.00  0.00    +0.096 C 
ATOM     20  H   UNL     1      34.306 -20.821 -19.787  0.00  0.00    +0.157 HD
ATOM     21  H   UNL     1      33.337 -20.063 -20.968  0.00  0.00    +0.157 HD
ATOM     22  H   UNL     1      36.555 -20.356 -19.648  0.00  0.00    +0.144 HD
ATOM     23  H   UNL     1      37.277 -19.247 -20.724  0.00  0.00    +0.144 HD
ENDBRANCH  12  19
ENDBRANCH  10  11
ENDBRANCH   5  10
BRANCH   6  24
ATOM     24  O   UNL     1      33.337 -11.408 -24.258  0.00  0.00    -0.426 OA
BRANCH  24  25
ATOM     25  C   UNL     1      34.027 -10.238 -24.181  0.00  0.00    +0.148 C 
ATOM     26  C   UNL     1      34.245  -7.990 -23.322  0.00  0.00    +0.034 C 
ATOM     27  C   UNL     1      33.539  -9.190 -23.400  0.00  0.00    +0.040 C 
ATOM     28  C   UNL     1      35.222 -10.085 -24.884  0.00  0.00    +0.038 C 
ATOM     29  C   UNL     1      35.440  -7.837 -24.025  0.00  0.00    +0.003 C 
ATOM     30  C   UNL     1      35.929  -8.885 -24.806  0.00  0.00    +0.003 C 
BRANCH  26  33
ATOM     31  N   UNL     1      33.537  -7.049 -21.136  0.00  0.00    -0.343 N 
ATOM     32  N   UNL     1      33.448  -5.737 -23.068  0.00  0.00    -0.285 NA
ATOM     33  C   UNL     1      33.736  -6.898 -22.507  0.00  0.00    +0.117 C 
ATOM     34  H   UNL     1      33.191  -6.297 -20.604  0.00  0.00    +0.144 HD
ATOM     35  H   UNL     1      33.742  -7.907 -20.699  0.00  0.00    +0.144 HD
ATOM     36  H   UNL     1      33.103  -4.997 -22.518  0.00  0.00    +0.188 HD
ENDBRANCH  26  33
ENDBRANCH  24  25
ENDBRANCH   6  24
TORSDOF 6
ENDMDL
MODEL 3
REMARK VINA RESULT:     -11.4      8.269     11.876
REMARK  Name = 4470378
REMARK  6 active torsions:
REMARK  status: ('A' for Active; 'I' for Inactive)
REMARK    1  A    between atoms: C_5  and  O_10
REMARK    2  A    between atoms: C_6  and  O_24
REMARK    3  A    between atoms: O_10  and  C_11
REMARK    4  A    between atoms: C_12  and  C_19
REMARK    5  A    between atoms: O_24  and  C_25
REMARK    6  A    between atoms: C_26  and  C_33
REMARK                            x       y       z     vdW  Elec       q    Type
REMARK                         _______ _______ _______ _____ _____    ______ ____
ROOT
ATOM      1  F   UNL     1      32.465 -23.354 -17.640  0.00  0.00    -0.221 F 
ATOM      2  F   UNL     1      34.505 -22.792 -13.384  0.00  0.00    -0.199 F 
ATOM      3  N   UNL     1      35.894 -22.595 -16.730  0.00  0.00    -0.331 NA
ATOM      4  C   UNL     1      33.438 -23.083 -15.488  0.00  0.00    +0.031 C 
ATOM      5  C   UNL     1      34.774 -22.855 -17.442  0.00  0.00    +0.298 C 
ATOM      6  C   UNL     1      35.749 -22.588 -15.392  0.00  0.00    +0.312 C 
ATOM      7  C   UNL     1      33.535 -23.103 -16.875  0.00  0.00    +0.270 C 
ATOM      8  C   UNL     1      34.568 -22.820 -14.721  0.00  0.00    +0.201 C 
ATOM      9  C   UNL     1      32.128 -23.344 -14.825  0.00  0.00    +0.032 C 
ENDROOT
BRANCH   5  10
ATOM     10  O   UNL     1      34.897 -22.870 -18.806  0.00  0.00    -0.428 OA
BRANCH  10  11
ATOM     11  C   UNL     1      34.681 -21.683 -19.476  0.00  0.00    +0.148 C 
ATOM     12  C   UNL     1      35.550 -19.748 -20.598  0.00  0.00    +0.032 C 
ATOM     13  C   UNL     1      35.768 -20.949 -19.921  0.00  0.00    +0.040 C 
ATOM     14  C   UNL     1      33.383 -21.251 -19.688  0.00  0.00    +0.038 C 
ATOM     15  C   UNL     1      34.248 -19.300 -20.820  0.00  0.00    +0.003 C 
ATOM     16  C   UNL     1      33.164 -20.051 -20.364  0.00  0.00    +0.003 C 
BRANCH  12  19
ATOM     17  N   UNL     1      36.731 -18.562 -22.349  0.00  0.00    -0.387 N 
ATOM     18  N   UNL     1      37.675 -18.645 -20.236  0.00  0.00    -0.345 N 
ATOM     19  C   UNL     1      36.673 -18.970 -21.069  0.00  0.00    +0.096 C 
ATOM     20  H   UNL     1      37.499 -18.033 -22.663  0.00  0.00    +0.157 HD
ATOM     21  H   UNL     1      36.004 -18.794 -22.973  0.00  0.00    +0.157 HD
ATOM     22  H   UNL     1      38.437 -18.115 -20.564  0.00  0.00    +0.144 HD
ATOM     23  H   UNL     1      37.648 -18.937 -19.296  0.00  0.00    +0.144 HD
ENDBRANCH  12  19
ENDBRANCH  10  11
ENDBRANCH   5  10
BRANCH   6  24
ATOM     24  O   UNL     1      36.890 -22.325 -14.653  0.00  0.00    -0.426 OA
BRANCH  24  25
ATOM     25  C   UNL     1      37.526 -23.379 -14.075  0.00  0.00    +0.148 C 
ATOM     26  C   UNL     1      38.912 -25.349 -14.270  0.00  0.00    +0.034 C 
ATOM     27  C   UNL     1      38.261 -24.267 -14.862  0.00  0.00    +0.040 C 
ATOM     28  C   UNL     1      37.442 -23.575 -12.697  0.00  0.00    +0.038 C 
ATOM     29  C   UNL     1      38.828 -25.545 -12.892  0.00  0.00    +0.003 C 
ATOM     30  C   UNL     1      38.093 -24.658 -12.105  0.00  0.00    +0.003 C 
BRANCH  26  33
ATOM     31  N   UNL     1      39.461 -27.650 -15.026  0.00  0.00    -0.343 N 
ATOM     32  N   UNL     1      40.603 -25.814 -15.914  0.00  0.00    -0.285 NA
ATOM     33  C   UNL     1      39.678 -26.275 -15.091  0.00  0.00    +0.117 C 
ATOM     34  H   UNL     1      39.991 -28.258 -15.590  0.00  0.00    +0.144 HD
ATOM     35  H   UNL     1      38.778 -28.013 -14.417  0.00  0.00    +0.144 HD
ATOM     36  H   UNL     1      41.122 -26.439 -16.470  0.00  0.00    +0.188 HD
ENDBRANCH  26  33
ENDBRANCH  24  25
ENDBRANCH   6  24
TORSDOF 6
ENDMDL
MODEL 4
REMARK VINA RESULT:     -11.1      8.278     13.640
REMARK  Name = 4470378
REMARK  6 active torsions:
REMARK  status: ('A' for Active; 'I' for Inactive)
REMARK    1  A    between atoms: C_5  and  O_10
REMARK    2  A    between atoms: C_6  and  O_24
REMARK    3  A    between atoms: O_10  and  C_11
REMARK    4  A    between atoms: C_12  and  C_19
REMARK    5  A    between atoms: O_24  and  C_25
REMARK    6  A    between atoms: C_26  and  C_33
REMARK                            x       y       z     vdW  Elec       q    Type
REMARK                         _______ _______ _______ _____ _____    ______ ____
ROOT
ATOM      1  F   UNL     1      34.292 -22.804 -13.366  0.00  0.00    -0.221 F 
ATOM      2  F   UNL     1      32.436 -23.378 -17.704  0.00  0.00    -0.199 F 
ATOM      3  N   UNL     1      35.818 -22.593 -16.650  0.00  0.00    -0.331 NA
ATOM      4  C   UNL     1      33.316 -23.100 -15.513  0.00  0.00    +0.031 C 
ATOM      5  C   UNL     1      35.628 -22.584 -15.311  0.00  0.00    +0.298 C 
ATOM      6  C   UNL     1      34.730 -22.860 -17.394  0.00  0.00    +0.312 C 
ATOM      7  C   UNL     1      34.410 -22.829 -14.699  0.00  0.00    +0.270 C 
ATOM      8  C   UNL     1      33.471 -23.118 -16.895  0.00  0.00    +0.201 C 
ATOM      9  C   UNL     1      31.980 -23.370 -14.907  0.00  0.00    +0.032 C 
ENDROOT
BRANCH   5  10
ATOM     10  O   UNL     1      36.722 -22.314 -14.532  0.00  0.00    -0.428 OA
BRANCH  10  11
ATOM     11  C   UNL     1      37.341 -23.380 -13.913  0.00  0.00    +0.148 C 
ATOM     12  C   UNL     1      38.588 -25.425 -14.062  0.00  0.00    +0.032 C 
ATOM     13  C   UNL     1      37.964 -24.345 -14.688  0.00  0.00    +0.040 C 
ATOM     14  C   UNL     1      37.325 -23.464 -12.531  0.00  0.00    +0.038 C 
ATOM     15  C   UNL     1      38.582 -25.523 -12.670  0.00  0.00    +0.003 C 
ATOM     16  C   UNL     1      37.950 -24.543 -11.905  0.00  0.00    +0.003 C 
BRANCH  12  19
ATOM     17  N   UNL     1      38.592 -27.039 -15.868  0.00  0.00    -0.387 N 
ATOM     18  N   UNL     1      40.509 -26.802 -14.589  0.00  0.00    -0.345 N 
ATOM     19  C   UNL     1      39.243 -26.440 -14.855  0.00  0.00    +0.096 C 
ATOM     20  H   UNL     1      39.045 -27.730 -16.403  0.00  0.00    +0.157 HD
ATOM     21  H   UNL     1      37.663 -26.785 -16.074  0.00  0.00    +0.157 HD
ATOM     22  H   UNL     1      40.948 -27.496 -15.133  0.00  0.00    +0.144 HD
ATOM     23  H   UNL     1      40.998 -26.375 -13.849  0.00  0.00    +0.144 HD
ENDBRANCH  12  19
ENDBRANCH  10  11
ENDBRANCH   5  10
BRANCH   6  24
ATOM     24  O   UNL     1      34.912 -22.871 -18.767  0.00  0.00    -0.426 OA
BRANCH  24  25
ATOM     25  C   UNL     1      34.700 -21.708 -19.441  0.00  0.00    +0.148 C 
ATOM     26  C   UNL     1      35.568 -19.756 -20.570  0.00  0.00    +0.034 C 
ATOM     27  C   UNL     1      35.785 -20.948 -19.880  0.00  0.00    +0.040 C 
ATOM     28  C   UNL     1      33.398 -21.274 -19.693  0.00  0.00    +0.038 C 
ATOM     29  C   UNL     1      34.266 -19.322 -20.821  0.00  0.00    +0.003 C 
ATOM     30  C   UNL     1      33.181 -20.082 -20.383  0.00  0.00    +0.003 C 
BRANCH  26  33
ATOM     31  N   UNL     1      36.788 -18.522 -22.346  0.00  0.00    -0.343 N 
ATOM     32  N   UNL     1      37.669 -18.655 -20.186  0.00  0.00    -0.285 NA
ATOM     33  C   UNL     1      36.699 -18.964 -21.027  0.00  0.00    +0.117 C 
ATOM     34  H   UNL     1      37.563 -17.988 -22.634  0.00  0.00    +0.144 HD
ATOM     35  H   UNL     1      36.077 -18.745 -22.990  0.00  0.00    +0.144 HD
ATOM     36  H   UNL     1      38.435 -18.119 -20.494  0.00  0.00    +0.188 HD
ENDBRANCH  26  33
ENDBRANCH  24  25
ENDBRANCH   6  24
TORSDOF 6
ENDMDL
MODEL 5
REMARK VINA RESULT:     -11.1     10.428     13.358
REMARK  Name = 4470378
REMARK  6 active torsions:
REMARK  status: ('A' for Active; 'I' for Inactive)
REMARK    1  A    between atoms: C_5  and  O_10
REMARK    2  A    between atoms: C_6  and  O_24
REMARK    3  A    between atoms: O_10  and  C_11
REMARK    4  A    between atoms: C_12  and  C_19
REMARK    5  A    between atoms: O_24  and  C_25
REMARK    6  A    between atoms: C_26  and  C_33
REMARK                            x       y       z     vdW  Elec       q    Type
REMARK                         _______ _______ _______ _____ _____    ______ ____
ROOT
ATOM      1  F   UNL     1      34.015 -22.338 -19.356  0.00  0.00    -0.221 F 
ATOM      2  F   UNL     1      37.969 -20.899 -17.145  0.00  0.00    -0.199 F 
ATOM      3  N   UNL     1      35.251 -23.019 -16.014  0.00  0.00    -0.331 NA
ATOM      4  C   UNL     1      36.007 -21.590 -18.295  0.00  0.00    +0.031 C 
ATOM      5  C   UNL     1      34.488 -23.003 -17.130  0.00  0.00    +0.298 C 
ATOM      6  C   UNL     1      36.390 -22.306 -16.073  0.00  0.00    +0.312 C 
ATOM      7  C   UNL     1      34.818 -22.312 -18.285  0.00  0.00    +0.270 C 
ATOM      8  C   UNL     1      36.818 -21.582 -17.165  0.00  0.00    +0.201 C 
ATOM      9  C   UNL     1      36.410 -20.827 -19.511  0.00  0.00    +0.032 C 
ENDROOT
BRANCH   5  10
ATOM     10  O   UNL     1      33.322 -23.720 -17.095  0.00  0.00    -0.428 OA
BRANCH  10  11
ATOM     11  C   UNL     1      32.371 -23.340 -16.170  0.00  0.00    +0.148 C 
ATOM     12  C   UNL     1      30.092 -22.809 -15.638  0.00  0.00    +0.032 C 
ATOM     13  C   UNL     1      31.053 -23.195 -16.573  0.00  0.00    +0.040 C 
ATOM     14  C   UNL     1      32.753 -23.110 -14.859  0.00  0.00    +0.038 C 
ATOM     15  C   UNL     1      30.462 -22.575 -14.314  0.00  0.00    +0.003 C 
ATOM     16  C   UNL     1      31.793 -22.725 -13.924  0.00  0.00    +0.003 C 
BRANCH  12  19
ATOM     17  N   UNL     1      28.311 -23.049 -17.262  0.00  0.00    -0.387 N 
ATOM     18  N   UNL     1      27.815 -22.108 -15.204  0.00  0.00    -0.345 N 
ATOM     19  C   UNL     1      28.713 -22.653 -16.042  0.00  0.00    +0.096 C 
ATOM     20  H   UNL     1      27.370 -22.940 -17.530  0.00  0.00    +0.157 HD
ATOM     21  H   UNL     1      28.957 -23.450 -17.888  0.00  0.00    +0.157 HD
ATOM     22  H   UNL     1      26.877 -22.004 -15.487  0.00  0.00    +0.144 HD
ATOM     23  H   UNL     1      28.094 -21.812 -14.308  0.00  0.00    +0.144 HD
ENDBRANCH  12  19
ENDBRANCH  10  11
ENDBRANCH   5  10
BRANCH   6  24
ATOM     24  O   UNL     1      37.179 -22.314 -14.934  0.00  0.00    -0.426 OA
BRANCH  24  25
ATOM     25  C   UNL     1      37.521 -23.522 -14.411  0.00  0.00    +0.148 C 
ATOM     26  C   UNL     1      39.000 -25.432 -14.347  0.00  0.00    +0.034 C 
ATOM     27  C   UNL     1      38.650 -24.192 -14.883  0.00  0.00    +0.040 C 
ATOM     28  C   UNL     1      36.743 -24.092 -13.403  0.00  0.00    +0.038 C 
ATOM     29  C   UNL     1      38.222 -26.001 -13.339  0.00  0.00    +0.003 C 
ATOM     30  C   UNL     1      37.093 -25.331 -12.867  0.00  0.00    +0.003 C 
BRANCH  26  33
ATOM     31  N   UNL     1      41.040 -26.797 -13.971  0.00  0.00    -0.343 N 
ATOM     32  N   UNL     1      40.447 -26.135 -16.132  0.00  0.00    -0.285 NA
ATOM     33  C   UNL     1      40.177 -26.130 -14.839  0.00  0.00    +0.117 C 
ATOM     34  H   UNL     1      41.831 -27.264 -14.325  0.00  0.00    +0.144 HD
ATOM     35  H   UNL     1      40.858 -26.803 -13.003  0.00  0.00    +0.144 HD
ATOM     36  H   UNL     1      41.243 -26.607 -16.467  0.00  0.00    +0.188 HD
ENDBRANCH  26  33
ENDBRANCH  24  25
ENDBRANCH   6  24
TORSDOF 6
ENDMDL
MODEL 6
REMARK VINA RESULT:     -11.0     10.088     13.209
REMARK  Name = 4470378
REMARK  6 active torsions:
REMARK  status: ('A' for Active; 'I' for Inactive)
REMARK    1  A    between atoms: C_5  and  O_10
REMARK    2  A    between atoms: C_6  and  O_24
REMARK    3  A    between atoms: O_10  and  C_11
REMARK    4  A    between atoms: C_12  and  C_19
REMARK    5  A    between atoms: O_24  and  C_25
REMARK    6  A    between atoms: C_26  and  C_33
REMARK                            x       y       z     vdW  Elec       q    Type
REMARK                         _______ _______ _______ _____ _____    ______ ____
ROOT
ATOM      1  F   UNL     1      33.828 -22.271 -19.518  0.00  0.00    -0.221 F 
ATOM      2  F   UNL     1      37.871 -20.517 -17.736  0.00  0.00    -0.199 F 
ATOM      3  N   UNL     1      35.471 -22.850 -16.335  0.00  0.00    -0.331 NA
ATOM      4  C   UNL     1      35.857 -21.365 -18.672  0.00  0.00    +0.031 C 
ATOM      5  C   UNL     1      34.592 -22.895 -17.362  0.00  0.00    +0.298 C 
ATOM      6  C   UNL     1      36.536 -22.048 -16.511  0.00  0.00    +0.312 C 
ATOM      7  C   UNL     1      34.738 -22.180 -18.540  0.00  0.00    +0.270 C 
ATOM      8  C   UNL     1      36.783 -21.292 -17.637  0.00  0.00    +0.201 C 
ATOM      9  C   UNL     1      36.063 -20.572 -19.918  0.00  0.00    +0.032 C 
ENDROOT
BRANCH   5  10
ATOM     10  O   UNL     1      33.498 -23.704 -17.207  0.00  0.00    -0.428 OA
BRANCH  10  11
ATOM     11  C   UNL     1      32.568 -23.339 -16.256  0.00  0.00    +0.148 C 
ATOM     12  C   UNL     1      30.302 -22.817 -15.664  0.00  0.00    +0.032 C 
ATOM     13  C   UNL     1      31.242 -23.188 -16.627  0.00  0.00    +0.040 C 
ATOM     14  C   UNL     1      32.980 -23.129 -14.950  0.00  0.00    +0.038 C 
ATOM     15  C   UNL     1      30.701 -22.603 -14.345  0.00  0.00    +0.003 C 
ATOM     16  C   UNL     1      32.041 -22.759 -13.988  0.00  0.00    +0.003 C 
BRANCH  12  19
ATOM     17  N   UNL     1      28.486 -23.024 -17.254  0.00  0.00    -0.387 N 
ATOM     18  N   UNL     1      28.033 -22.130 -15.165  0.00  0.00    -0.345 N 
ATOM     19  C   UNL     1      28.914 -22.655 -16.034  0.00  0.00    +0.096 C 
ATOM     20  H   UNL     1      27.540 -22.910 -17.499  0.00  0.00    +0.157 HD
ATOM     21  H   UNL     1      29.120 -23.409 -17.902  0.00  0.00    +0.157 HD
ATOM     22  H   UNL     1      27.090 -22.022 -15.425  0.00  0.00    +0.144 HD
ATOM     23  H   UNL     1      28.332 -21.853 -14.269  0.00  0.00    +0.144 HD
ENDBRANCH  12  19
ENDBRANCH  10  11
ENDBRANCH   5  10
BRANCH   6  24
ATOM     24  O   UNL     1      37.442 -21.992 -15.465  0.00  0.00    -0.426 OA
BRANCH  24  25
ATOM     25  C   UNL     1      37.538 -23.079 -14.654  0.00  0.00    +0.148 C 
ATOM     26  C   UNL     1      36.910 -24.244 -12.632  0.00  0.00    +0.034 C 
ATOM     27  C   UNL     1      36.810 -23.129 -13.464  0.00  0.00    +0.040 C 
ATOM     28  C   UNL     1      38.366 -24.144 -15.009  0.00  0.00    +0.038 C 
ATOM     29  C   UNL     1      37.738 -25.308 -12.987  0.00  0.00    +0.003 C 
ATOM     30  C   UNL     1      38.466 -25.259 -14.176  0.00  0.00    +0.003 C 
BRANCH  26  33
ATOM     31  N   UNL     1      36.695 -23.848 -10.190  0.00  0.00    -0.343 N 
ATOM     32  N   UNL     1      34.921 -24.779 -11.392  0.00  0.00    -0.285 NA
ATOM     33  C   UNL     1      36.150 -24.295 -11.392  0.00  0.00    +0.117 C 
ATOM     34  H   UNL     1      36.164 -23.892  -9.362  0.00  0.00    +0.144 HD
ATOM     35  H   UNL     1      37.611 -23.486 -10.168  0.00  0.00    +0.144 HD
ATOM     36  H   UNL     1      34.407 -24.815 -10.554  0.00  0.00    +0.188 HD
ENDBRANCH  26  33
ENDBRANCH  24  25
ENDBRANCH   6  24
TORSDOF 6
ENDMDL
MODEL 7
REMARK VINA RESULT:     -11.0      7.975     11.753
REMARK  Name = 4470378
REMARK  6 active torsions:
REMARK  status: ('A' for Active; 'I' for Inactive)
REMARK    1  A    between atoms: C_5  and  O_10
REMARK    2  A    between atoms: C_6  and  O_24
REMARK    3  A    between atoms: O_10  and  C_11
REMARK    4  A    between atoms: C_12  and  C_19
REMARK    5  A    between atoms: O_24  and  C_25
REMARK    6  A    between atoms: C_26  and  C_33
REMARK                            x       y       z     vdW  Elec       q    Type
REMARK                         _______ _______ _______ _____ _____    ______ ____
ROOT
ATOM      1  F   UNL     1      30.933 -21.802 -17.102  0.00  0.00    -0.221 F 
ATOM      2  F   UNL     1      32.786 -24.056 -13.350  0.00  0.00    -0.199 F 
ATOM      3  N   UNL     1      33.996 -23.716 -16.753  0.00  0.00    -0.331 NA
ATOM      4  C   UNL     1      31.818 -22.914 -15.196  0.00  0.00    +0.031 C 
ATOM      5  C   UNL     1      32.993 -22.966 -17.263  0.00  0.00    +0.298 C 
ATOM      6  C   UNL     1      33.877 -24.048 -15.455  0.00  0.00    +0.312 C 
ATOM      7  C   UNL     1      31.893 -22.543 -16.534  0.00  0.00    +0.270 C 
ATOM      8  C   UNL     1      32.831 -23.685 -14.635  0.00  0.00    +0.201 C 
ATOM      9  C   UNL     1      30.655 -22.488 -14.365  0.00  0.00    +0.032 C 
ENDROOT
BRANCH   5  10
ATOM     10  O   UNL     1      33.090 -22.615 -18.583  0.00  0.00    -0.428 OA
BRANCH  10  11
ATOM     11  C   UNL     1      34.191 -21.875 -18.964  0.00  0.00    +0.148 C 
ATOM     12  C   UNL     1      35.155 -20.128 -20.296  0.00  0.00    +0.032 C 
ATOM     13  C   UNL     1      34.041 -20.875 -19.911  0.00  0.00    +0.040 C 
ATOM     14  C   UNL     1      35.422 -22.149 -18.393  0.00  0.00    +0.038 C 
ATOM     15  C   UNL     1      36.402 -20.392 -19.730  0.00  0.00    +0.003 C 
ATOM     16  C   UNL     1      36.536 -21.403 -18.778  0.00  0.00    +0.003 C 
BRANCH  12  19
ATOM     17  N   UNL     1      35.451 -17.836 -21.021  0.00  0.00    -0.387 N 
ATOM     18  N   UNL     1      34.449 -19.336 -22.474  0.00  0.00    -0.345 N 
ATOM     19  C   UNL     1      35.017 -19.081 -21.283  0.00  0.00    +0.096 C 
ATOM     20  H   UNL     1      35.353 -17.128 -21.697  0.00  0.00    +0.157 HD
ATOM     21  H   UNL     1      35.868 -17.632 -20.152  0.00  0.00    +0.157 HD
ATOM     22  H   UNL     1      34.358 -18.617 -23.140  0.00  0.00    +0.144 HD
ATOM     23  H   UNL     1      34.125 -20.243 -22.680  0.00  0.00    +0.144 HD
ENDBRANCH  12  19
ENDBRANCH  10  11
ENDBRANCH   5  10
BRANCH   6  24
ATOM     24  O   UNL     1      34.899 -24.818 -14.923  0.00  0.00    -0.426 OA
BRANCH  24  25
ATOM     25  C   UNL     1      36.170 -24.344 -15.033  0.00  0.00    +0.148 C 
ATOM     26  C   UNL     1      38.556 -24.721 -14.968  0.00  0.00    +0.034 C 
ATOM     27  C   UNL     1      37.253 -25.206 -14.857  0.00  0.00    +0.040 C 
ATOM     28  C   UNL     1      36.390 -22.997 -15.320  0.00  0.00    +0.038 C 
ATOM     29  C   UNL     1      38.776 -23.374 -15.255  0.00  0.00    +0.003 C 
ATOM     30  C   UNL     1      37.693 -22.512 -15.431  0.00  0.00    +0.003 C 
BRANCH  26  33
ATOM     31  N   UNL     1      39.939 -26.219 -13.552  0.00  0.00    -0.343 N 
ATOM     32  N   UNL     1      40.494 -25.876 -15.796  0.00  0.00    -0.285 NA
ATOM     33  C   UNL     1      39.684 -25.620 -14.784  0.00  0.00    +0.117 C 
ATOM     34  H   UNL     1      40.709 -26.824 -13.449  0.00  0.00    +0.144 HD
ATOM     35  H   UNL     1      39.350 -26.039 -12.784  0.00  0.00    +0.144 HD
ATOM     36  H   UNL     1      41.258 -26.484 -15.673  0.00  0.00    +0.188 HD
ENDBRANCH  26  33
ENDBRANCH  24  25
ENDBRANCH   6  24
TORSDOF 6
ENDMDL
MODEL 8
REMARK VINA RESULT:     -11.0     10.467     14.302
REMARK  Name = 4470378
REMARK  6 active torsions:
REMARK  status: ('A' for Active; 'I' for Inactive)
REMARK    1  A    between atoms: C_5  and  O_10
REMARK    2  A    between atoms: C_6  and  O_24
REMARK    3  A    between atoms: O_10  and  C_11
REMARK    4  A    between atoms: C_12  and  C_19
REMARK    5  A    between atoms: O_24  and  C_25
REMARK    6  A    between atoms: C_26  and  C_33
REMARK                            x       y       z     vdW  Elec       q    Type
REMARK                         _______ _______ _______ _____ _____    ______ ____
ROOT
ATOM      1  F   UNL     1      37.986 -20.922 -17.111  0.00  0.00    -0.221 F 
ATOM      2  F   UNL     1      34.049 -22.366 -19.349  0.00  0.00    -0.199 F 
ATOM      3  N   UNL     1      35.226 -22.984 -15.974  0.00  0.00    -0.331 NA
ATOM      4  C   UNL     1      36.033 -21.618 -18.275  0.00  0.00    +0.031 C 
ATOM      5  C   UNL     1      36.383 -22.286 -16.020  0.00  0.00    +0.298 C 
ATOM      6  C   UNL     1      34.493 -22.978 -17.102  0.00  0.00    +0.312 C 
ATOM      7  C   UNL     1      36.827 -21.593 -17.134  0.00  0.00    +0.270 C 
ATOM      8  C   UNL     1      34.835 -22.325 -18.267  0.00  0.00    +0.201 C 
ATOM      9  C   UNL     1      36.463 -20.890 -19.503  0.00  0.00    +0.032 C 
ENDROOT
BRANCH   5  10
ATOM     10  O   UNL     1      37.148 -22.279 -14.884  0.00  0.00    -0.428 OA
BRANCH  10  11
ATOM     11  C   UNL     1      37.422 -23.496 -14.294  0.00  0.00    +0.148 C 
ATOM     12  C   UNL     1      38.633 -25.567 -14.278  0.00  0.00    +0.032 C 
ATOM     13  C   UNL     1      38.358 -24.336 -14.874  0.00  0.00    +0.040 C 
ATOM     14  C   UNL     1      36.753 -23.852 -13.134  0.00  0.00    +0.038 C 
ATOM     15  C   UNL     1      37.969 -25.940 -13.110  0.00  0.00    +0.003 C 
ATOM     16  C   UNL     1      37.028 -25.083 -12.538  0.00  0.00    +0.003 C 
BRANCH  12  19
ATOM     17  N   UNL     1      40.807 -26.636 -14.292  0.00  0.00    -0.387 N 
ATOM     18  N   UNL     1      39.327 -27.112 -16.009  0.00  0.00    -0.345 N 
ATOM     19  C   UNL     1      39.607 -26.456 -14.870  0.00  0.00    +0.096 C 
ATOM     20  H   UNL     1      41.465 -27.242 -14.701  0.00  0.00    +0.157 HD
ATOM     21  H   UNL     1      41.027 -26.161 -13.457  0.00  0.00    +0.157 HD
ATOM     22  H   UNL     1      39.996 -27.714 -16.408  0.00  0.00    +0.144 HD
ATOM     23  H   UNL     1      38.453 -26.989 -16.446  0.00  0.00    +0.144 HD
ENDBRANCH  12  19
ENDBRANCH  10  11
ENDBRANCH   5  10
BRANCH   6  24
ATOM     24  O   UNL     1      33.307 -23.691 -17.067  0.00  0.00    -0.426 OA
BRANCH  24  25
ATOM     25  C   UNL     1      32.359 -23.298 -16.174  0.00  0.00    +0.148 C 
ATOM     26  C   UNL     1      30.064 -22.732 -15.671  0.00  0.00    +0.034 C 
ATOM     27  C   UNL     1      31.036 -23.136 -16.586  0.00  0.00    +0.040 C 
ATOM     28  C   UNL     1      32.710 -23.053 -14.846  0.00  0.00    +0.038 C 
ATOM     29  C   UNL     1      30.415 -22.488 -14.343  0.00  0.00    +0.003 C 
ATOM     30  C   UNL     1      31.738 -22.649 -13.931  0.00  0.00    +0.003 C 
BRANCH  26  33
ATOM     31  N   UNL     1      28.260 -22.997 -17.355  0.00  0.00    -0.343 N 
ATOM     32  N   UNL     1      27.810 -21.987 -15.297  0.00  0.00    -0.285 NA
ATOM     33  C   UNL     1      28.685 -22.564 -16.101  0.00  0.00    +0.117 C 
ATOM     34  H   UNL     1      27.322 -22.873 -17.627  0.00  0.00    +0.144 HD
ATOM     35  H   UNL     1      28.897 -23.426 -17.971  0.00  0.00    +0.144 HD
ATOM     36  H   UNL     1      26.876 -21.873 -15.586  0.00  0.00    +0.188 HD
ENDBRANCH  26  33
ENDBRANCH  24  25
ENDBRANCH   6  24
TORSDOF 6
ENDMDL
MODEL 9
REMARK VINA RESULT:     -10.9     10.204     14.194
REMARK  Name = 4470378
REMARK  6 active torsions:
REMARK  status: ('A' for Active; 'I' for Inactive)
REMARK    1  A    between atoms: C_5  and  O_10
REMARK    2  A    between atoms: C_6  and  O_24
REMARK    3  A    between atoms: O_10  and  C_11
REMARK    4  A    between atoms: C_12  and  C_19
REMARK    5  A    between atoms: O_24  and  C_25
REMARK    6  A    between atoms: C_26  and  C_33
REMARK                            x       y       z     vdW  Elec       q    Type
REMARK                         _______ _______ _______ _____ _____    ______ ____
ROOT
ATOM      1  F   UNL     1      38.278 -20.579 -16.927  0.00  0.00    -0.221 F 
ATOM      2  F   UNL     1      34.679 -21.952 -19.711  0.00  0.00    -0.199 F 
ATOM      3  N   UNL     1      35.499 -22.822 -16.286  0.00  0.00    -0.331 NA
ATOM      4  C   UNL     1      36.498 -21.235 -18.359  0.00  0.00    +0.031 C 
ATOM      5  C   UNL     1      36.624 -22.085 -16.141  0.00  0.00    +0.298 C 
ATOM      6  C   UNL     1      34.897 -22.742 -17.486  0.00  0.00    +0.312 C 
ATOM      7  C   UNL     1      37.159 -21.283 -17.137  0.00  0.00    +0.270 C 
ATOM      8  C   UNL     1      35.338 -21.980 -18.546  0.00  0.00    +0.201 C 
ATOM      9  C   UNL     1      37.031 -20.390 -19.466  0.00  0.00    +0.032 C 
ENDROOT
BRANCH   5  10
ATOM     10  O   UNL     1      37.257 -22.150 -14.929  0.00  0.00    -0.428 OA
BRANCH  10  11
ATOM     11  C   UNL     1      37.403 -23.397 -14.355  0.00  0.00    +0.148 C 
ATOM     12  C   UNL     1      38.482 -25.539 -14.295  0.00  0.00    +0.032 C 
ATOM     13  C   UNL     1      38.337 -24.278 -14.875  0.00  0.00    +0.040 C 
ATOM     14  C   UNL     1      36.611 -23.741 -13.271  0.00  0.00    +0.038 C 
ATOM     15  C   UNL     1      37.693 -25.900 -13.203  0.00  0.00    +0.003 C 
ATOM     16  C   UNL     1      36.757 -25.001 -12.691  0.00  0.00    +0.003 C 
BRANCH  12  19
ATOM     17  N   UNL     1      40.638 -26.641 -14.216  0.00  0.00    -0.387 N 
ATOM     18  N   UNL     1      39.182 -27.177 -15.936  0.00  0.00    -0.345 N 
ATOM     19  C   UNL     1      39.452 -26.471 -14.825  0.00  0.00    +0.096 C 
ATOM     20  H   UNL     1      41.293 -27.277 -14.583  0.00  0.00    +0.157 HD
ATOM     21  H   UNL     1      40.851 -26.130 -13.401  0.00  0.00    +0.157 HD
ATOM     22  H   UNL     1      39.848 -27.809 -16.292  0.00  0.00    +0.144 HD
ATOM     23  H   UNL     1      38.318 -27.062 -16.394  0.00  0.00    +0.144 HD
ENDBRANCH  12  19
ENDBRANCH  10  11
ENDBRANCH   5  10
BRANCH   6  24
ATOM     24  O   UNL     1      33.745 -23.494 -17.645  0.00  0.00    -0.426 OA
BRANCH  24  25
ATOM     25  C   UNL     1      32.746 -23.320 -16.739  0.00  0.00    +0.148 C 
ATOM     26  C   UNL     1      31.733 -23.857 -14.612  0.00  0.00    +0.034 C 
ATOM     27  C   UNL     1      32.758 -24.035 -15.541  0.00  0.00    +0.040 C 
ATOM     28  C   UNL     1      31.707 -22.429 -17.008  0.00  0.00    +0.038 C 
ATOM     29  C   UNL     1      30.694 -22.966 -14.881  0.00  0.00    +0.003 C 
ATOM     30  C   UNL     1      30.682 -22.252 -16.079  0.00  0.00    +0.003 C 
BRANCH  26  33
ATOM     31  N   UNL     1      30.562 -24.958 -12.719  0.00  0.00    -0.343 N 
ATOM     32  N   UNL     1      32.897 -24.949 -12.815  0.00  0.00    -0.285 NA
ATOM     33  C   UNL     1      31.746 -24.602 -13.363  0.00  0.00    +0.117 C 
ATOM     34  H   UNL     1      30.594 -25.463 -11.874  0.00  0.00    +0.144 HD
ATOM     35  H   UNL     1      29.694 -24.707 -13.109  0.00  0.00    +0.144 HD
ATOM     36  H   UNL     1      32.908 -25.453 -11.970  0.00  0.00    +0.188 HD
ENDBRANCH  26  33
ENDBRANCH  24  25
ENDBRANCH   6  24
TORSDOF 6
ENDMDL
