MODEL 1
REMARK VINA RESULT:     -11.1      0.000      0.000
REMARK  Name = 11677589
REMARK  7 active torsions:
REMARK  status: ('A' for Active; 'I' for Inactive)
REMARK    1  A    between atoms: C_1  and  N_7
REMARK    2  A    between atoms: C_2  and  C_20
REMARK    3  A    between atoms: C_11  and  C_18
REMARK    4  A    between atoms: C_20  and  C_21
REMARK    5  A    between atoms: C_21  and  N_23
REMARK    6  A    between atoms: N_24  and  S_28
REMARK    7  A    between atoms: S_28  and  C_31
REMARK                            x       y       z     vdW  Elec       q    Type
REMARK                         _______ _______ _______ _____ _____    ______ ____
ROOT
ATOM      1  C   UNL     1      33.616  -7.564 -23.390  0.00  0.00    +0.058 C 
ATOM      2  C   UNL     1      34.406 -10.082 -24.253  0.00  0.00    -0.020 C 
ATOM      3  C   UNL     1      32.682  -8.590 -23.455  0.00  0.00    +0.015 C 
ATOM      4  C   UNL     1      34.940  -7.780 -23.751  0.00  0.00    +0.015 C 
ATOM      5  C   UNL     1      33.079  -9.855 -23.889  0.00  0.00    -0.003 C 
ATOM      6  C   UNL     1      35.337  -9.045 -24.185  0.00  0.00    -0.003 C 
ENDROOT
BRANCH   1   7
ATOM      7  N   UNL     1      33.220  -6.298 -22.957  0.00  0.00    -0.242 N 
ATOM      8  N   UNL     1      32.653  -4.655 -21.570  0.00  0.00    -0.387 NA
ATOM      9  N   UNL     1      32.283  -2.741 -24.719  0.00  0.00    -0.408 NA
ATOM     10  C   UNL     1      32.952  -5.218 -23.758  0.00  0.00    +0.091 C 
ATOM     11  C   UNL     1      33.028  -5.912 -21.659  0.00  0.00    +0.168 C 
ATOM     12  C   UNL     1      32.601  -4.207 -22.868  0.00  0.00    +0.172 C 
ATOM     13  C   UNL     1      32.983  -5.041 -25.134  0.00  0.00    +0.045 C 
ATOM     14  C   UNL     1      32.265  -2.954 -23.380  0.00  0.00    +0.140 C 
ATOM     15  C   UNL     1      32.632  -3.761 -25.541  0.00  0.00    +0.110 C 
ATOM     16  C   UNL     1      31.874  -1.799 -22.521  0.00  0.00    +0.069 C 
ATOM     17  C   UNL     1      32.631  -3.454 -27.003  0.00  0.00    +0.066 C 
BRANCH  11  18
ATOM     18  C   UNL     1      33.227  -6.830 -20.516  0.00  0.00    +0.075 C 
ATOM     19  C   UNL     1      31.909  -7.392 -19.974  0.00  0.00    +0.009 C 
ENDBRANCH  11  18
ENDBRANCH   1   7
BRANCH   2  20
ATOM     20  C   UNL     1      34.830 -11.435 -24.717  0.00  0.00    +0.048 C 
BRANCH  20  21
ATOM     21  C   UNL     1      33.712 -12.482 -24.657  0.00  0.00    +0.096 C 
BRANCH  21  23
ATOM     22  O   UNL     1      33.542 -15.100 -25.828  0.00  0.00    -0.251 OA
ATOM     23  N   UNL     1      34.154 -13.721 -24.074  0.00  0.00    -0.287 N 
ATOM     24  N   UNL     1      34.539 -16.030 -23.930  0.00  0.00    -0.169 N 
ATOM     25  C   UNL     1      34.032 -14.944 -24.713  0.00  0.00    +0.319 C 
ATOM     26  H   UNL     1      34.561 -13.698 -23.178  0.00  0.00    +0.151 HD
ATOM     27  H   UNL     1      34.911 -15.814 -23.045  0.00  0.00    +0.178 HD
BRANCH  24  28
ATOM     28  S   UNL     1      34.549 -17.672 -24.406  0.00  0.00    +0.077 S 
ATOM     29  O   UNL     1      33.184 -18.135 -24.563  0.00  0.00    -0.150 OA
ATOM     30  O   UNL     1      35.515 -17.855 -25.473  0.00  0.00    -0.150 OA
BRANCH  28  31
ATOM     31  C   UNL     1      35.228 -18.438 -22.966  0.00  0.00    +0.125 C 
ATOM     32  C   UNL     1      36.558 -18.220 -22.647  0.00  0.00    +0.020 C 
ATOM     33  C   UNL     1      34.418 -19.241 -22.182  0.00  0.00    +0.020 C 
ATOM     34  C   UNL     1      36.291 -19.637 -20.709  0.00  0.00    -0.022 C 
ATOM     35  C   UNL     1      37.093 -18.825 -21.509  0.00  0.00    -0.003 C 
ATOM     36  C   UNL     1      34.954 -19.845 -21.044  0.00  0.00    -0.003 C 
ATOM     37  C   UNL     1      36.864 -20.282 -19.492  0.00  0.00    +0.031 C 
ENDBRANCH  28  31
ENDBRANCH  24  28
ENDBRANCH  21  23
ENDBRANCH  20  21
ENDBRANCH   2  20
TORSDOF 7
ENDMDL
MODEL 2
REMARK VINA RESULT:     -11.0      3.547      6.208
REMARK  Name = 11677589
REMARK  7 active torsions:
REMARK  status: ('A' for Active; 'I' for Inactive)
REMARK    1  A    between atoms: C_1  and  N_7
REMARK    2  A    between atoms: C_2  and  C_20
REMARK    3  A    between atoms: C_11  and  C_18
REMARK    4  A    between atoms: C_20  and  C_21
REMARK    5  A    between atoms: C_21  and  N_23
REMARK    6  A    between atoms: N_24  and  S_28
REMARK    7  A    between atoms: S_28  and  C_31
REMARK                            x       y       z     vdW  Elec       q    Type
REMARK                         _______ _______ _______ _____ _____    ______ ____
ROOT
ATOM      1  C   UNL     1      34.047 -12.671 -23.684  0.00  0.00    +0.058 C 
ATOM      2  C   UNL     1      34.499 -15.408 -23.789  0.00  0.00    -0.020 C 
ATOM      3  C   UNL     1      34.717 -13.295 -22.639  0.00  0.00    +0.015 C 
ATOM      4  C   UNL     1      33.601 -13.397 -24.780  0.00  0.00    +0.015 C 
ATOM      5  C   UNL     1      34.943 -14.671 -22.692  0.00  0.00    -0.003 C 
ATOM      6  C   UNL     1      33.827 -14.772 -24.833  0.00  0.00    -0.003 C 
ENDROOT
BRANCH   1   7
ATOM      7  N   UNL     1      33.820 -11.295 -23.631  0.00  0.00    -0.242 N 
ATOM      8  N   UNL     1      33.942  -9.143 -24.176  0.00  0.00    -0.387 NA
ATOM      9  N   UNL     1      31.684  -8.750 -21.265  0.00  0.00    -0.408 NA
ATOM     10  C   UNL     1      33.037 -10.641 -22.716  0.00  0.00    +0.091 C 
ATOM     11  C   UNL     1      34.338 -10.358 -24.482  0.00  0.00    +0.168 C 
ATOM     12  C   UNL     1      33.130  -9.300 -23.077  0.00  0.00    +0.172 C 
ATOM     13  C   UNL     1      32.282 -11.086 -21.639  0.00  0.00    +0.045 C 
ATOM     14  C   UNL     1      32.432  -8.355 -22.325  0.00  0.00    +0.140 C 
ATOM     15  C   UNL     1      31.628 -10.069 -20.957  0.00  0.00    +0.110 C 
ATOM     16  C   UNL     1      32.460  -6.893 -22.622  0.00  0.00    +0.069 C 
ATOM     17  C   UNL     1      30.784 -10.431 -19.779  0.00  0.00    +0.066 C 
BRANCH  11  18
ATOM     18  C   UNL     1      35.236 -10.709 -25.604  0.00  0.00    +0.075 C 
ATOM     19  C   UNL     1      36.325  -9.656 -25.840  0.00  0.00    +0.009 C 
ENDBRANCH  11  18
ENDBRANCH   1   7
BRANCH   2  20
ATOM     20  C   UNL     1      34.741 -16.879 -23.845  0.00  0.00    +0.048 C 
BRANCH  20  21
ATOM     21  C   UNL     1      35.913 -17.341 -22.971  0.00  0.00    +0.096 C 
BRANCH  21  23
ATOM     22  O   UNL     1      37.627 -18.893 -21.267  0.00  0.00    -0.251 OA
ATOM     23  N   UNL     1      35.507 -18.296 -21.974  0.00  0.00    -0.287 N 
ATOM     24  N   UNL     1      35.763 -19.896 -20.278  0.00  0.00    -0.169 N 
ATOM     25  C   UNL     1      36.407 -19.004 -21.193  0.00  0.00    +0.319 C 
ATOM     26  H   UNL     1      34.545 -18.455 -21.841  0.00  0.00    +0.151 HD
ATOM     27  H   UNL     1      34.779 -19.923 -20.290  0.00  0.00    +0.178 HD
BRANCH  24  28
ATOM     28  S   UNL     1      36.563 -20.920 -19.167  0.00  0.00    +0.077 S 
ATOM     29  O   UNL     1      37.254 -21.969 -19.893  0.00  0.00    -0.150 OA
ATOM     30  O   UNL     1      37.270 -20.111 -18.193  0.00  0.00    -0.150 OA
BRANCH  28  31
ATOM     31  C   UNL     1      35.188 -21.646 -18.326  0.00  0.00    +0.125 C 
ATOM     32  C   UNL     1      35.398 -22.297 -17.123  0.00  0.00    +0.020 C 
ATOM     33  C   UNL     1      33.926 -21.551 -18.887  0.00  0.00    +0.020 C 
ATOM     34  C   UNL     1      33.035 -22.783 -17.010  0.00  0.00    -0.022 C 
ATOM     35  C   UNL     1      34.313 -22.870 -16.459  0.00  0.00    -0.003 C 
ATOM     36  C   UNL     1      32.841 -22.123 -18.223  0.00  0.00    -0.003 C 
ATOM     37  C   UNL     1      31.875 -23.394 -16.299  0.00  0.00    +0.031 C 
ENDBRANCH  28  31
ENDBRANCH  24  28
ENDBRANCH  21  23
ENDBRANCH  20  21
ENDBRANCH   2  20
TORSDOF 7
ENDMDL
MODEL 3
REMARK VINA RESULT:     -10.9      5.868     14.810
REMARK  Name = 11677589
REMARK  7 active torsions:
REMARK  status: ('A' for Active; 'I' for Inactive)
REMARK    1  A    between atoms: C_1  and  N_7
REMARK    2  A    between atoms: C_2  and  C_20
REMARK    3  A    between atoms: C_11  and  C_18
REMARK    4  A    between atoms: C_20  and  C_21
REMARK    5  A    between atoms: C_21  and  N_23
REMARK    6  A    between atoms: N_24  and  S_28
REMARK    7  A    between atoms: S_28  and  C_31
REMARK                            x       y       z     vdW  Elec       q    Type
REMARK                         _______ _______ _______ _____ _____    ______ ____
ROOT
ATOM      1  C   UNL     1      34.578 -22.718 -17.011  0.00  0.00    +0.058 C 
ATOM      2  C   UNL     1      35.886 -21.576 -19.177  0.00  0.00    -0.020 C 
ATOM      3  C   UNL     1      33.984 -22.753 -18.266  0.00  0.00    +0.015 C 
ATOM      4  C   UNL     1      35.818 -22.120 -16.825  0.00  0.00    +0.015 C 
ATOM      5  C   UNL     1      34.641 -22.178 -19.354  0.00  0.00    -0.003 C 
ATOM      6  C   UNL     1      36.475 -21.545 -17.913  0.00  0.00    -0.003 C 
ENDROOT
BRANCH   1   7
ATOM      7  N   UNL     1      33.921 -23.292 -15.921  0.00  0.00    -0.242 N 
ATOM      8  N   UNL     1      33.626 -24.400 -14.016  0.00  0.00    -0.387 NA
ATOM      9  N   UNL     1      30.062 -23.604 -14.639  0.00  0.00    -0.408 NA
ATOM     10  C   UNL     1      32.570 -23.270 -15.691  0.00  0.00    +0.091 C 
ATOM     11  C   UNL     1      34.508 -23.978 -14.894  0.00  0.00    +0.168 C 
ATOM     12  C   UNL     1      32.412 -23.968 -14.497  0.00  0.00    +0.172 C 
ATOM     13  C   UNL     1      31.508 -22.722 -16.395  0.00  0.00    +0.045 C 
ATOM     14  C   UNL     1      31.126 -24.125 -13.980  0.00  0.00    +0.140 C 
ATOM     15  C   UNL     1      30.273 -22.933 -15.798  0.00  0.00    +0.110 C 
ATOM     16  C   UNL     1      30.841 -24.853 -12.710  0.00  0.00    +0.069 C 
ATOM     17  C   UNL     1      29.054 -22.387 -16.469  0.00  0.00    +0.066 C 
BRANCH  11  18
ATOM     18  C   UNL     1      35.969 -24.199 -14.815  0.00  0.00    +0.075 C 
ATOM     19  C   UNL     1      36.351 -25.674 -14.971  0.00  0.00    +0.009 C 
ENDBRANCH  11  18
ENDBRANCH   1   7
BRANCH   2  20
ATOM     20  C   UNL     1      36.588 -20.961 -20.341  0.00  0.00    +0.048 C 
BRANCH  20  21
ATOM     21  C   UNL     1      36.617 -19.429 -20.300  0.00  0.00    +0.096 C 
BRANCH  21  23
ATOM     22  O   UNL     1      36.760 -18.621 -23.053  0.00  0.00    -0.251 OA
ATOM     23  N   UNL     1      35.565 -18.841 -21.085  0.00  0.00    -0.287 N 
ATOM     24  N   UNL     1      34.535 -17.911 -22.977  0.00  0.00    -0.169 N 
ATOM     25  C   UNL     1      35.722 -18.480 -22.413  0.00  0.00    +0.319 C 
ATOM     26  H   UNL     1      34.691 -18.687 -20.658  0.00  0.00    +0.151 HD
ATOM     27  H   UNL     1      33.749 -17.833 -22.389  0.00  0.00    +0.178 HD
BRANCH  24  28
ATOM     28  S   UNL     1      34.372 -17.357 -24.585  0.00  0.00    +0.077 S 
ATOM     29  O   UNL     1      35.593 -17.636 -25.316  0.00  0.00    -0.150 OA
ATOM     30  O   UNL     1      33.088 -17.781 -25.110  0.00  0.00    -0.150 OA
BRANCH  28  31
ATOM     31  C   UNL     1      34.268 -15.611 -24.332  0.00  0.00    +0.125 C 
ATOM     32  C   UNL     1      34.799 -15.062 -23.178  0.00  0.00    +0.020 C 
ATOM     33  C   UNL     1      33.658 -14.824 -25.293  0.00  0.00    +0.020 C 
ATOM     34  C   UNL     1      34.106 -12.876 -23.937  0.00  0.00    -0.022 C 
ATOM     35  C   UNL     1      34.718 -13.683 -22.979  0.00  0.00    -0.003 C 
ATOM     36  C   UNL     1      33.576 -13.445 -25.094  0.00  0.00    -0.003 C 
ATOM     37  C   UNL     1      34.020 -11.403 -23.724  0.00  0.00    +0.031 C 
ENDBRANCH  28  31
ENDBRANCH  24  28
ENDBRANCH  21  23
ENDBRANCH  20  21
ENDBRANCH   2  20
TORSDOF 7
ENDMDL
MODEL 4
REMARK VINA RESULT:     -10.9      5.366     14.446
REMARK  Name = 11677589
REMARK  7 active torsions:
REMARK  status: ('A' for Active; 'I' for Inactive)
REMARK    1  A    between atoms: C_1  and  N_7
REMARK    2  A    between atoms: C_2  and  C_20
REMARK    3  A    between atoms: C_11  and  C_18
REMARK    4  A    between atoms: C_20  and  C_21
REMARK    5  A    between atoms: C_21  and  N_23
REMARK    6  A    between atoms: N_24  and  S_28
REMARK    7  A    between atoms: S_28  and  C_31
REMARK                            x       y       z     vdW  Elec       q    Type
REMARK                         _______ _______ _______ _____ _____    ______ ____
ROOT
ATOM      1  C   UNL     1      34.331 -21.892 -17.998  0.00  0.00    +0.058 C 
ATOM      2  C   UNL     1      34.928 -20.471 -20.307  0.00  0.00    -0.020 C 
ATOM      3  C   UNL     1      33.299 -21.396 -18.783  0.00  0.00    +0.015 C 
ATOM      4  C   UNL     1      35.658 -21.687 -18.352  0.00  0.00    +0.015 C 
ATOM      5  C   UNL     1      33.599 -20.682 -19.943  0.00  0.00    -0.003 C 
ATOM      6  C   UNL     1      35.959 -20.973 -19.512  0.00  0.00    -0.003 C 
ENDROOT
BRANCH   1   7
ATOM      7  N   UNL     1      34.032 -22.607 -16.837  0.00  0.00    -0.242 N 
ATOM      8  N   UNL     1      34.348 -23.747 -14.955  0.00  0.00    -0.387 NA
ATOM      9  N   UNL     1      30.645 -23.855 -14.938  0.00  0.00    -0.408 NA
ATOM     10  C   UNL     1      32.777 -22.917 -16.382  0.00  0.00    +0.091 C 
ATOM     11  C   UNL     1      34.936 -23.123 -15.951  0.00  0.00    +0.168 C 
ATOM     12  C   UNL     1      33.002 -23.629 -15.207  0.00  0.00    +0.172 C 
ATOM     13  C   UNL     1      31.508 -22.650 -16.876  0.00  0.00    +0.045 C 
ATOM     14  C   UNL     1      31.902 -24.096 -14.488  0.00  0.00    +0.140 C 
ATOM     15  C   UNL     1      30.483 -23.157 -16.089  0.00  0.00    +0.110 C 
ATOM     16  C   UNL     1      32.025 -24.868 -13.218  0.00  0.00    +0.069 C 
ATOM     17  C   UNL     1      29.072 -22.930 -16.523  0.00  0.00    +0.066 C 
BRANCH  11  18
ATOM     18  C   UNL     1      36.398 -22.978 -16.127  0.00  0.00    +0.075 C 
ATOM     19  C   UNL     1      37.199 -23.816 -15.126  0.00  0.00    +0.009 C 
ENDBRANCH  11  18
ENDBRANCH   1   7
BRANCH   2  20
ATOM     20  C   UNL     1      35.249 -19.706 -21.547  0.00  0.00    +0.048 C 
BRANCH  20  21
ATOM     21  C   UNL     1      36.281 -18.593 -21.331  0.00  0.00    +0.096 C 
BRANCH  21  23
ATOM     22  O   UNL     1      35.541 -16.948 -23.567  0.00  0.00    -0.251 OA
ATOM     23  N   UNL     1      35.675 -17.289 -21.283  0.00  0.00    -0.287 N 
ATOM     24  N   UNL     1      34.764 -15.293 -22.113  0.00  0.00    -0.169 N 
ATOM     25  C   UNL     1      35.350 -16.563 -22.417  0.00  0.00    +0.319 C 
ATOM     26  H   UNL     1      35.483 -16.893 -20.403  0.00  0.00    +0.151 HD
ATOM     27  H   UNL     1      34.652 -15.064 -21.162  0.00  0.00    +0.178 HD
BRANCH  24  28
ATOM     28  S   UNL     1      34.243 -14.142 -23.264  0.00  0.00    +0.077 S 
ATOM     29  O   UNL     1      35.396 -13.445 -23.802  0.00  0.00    -0.150 OA
ATOM     30  O   UNL     1      33.276 -14.757 -24.153  0.00  0.00    -0.150 OA
BRANCH  28  31
ATOM     31  C   UNL     1      33.349 -13.016 -22.237  0.00  0.00    +0.125 C 
ATOM     32  C   UNL     1      33.046 -11.754 -22.720  0.00  0.00    +0.020 C 
ATOM     33  C   UNL     1      32.968 -13.416 -20.968  0.00  0.00    +0.020 C 
ATOM     34  C   UNL     1      31.948 -11.253 -20.627  0.00  0.00    -0.022 C 
ATOM     35  C   UNL     1      32.340 -10.866 -21.908  0.00  0.00    -0.003 C 
ATOM     36  C   UNL     1      32.261 -12.528 -20.157  0.00  0.00    -0.003 C 
ATOM     37  C   UNL     1      31.192 -10.303 -19.761  0.00  0.00    +0.031 C 
ENDBRANCH  28  31
ENDBRANCH  24  28
ENDBRANCH  21  23
ENDBRANCH  20  21
ENDBRANCH   2  20
TORSDOF 7
ENDMDL
MODEL 5
REMARK VINA RESULT:     -10.8      5.746     15.504
REMARK  Name = 11677589
REMARK  7 active torsions:
REMARK  status: ('A' for Active; 'I' for Inactive)
REMARK    1  A    between atoms: C_1  and  N_7
REMARK    2  A    between atoms: C_2  and  C_20
REMARK    3  A    between atoms: C_11  and  C_18
REMARK    4  A    between atoms: C_20  and  C_21
REMARK    5  A    between atoms: C_21  and  N_23
REMARK    6  A    between atoms: N_24  and  S_28
REMARK    7  A    between atoms: S_28  and  C_31
REMARK                            x       y       z     vdW  Elec       q    Type
REMARK                         _______ _______ _______ _____ _____    ______ ____
ROOT
ATOM      1  C   UNL     1      35.401 -22.629 -16.541  0.00  0.00    +0.058 C 
ATOM      2  C   UNL     1      35.216 -21.417 -19.032  0.00  0.00    -0.020 C 
ATOM      3  C   UNL     1      36.473 -21.891 -17.025  0.00  0.00    +0.015 C 
ATOM      4  C   UNL     1      34.238 -22.769 -17.286  0.00  0.00    +0.015 C 
ATOM      5  C   UNL     1      36.380 -21.282 -18.276  0.00  0.00    -0.003 C 
ATOM      6  C   UNL     1      34.144 -22.160 -18.537  0.00  0.00    -0.003 C 
ENDROOT
BRANCH   1   7
ATOM      7  N   UNL     1      35.494 -23.239 -15.289  0.00  0.00    -0.242 N 
ATOM      8  N   UNL     1      34.886 -23.966 -13.277  0.00  0.00    -0.387 NA
ATOM      9  N   UNL     1      38.386 -25.174 -13.161  0.00  0.00    -0.408 NA
ATOM     10  C   UNL     1      36.606 -23.847 -14.768  0.00  0.00    +0.091 C 
ATOM     11  C   UNL     1      34.493 -23.336 -14.362  0.00  0.00    +0.168 C 
ATOM     12  C   UNL     1      36.201 -24.291 -13.513  0.00  0.00    +0.172 C 
ATOM     13  C   UNL     1      37.888 -24.041 -15.264  0.00  0.00    +0.045 C 
ATOM     14  C   UNL     1      37.123 -24.965 -12.712  0.00  0.00    +0.140 C 
ATOM     15  C   UNL     1      38.728 -24.720 -14.392  0.00  0.00    +0.110 C 
ATOM     16  C   UNL     1      36.798 -25.485 -11.353  0.00  0.00    +0.069 C 
ATOM     17  C   UNL     1      40.134 -24.986 -14.821  0.00  0.00    +0.066 C 
BRANCH  11  18
ATOM     18  C   UNL     1      33.140 -22.783 -14.589  0.00  0.00    +0.075 C 
ATOM     19  C   UNL     1      32.068 -23.481 -13.744  0.00  0.00    +0.009 C 
ENDBRANCH  11  18
ENDBRANCH   1   7
BRANCH   2  20
ATOM     20  C   UNL     1      35.117 -20.766 -20.371  0.00  0.00    +0.048 C 
BRANCH  20  21
ATOM     21  C   UNL     1      36.209 -19.721 -20.626  0.00  0.00    +0.096 C 
BRANCH  21  23
ATOM     22  O   UNL     1      35.611 -19.332 -23.409  0.00  0.00    -0.251 OA
ATOM     23  N   UNL     1      35.691 -18.529 -21.241  0.00  0.00    -0.287 N 
ATOM     24  N   UNL     1      34.926 -17.141 -22.972  0.00  0.00    -0.169 N 
ATOM     25  C   UNL     1      35.430 -18.428 -22.599  0.00  0.00    +0.319 C 
ATOM     26  H   UNL     1      35.514 -17.746 -20.671  0.00  0.00    +0.151 HD
ATOM     27  H   UNL     1      34.817 -16.474 -22.256  0.00  0.00    +0.178 HD
BRANCH  24  28
ATOM     28  S   UNL     1      34.499 -16.669 -24.558  0.00  0.00    +0.077 S 
ATOM     29  O   UNL     1      35.625 -16.891 -25.445  0.00  0.00    -0.150 OA
ATOM     30  O   UNL     1      33.191 -17.206 -24.882  0.00  0.00    -0.150 OA
BRANCH  28  31
ATOM     31  C   UNL     1      34.298 -14.926 -24.349  0.00  0.00    +0.125 C 
ATOM     32  C   UNL     1      33.784 -14.174 -25.391  0.00  0.00    +0.020 C 
ATOM     33  C   UNL     1      34.658 -14.343 -23.146  0.00  0.00    +0.020 C 
ATOM     34  C   UNL     1      33.983 -12.195 -24.020  0.00  0.00    -0.022 C 
ATOM     35  C   UNL     1      33.625 -12.798 -25.225  0.00  0.00    -0.003 C 
ATOM     36  C   UNL     1      34.500 -12.967 -22.980  0.00  0.00    -0.003 C 
ATOM     37  C   UNL     1      33.812 -10.724 -23.843  0.00  0.00    +0.031 C 
ENDBRANCH  28  31
ENDBRANCH  24  28
ENDBRANCH  21  23
ENDBRANCH  20  21
ENDBRANCH   2  20
TORSDOF 7
ENDMDL
MODEL 6
REMARK VINA RESULT:     -10.8      4.964     14.004
REMARK  Name = 11677589
REMARK  7 active torsions:
REMARK  status: ('A' for Active; 'I' for Inactive)
REMARK    1  A    between atoms: C_1  and  N_7
REMARK    2  A    between atoms: C_2  and  C_20
REMARK    3  A    between atoms: C_11  and  C_18
REMARK    4  A    between atoms: C_20  and  C_21
REMARK    5  A    between atoms: C_21  and  N_23
REMARK    6  A    between atoms: N_24  and  S_28
REMARK    7  A    between atoms: S_28  and  C_31
REMARK                            x       y       z     vdW  Elec       q    Type
REMARK                         _______ _______ _______ _____ _____    ______ ____
ROOT
ATOM      1  C   UNL     1      34.686 -21.278 -18.856  0.00  0.00    +0.058 C 
ATOM      2  C   UNL     1      34.647 -19.839 -21.230  0.00  0.00    -0.020 C 
ATOM      3  C   UNL     1      35.884 -20.932 -19.467  0.00  0.00    +0.015 C 
ATOM      4  C   UNL     1      33.469 -20.915 -19.416  0.00  0.00    +0.015 C 
ATOM      5  C   UNL     1      35.864 -20.209 -20.660  0.00  0.00    -0.003 C 
ATOM      6  C   UNL     1      33.448 -20.192 -20.609  0.00  0.00    -0.003 C 
ENDROOT
BRANCH   1   7
ATOM      7  N   UNL     1      34.705 -22.002 -17.663  0.00  0.00    -0.242 N 
ATOM      8  N   UNL     1      35.513 -23.043 -15.872  0.00  0.00    -0.387 NA
ATOM      9  N   UNL     1      31.928 -23.677 -15.190  0.00  0.00    -0.408 NA
ATOM     10  C   UNL     1      33.610 -22.477 -16.990  0.00  0.00    +0.091 C 
ATOM     11  C   UNL     1      35.818 -22.365 -16.956  0.00  0.00    +0.168 C 
ATOM     12  C   UNL     1      34.141 -23.123 -15.878  0.00  0.00    +0.172 C 
ATOM     13  C   UNL     1      32.247 -22.404 -17.247  0.00  0.00    +0.045 C 
ATOM     14  C   UNL     1      33.266 -23.726 -14.974  0.00  0.00    +0.140 C 
ATOM     15  C   UNL     1      31.464 -23.034 -16.290  0.00  0.00    +0.110 C 
ATOM     16  C   UNL     1      33.724 -24.443 -13.749  0.00  0.00    +0.069 C 
ATOM     17  C   UNL     1      29.980 -23.020 -16.462  0.00  0.00    +0.066 C 
BRANCH  11  18
ATOM     18  C   UNL     1      37.188 -22.017 -17.392  0.00  0.00    +0.075 C 
ATOM     19  C   UNL     1      37.861 -20.996 -16.468  0.00  0.00    +0.009 C 
ENDBRANCH  11  18
ENDBRANCH   1   7
BRANCH   2  20
ATOM     20  C   UNL     1      34.626 -19.067 -22.506  0.00  0.00    +0.048 C 
BRANCH  20  21
ATOM     21  C   UNL     1      35.783 -18.070 -22.638  0.00  0.00    +0.096 C 
BRANCH  21  23
ATOM     22  O   UNL     1      34.663 -16.189 -24.499  0.00  0.00    -0.251 OA
ATOM     23  N   UNL     1      35.374 -16.719 -22.362  0.00  0.00    -0.287 N 
ATOM     24  N   UNL     1      34.517 -14.581 -22.810  0.00  0.00    -0.169 N 
ATOM     25  C   UNL     1      34.841 -15.877 -23.325  0.00  0.00    +0.319 C 
ATOM     26  H   UNL     1      35.479 -16.375 -21.446  0.00  0.00    +0.151 HD
ATOM     27  H   UNL     1      34.697 -14.416 -21.856  0.00  0.00    +0.178 HD
BRANCH  24  28
ATOM     28  S   UNL     1      33.844 -13.297 -23.715  0.00  0.00    +0.077 S 
ATOM     29  O   UNL     1      34.912 -12.490 -24.272  0.00  0.00    -0.150 OA
ATOM     30  O   UNL     1      32.790 -13.813 -24.568  0.00  0.00    -0.150 OA
BRANCH  28  31
ATOM     31  C   UNL     1      33.056 -12.361 -22.440  0.00  0.00    +0.125 C 
ATOM     32  C   UNL     1      32.794 -12.964 -21.221  0.00  0.00    +0.020 C 
ATOM     33  C   UNL     1      32.714 -11.042 -22.682  0.00  0.00    +0.020 C 
ATOM     34  C   UNL     1      31.821 -10.894 -20.442  0.00  0.00    -0.022 C 
ATOM     35  C   UNL     1      32.172 -12.225 -20.215  0.00  0.00    -0.003 C 
ATOM     36  C   UNL     1      32.092 -10.303 -21.676  0.00  0.00    -0.003 C 
ATOM     37  C   UNL     1      31.158 -10.104 -19.366  0.00  0.00    +0.031 C 
ENDBRANCH  28  31
ENDBRANCH  24  28
ENDBRANCH  21  23
ENDBRANCH  20  21
ENDBRANCH   2  20
TORSDOF 7
ENDMDL
MODEL 7
REMARK VINA RESULT:     -10.5      7.556     11.886
REMARK  Name = 11677589
REMARK  7 active torsions:
REMARK  status: ('A' for Active; 'I' for Inactive)
REMARK    1  A    between atoms: C_1  and  N_7
REMARK    2  A    between atoms: C_2  and  C_20
REMARK    3  A    between atoms: C_11  and  C_18
REMARK    4  A    between atoms: C_20  and  C_21
REMARK    5  A    between atoms: C_21  and  N_23
REMARK    6  A    between atoms: N_24  and  S_28
REMARK    7  A    between atoms: S_28  and  C_31
REMARK                            x       y       z     vdW  Elec       q    Type
REMARK                         _______ _______ _______ _____ _____    ______ ____
ROOT
ATOM      1  C   UNL     1      35.644 -18.862 -21.474  0.00  0.00    +0.058 C 
ATOM      2  C   UNL     1      36.181 -20.708 -19.471  0.00  0.00    -0.020 C 
ATOM      3  C   UNL     1      36.938 -18.984 -20.984  0.00  0.00    +0.015 C 
ATOM      4  C   UNL     1      34.615 -19.651 -20.976  0.00  0.00    +0.015 C 
ATOM      5  C   UNL     1      37.207 -19.911 -19.977  0.00  0.00    -0.003 C 
ATOM      6  C   UNL     1      34.884 -20.578 -19.969  0.00  0.00    -0.003 C 
ENDROOT
BRANCH   1   7
ATOM      7  N   UNL     1      35.373 -17.935 -22.482  0.00  0.00    -0.242 N 
ATOM      8  N   UNL     1      35.072 -17.107 -24.523  0.00  0.00    -0.387 NA
ATOM      9  N   UNL     1      34.441 -13.968 -22.659  0.00  0.00    -0.408 NA
ATOM     10  C   UNL     1      35.074 -16.610 -22.299  0.00  0.00    +0.091 C 
ATOM     11  C   UNL     1      35.360 -18.183 -23.826  0.00  0.00    +0.168 C 
ATOM     12  C   UNL     1      34.891 -16.116 -23.587  0.00  0.00    +0.172 C 
ATOM     13  C   UNL     1      34.952 -15.824 -21.161  0.00  0.00    +0.045 C 
ATOM     14  C   UNL     1      34.568 -14.768 -23.747  0.00  0.00    +0.140 C 
ATOM     15  C   UNL     1      34.630 -14.501 -21.427  0.00  0.00    +0.110 C 
ATOM     16  C   UNL     1      34.350 -14.134 -25.079  0.00  0.00    +0.069 C 
ATOM     17  C   UNL     1      34.472 -13.561 -20.276  0.00  0.00    +0.066 C 
BRANCH  11  18
ATOM     18  C   UNL     1      35.642 -19.520 -24.393  0.00  0.00    +0.075 C 
ATOM     19  C   UNL     1      34.416 -20.147 -25.065  0.00  0.00    +0.009 C 
ENDBRANCH  11  18
ENDBRANCH   1   7
BRANCH   2  20
ATOM     20  C   UNL     1      36.469 -21.699 -18.393  0.00  0.00    +0.048 C 
BRANCH  20  21
ATOM     21  C   UNL     1      37.197 -21.096 -17.186  0.00  0.00    +0.096 C 
BRANCH  21  23
ATOM     22  O   UNL     1      36.388 -23.628 -16.094  0.00  0.00    -0.251 OA
ATOM     23  N   UNL     1      36.489 -21.321 -15.954  0.00  0.00    -0.287 N 
ATOM     24  N   UNL     1      35.434 -22.547 -14.255  0.00  0.00    -0.169 N 
ATOM     25  C   UNL     1      36.137 -22.582 -15.501  0.00  0.00    +0.319 C 
ATOM     26  H   UNL     1      36.241 -20.541 -15.407  0.00  0.00    +0.151 HD
ATOM     27  H   UNL     1      35.272 -21.664 -13.852  0.00  0.00    +0.178 HD
BRANCH  24  28
ATOM     28  S   UNL     1      34.852 -23.914 -13.410  0.00  0.00    +0.077 S 
ATOM     29  O   UNL     1      35.547 -25.099 -13.875  0.00  0.00    -0.150 OA
ATOM     30  O   UNL     1      34.787 -23.609 -11.993  0.00  0.00    -0.150 OA
BRANCH  28  31
ATOM     31  C   UNL     1      33.186 -23.988 -13.993  0.00  0.00    +0.125 C 
ATOM     32  C   UNL     1      32.767 -23.092 -14.961  0.00  0.00    +0.020 C 
ATOM     33  C   UNL     1      32.329 -24.942 -13.471  0.00  0.00    +0.020 C 
ATOM     34  C   UNL     1      30.575 -24.105 -14.907  0.00  0.00    -0.022 C 
ATOM     35  C   UNL     1      31.452 -23.151 -15.422  0.00  0.00    -0.003 C 
ATOM     36  C   UNL     1      31.013 -25.001 -13.932  0.00  0.00    -0.003 C 
ATOM     37  C   UNL     1      29.170 -24.169 -15.401  0.00  0.00    +0.031 C 
ENDBRANCH  28  31
ENDBRANCH  24  28
ENDBRANCH  21  23
ENDBRANCH  20  21
ENDBRANCH   2  20
TORSDOF 7
ENDMDL
MODEL 8
REMARK VINA RESULT:     -10.4      7.447     11.855
REMARK  Name = 11677589
REMARK  7 active torsions:
REMARK  status: ('A' for Active; 'I' for Inactive)
REMARK    1  A    between atoms: C_1  and  N_7
REMARK    2  A    between atoms: C_2  and  C_20
REMARK    3  A    between atoms: C_11  and  C_18
REMARK    4  A    between atoms: C_20  and  C_21
REMARK    5  A    between atoms: C_21  and  N_23
REMARK    6  A    between atoms: N_24  and  S_28
REMARK    7  A    between atoms: S_28  and  C_31
REMARK                            x       y       z     vdW  Elec       q    Type
REMARK                         _______ _______ _______ _____ _____    ______ ____
ROOT
ATOM      1  C   UNL     1      35.577 -18.616 -21.805  0.00  0.00    +0.058 C 
ATOM      2  C   UNL     1      36.135 -20.549 -19.891  0.00  0.00    -0.020 C 
ATOM      3  C   UNL     1      36.877 -18.765 -21.340  0.00  0.00    +0.015 C 
ATOM      4  C   UNL     1      34.552 -19.421 -21.326  0.00  0.00    +0.015 C 
ATOM      5  C   UNL     1      37.157 -19.736 -20.379  0.00  0.00    -0.003 C 
ATOM      6  C   UNL     1      34.831 -20.392 -20.364  0.00  0.00    -0.003 C 
ENDROOT
BRANCH   1   7
ATOM      7  N   UNL     1      35.296 -17.644 -22.766  0.00  0.00    -0.242 N 
ATOM      8  N   UNL     1      34.977 -16.725 -24.765  0.00  0.00    -0.387 NA
ATOM      9  N   UNL     1      34.353 -13.676 -22.756  0.00  0.00    -0.408 NA
ATOM     10  C   UNL     1      34.995 -16.330 -22.521  0.00  0.00    +0.091 C 
ATOM     11  C   UNL     1      35.273 -17.831 -24.121  0.00  0.00    +0.168 C 
ATOM     12  C   UNL     1      34.801 -15.778 -23.784  0.00  0.00    +0.172 C 
ATOM     13  C   UNL     1      34.880 -15.597 -21.348  0.00  0.00    +0.045 C 
ATOM     14  C   UNL     1      34.474 -14.425 -23.880  0.00  0.00    +0.140 C 
ATOM     15  C   UNL     1      34.553 -14.264 -21.551  0.00  0.00    +0.110 C 
ATOM     16  C   UNL     1      34.243 -13.732 -25.180  0.00  0.00    +0.069 C 
ATOM     17  C   UNL     1      34.402 -13.378 -20.357  0.00  0.00    +0.066 C 
BRANCH  11  18
ATOM     18  C   UNL     1      35.553 -19.140 -24.750  0.00  0.00    +0.075 C 
ATOM     19  C   UNL     1      34.289 -19.983 -24.948  0.00  0.00    +0.009 C 
ENDBRANCH  11  18
ENDBRANCH   1   7
BRANCH   2  20
ATOM     20  C   UNL     1      36.434 -21.587 -18.863  0.00  0.00    +0.048 C 
BRANCH  20  21
ATOM     21  C   UNL     1      37.073 -21.021 -17.589  0.00  0.00    +0.096 C 
BRANCH  21  23
ATOM     22  O   UNL     1      38.598 -22.488 -15.646  0.00  0.00    -0.251 OA
ATOM     23  N   UNL     1      36.574 -21.657 -16.399  0.00  0.00    -0.287 N 
ATOM     24  N   UNL     1      36.658 -22.896 -14.408  0.00  0.00    -0.169 N 
ATOM     25  C   UNL     1      37.385 -22.348 -15.513  0.00  0.00    +0.319 C 
ATOM     26  H   UNL     1      35.611 -21.601 -16.206  0.00  0.00    +0.151 HD
ATOM     27  H   UNL     1      35.686 -22.738 -14.385  0.00  0.00    +0.178 HD
BRANCH  24  28
ATOM     28  S   UNL     1      37.337 -23.804 -13.130  0.00  0.00    +0.077 S 
ATOM     29  O   UNL     1      38.328 -22.998 -12.442  0.00  0.00    -0.150 OA
ATOM     30  O   UNL     1      36.275 -24.456 -12.388  0.00  0.00    -0.150 OA
BRANCH  28  31
ATOM     31  C   UNL     1      38.184 -25.069 -14.027  0.00  0.00    +0.125 C 
ATOM     32  C   UNL     1      39.559 -25.176 -13.910  0.00  0.00    +0.020 C 
ATOM     33  C   UNL     1      37.457 -25.931 -14.830  0.00  0.00    +0.020 C 
ATOM     34  C   UNL     1      39.510 -27.052 -15.431  0.00  0.00    -0.022 C 
ATOM     35  C   UNL     1      40.228 -26.176 -14.618  0.00  0.00    -0.003 C 
ATOM     36  C   UNL     1      38.125 -26.930 -15.537  0.00  0.00    -0.003 C 
ATOM     37  C   UNL     1      40.225 -28.121 -16.187  0.00  0.00    +0.031 C 
ENDBRANCH  28  31
ENDBRANCH  24  28
ENDBRANCH  21  23
ENDBRANCH  20  21
ENDBRANCH   2  20
TORSDOF 7
ENDMDL
MODEL 9
REMARK VINA RESULT:     -10.4      5.627     15.208
REMARK  Name = 11677589
REMARK  7 active torsions:
REMARK  status: ('A' for Active; 'I' for Inactive)
REMARK    1  A    between atoms: C_1  and  N_7
REMARK    2  A    between atoms: C_2  and  C_20
REMARK    3  A    between atoms: C_11  and  C_18
REMARK    4  A    between atoms: C_20  and  C_21
REMARK    5  A    between atoms: C_21  and  N_23
REMARK    6  A    between atoms: N_24  and  S_28
REMARK    7  A    between atoms: S_28  and  C_31
REMARK                            x       y       z     vdW  Elec       q    Type
REMARK                         _______ _______ _______ _____ _____    ______ ____
ROOT
ATOM      1  C   UNL     1      35.945 -22.368 -16.668  0.00  0.00    +0.058 C 
ATOM      2  C   UNL     1      35.585 -21.196 -19.159  0.00  0.00    -0.020 C 
ATOM      3  C   UNL     1      34.745 -22.548 -17.343  0.00  0.00    +0.015 C 
ATOM      4  C   UNL     1      36.968 -21.609 -17.222  0.00  0.00    +0.015 C 
ATOM      5  C   UNL     1      34.564 -21.959 -18.595  0.00  0.00    -0.003 C 
ATOM      6  C   UNL     1      36.788 -21.020 -18.473  0.00  0.00    -0.003 C 
ENDROOT
BRANCH   1   7
ATOM      7  N   UNL     1      36.126 -22.957 -15.416  0.00  0.00    -0.242 N 
ATOM      8  N   UNL     1      37.166 -23.871 -13.676  0.00  0.00    -0.387 NA
ATOM      9  N   UNL     1      33.728 -24.078 -12.313  0.00  0.00    -0.408 NA
ATOM     10  C   UNL     1      35.139 -23.248 -14.511  0.00  0.00    +0.091 C 
ATOM     11  C   UNL     1      37.319 -23.347 -14.872  0.00  0.00    +0.168 C 
ATOM     12  C   UNL     1      35.814 -23.818 -13.435  0.00  0.00    +0.172 C 
ATOM     13  C   UNL     1      33.763 -23.072 -14.536  0.00  0.00    +0.045 C 
ATOM     14  C   UNL     1      35.075 -24.233 -12.326  0.00  0.00    +0.140 C 
ATOM     15  C   UNL     1      33.121 -23.517 -13.388  0.00  0.00    +0.110 C 
ATOM     16  C   UNL     1      35.694 -24.855 -11.120  0.00  0.00    +0.069 C 
ATOM     17  C   UNL     1      31.636 -23.378 -13.302  0.00  0.00    +0.066 C 
BRANCH  11  18
ATOM     18  C   UNL     1      38.609 -23.182 -15.577  0.00  0.00    +0.075 C 
ATOM     19  C   UNL     1      39.579 -24.337 -15.310  0.00  0.00    +0.009 C 
ENDBRANCH  11  18
ENDBRANCH   1   7
BRANCH   2  20
ATOM     20  C   UNL     1      35.392 -20.565 -20.497  0.00  0.00    +0.048 C 
BRANCH  20  21
ATOM     21  C   UNL     1      36.412 -19.464 -20.809  0.00  0.00    +0.096 C 
BRANCH  21  23
ATOM     22  O   UNL     1      35.791 -19.019 -23.578  0.00  0.00    -0.251 OA
ATOM     23  N   UNL     1      35.798 -18.296 -21.381  0.00  0.00    -0.287 N 
ATOM     24  N   UNL     1      34.924 -16.911 -23.061  0.00  0.00    -0.169 N 
ATOM     25  C   UNL     1      35.534 -18.165 -22.734  0.00  0.00    +0.319 C 
ATOM     26  H   UNL     1      35.555 -17.554 -20.782  0.00  0.00    +0.151 HD
ATOM     27  H   UNL     1      34.758 -16.284 -22.320  0.00  0.00    +0.178 HD
BRANCH  24  28
ATOM     28  S   UNL     1      34.464 -16.414 -24.630  0.00  0.00    +0.077 S 
ATOM     29  O   UNL     1      35.570 -16.624 -25.544  0.00  0.00    -0.150 OA
ATOM     30  O   UNL     1      33.148 -16.944 -24.933  0.00  0.00    -0.150 OA
BRANCH  28  31
ATOM     31  C   UNL     1      34.270 -14.674 -24.390  0.00  0.00    +0.125 C 
ATOM     32  C   UNL     1      33.869 -13.885 -25.454  0.00  0.00    +0.020 C 
ATOM     33  C   UNL     1      34.524 -14.131 -23.143  0.00  0.00    +0.020 C 
ATOM     34  C   UNL     1      33.967 -11.948 -24.014  0.00  0.00    -0.022 C 
ATOM     35  C   UNL     1      33.716 -12.511 -25.265  0.00  0.00    -0.003 C 
ATOM     36  C   UNL     1      34.371 -12.758 -22.953  0.00  0.00    -0.003 C 
ATOM     37  C   UNL     1      33.802 -10.480 -23.812  0.00  0.00    +0.031 C 
ENDBRANCH  28  31
ENDBRANCH  24  28
ENDBRANCH  21  23
ENDBRANCH  20  21
ENDBRANCH   2  20
TORSDOF 7
ENDMDL
