MODEL 1
REMARK VINA RESULT:     -13.1      0.000      0.000
REMARK  Name = 5288641
REMARK  1 active torsions:
REMARK  status: ('A' for Active; 'I' for Inactive)
REMARK    1  A    between atoms: C_14  and  S_23
REMARK                            x       y       z     vdW  Elec       q    Type
REMARK                         _______ _______ _______ _____ _____    ______ ____
ROOT
ATOM      1  O   UNL     1      35.671 -24.157 -14.683  0.00  0.00    -0.270 OA
ATOM      2  O   UNL     1      32.043 -22.095 -17.898  0.00  0.00    -0.285 OA
ATOM      3  N   UNL     1      35.432 -22.525 -17.153  0.00  0.00    -0.310 N 
ATOM      4  N   UNL     1      33.524 -24.730 -13.881  0.00  0.00    -0.280 N 
ATOM      5  C   UNL     1      33.615 -23.465 -15.787  0.00  0.00    +0.071 C 
ATOM      6  C   UNL     1      32.211 -23.704 -15.466  0.00  0.00    +0.020 C 
ATOM      7  C   UNL     1      34.128 -22.778 -16.808  0.00  0.00    +0.092 C 
ATOM      8  C   UNL     1      32.214 -24.476 -14.301  0.00  0.00    +0.051 C 
ATOM      9  C   UNL     1      34.456 -24.141 -14.743  0.00  0.00    +0.251 C 
ATOM     10  C   UNL     1      34.193 -21.474 -18.777  0.00  0.00    +0.054 C 
ATOM     11  C   UNL     1      35.483 -21.758 -18.310  0.00  0.00    +0.051 C 
ATOM     12  C   UNL     1      33.254 -22.113 -17.838  0.00  0.00    +0.210 C 
ATOM     13  C   UNL     1      31.022 -23.332 -16.063  0.00  0.00    +0.020 C 
ATOM     14  C   UNL     1      29.829 -23.752 -15.463  0.00  0.00    +0.112 C 
ATOM     15  C   UNL     1      31.049 -24.901 -13.693  0.00  0.00    +0.016 C 
ATOM     16  C   UNL     1      29.843 -24.529 -14.291  0.00  0.00    +0.020 C 
ATOM     17  C   UNL     1      33.946 -20.727 -19.910  0.00  0.00    +0.004 C 
ATOM     18  C   UNL     1      36.584 -21.284 -18.992  0.00  0.00    +0.015 C 
ATOM     19  C   UNL     1      35.059 -20.248 -20.600  0.00  0.00    +0.000 C 
ATOM     20  C   UNL     1      36.365 -20.523 -20.147  0.00  0.00    +0.001 C 
ATOM     21  H   UNL     1      36.218 -22.840 -16.653  0.00  0.00    +0.152 HD
ATOM     22  H   UNL     1      33.760 -25.255 -13.082  0.00  0.00    +0.155 HD
ENDROOT
BRANCH  14  23
ATOM     23  S   UNL     1      28.299 -23.305 -16.181  0.00  0.00    +0.042 S 
ATOM     24  O   UNL     1      28.584 -21.892 -16.952  0.00  0.00    -0.065 OA
ATOM     25  O   UNL     1      27.979 -24.290 -17.203  0.00  0.00    -0.065 OA
ATOM     26  O   UNL     1      27.379 -23.045 -15.085  0.00  0.00    -0.065 OA
ENDBRANCH  14  23
TORSDOF 1
ENDMDL
MODEL 2
REMARK VINA RESULT:     -11.4      2.840      5.300
REMARK  Name = 5288641
REMARK  1 active torsions:
REMARK  status: ('A' for Active; 'I' for Inactive)
REMARK    1  A    between atoms: C_14  and  S_23
REMARK                            x       y       z     vdW  Elec       q    Type
REMARK                         _______ _______ _______ _____ _____    ______ ____
ROOT
ATOM      1  O   UNL     1      30.898 -22.579 -16.843  0.00  0.00    -0.270 OA
ATOM      2  O   UNL     1      36.060 -22.083 -17.765  0.00  0.00    -0.285 OA
ATOM      3  N   UNL     1      32.793 -21.367 -18.782  0.00  0.00    -0.310 N 
ATOM      4  N   UNL     1      32.091 -23.697 -15.137  0.00  0.00    -0.280 N 
ATOM      5  C   UNL     1      33.329 -22.673 -16.767  0.00  0.00    +0.071 C 
ATOM      6  C   UNL     1      34.250 -23.298 -15.822  0.00  0.00    +0.020 C 
ATOM      7  C   UNL     1      33.615 -21.972 -17.865  0.00  0.00    +0.092 C 
ATOM      8  C   UNL     1      33.444 -23.905 -14.854  0.00  0.00    +0.051 C 
ATOM      9  C   UNL     1      31.927 -22.944 -16.305  0.00  0.00    +0.251 C 
ATOM     10  C   UNL     1      34.918 -20.922 -19.534  0.00  0.00    +0.054 C 
ATOM     11  C   UNL     1      33.547 -20.746 -19.769  0.00  0.00    +0.051 C 
ATOM     12  C   UNL     1      35.034 -21.719 -18.299  0.00  0.00    +0.210 C 
ATOM     13  C   UNL     1      35.627 -23.373 -15.743  0.00  0.00    +0.020 C 
ATOM     14  C   UNL     1      36.183 -24.075 -14.668  0.00  0.00    +0.112 C 
ATOM     15  C   UNL     1      33.973 -24.602 -13.785  0.00  0.00    +0.016 C 
ATOM     16  C   UNL     1      35.365 -24.683 -13.699  0.00  0.00    +0.020 C 
ATOM     17  C   UNL     1      35.899 -20.412 -20.357  0.00  0.00    +0.004 C 
ATOM     18  C   UNL     1      33.122 -20.032 -20.870  0.00  0.00    +0.015 C 
ATOM     19  C   UNL     1      35.469 -19.689 -21.470  0.00  0.00    +0.000 C 
ATOM     20  C   UNL     1      34.095 -19.500 -21.724  0.00  0.00    +0.001 C 
ATOM     21  H   UNL     1      31.809 -21.373 -18.747  0.00  0.00    +0.152 HD
ATOM     22  H   UNL     1      31.348 -24.038 -14.586  0.00  0.00    +0.155 HD
ENDROOT
BRANCH  14  23
ATOM     23  S   UNL     1      37.922 -24.199 -14.527  0.00  0.00    +0.042 S 
ATOM     24  O   UNL     1      38.260 -23.741 -12.995  0.00  0.00    -0.065 OA
ATOM     25  O   UNL     1      38.280 -25.605 -14.640  0.00  0.00    -0.065 OA
ATOM     26  O   UNL     1      38.490 -23.212 -15.431  0.00  0.00    -0.065 OA
ENDBRANCH  14  23
TORSDOF 1
ENDMDL
MODEL 3
REMARK VINA RESULT:     -10.5      3.580      6.860
REMARK  Name = 5288641
REMARK  1 active torsions:
REMARK  status: ('A' for Active; 'I' for Inactive)
REMARK    1  A    between atoms: C_14  and  S_23
REMARK                            x       y       z     vdW  Elec       q    Type
REMARK                         _______ _______ _______ _____ _____    ______ ____
ROOT
ATOM      1  O   UNL     1      34.584 -21.892 -18.093  0.00  0.00    -0.270 OA
ATOM      2  O   UNL     1      33.168 -24.287 -13.620  0.00  0.00    -0.285 OA
ATOM      3  N   UNL     1      32.172 -22.838 -16.642  0.00  0.00    -0.310 N 
ATOM      4  N   UNL     1      36.525 -22.366 -16.831  0.00  0.00    -0.280 N 
ATOM      5  C   UNL     1      34.521 -22.999 -15.926  0.00  0.00    +0.071 C 
ATOM      6  C   UNL     1      35.579 -23.379 -14.996  0.00  0.00    +0.020 C 
ATOM      7  C   UNL     1      33.204 -23.175 -15.803  0.00  0.00    +0.092 C 
ATOM      8  C   UNL     1      36.775 -22.971 -15.596  0.00  0.00    +0.051 C 
ATOM      9  C   UNL     1      35.155 -22.339 -17.116  0.00  0.00    +0.251 C 
ATOM     10  C   UNL     1      31.149 -23.841 -14.845  0.00  0.00    +0.054 C 
ATOM     11  C   UNL     1      30.957 -23.224 -16.090  0.00  0.00    +0.051 C 
ATOM     12  C   UNL     1      32.601 -23.841 -14.595  0.00  0.00    +0.210 C 
ATOM     13  C   UNL     1      35.585 -24.005 -13.765  0.00  0.00    +0.020 C 
ATOM     14  C   UNL     1      36.821 -24.215 -13.143  0.00  0.00    +0.112 C 
ATOM     15  C   UNL     1      38.005 -23.169 -15.000  0.00  0.00    +0.016 C 
ATOM     16  C   UNL     1      38.019 -23.801 -13.754  0.00  0.00    +0.020 C 
ATOM     17  C   UNL     1      30.114 -24.323 -14.072  0.00  0.00    +0.004 C 
ATOM     18  C   UNL     1      29.684 -23.076 -16.597  0.00  0.00    +0.015 C 
ATOM     19  C   UNL     1      28.825 -24.172 -14.586  0.00  0.00    +0.000 C 
ATOM     20  C   UNL     1      28.612 -23.555 -15.835  0.00  0.00    +0.001 C 
ATOM     21  H   UNL     1      32.276 -22.387 -17.510  0.00  0.00    +0.152 HD
ATOM     22  H   UNL     1      37.223 -22.004 -17.425  0.00  0.00    +0.155 HD
ENDROOT
BRANCH  14  23
ATOM     23  S   UNL     1      36.879 -25.002 -11.583  0.00  0.00    +0.042 S 
ATOM     24  O   UNL     1      35.354 -24.915 -11.002  0.00  0.00    -0.065 OA
ATOM     25  O   UNL     1      37.172 -26.410 -11.803  0.00  0.00    -0.065 OA
ATOM     26  O   UNL     1      37.734 -24.189 -10.732  0.00  0.00    -0.065 OA
ENDBRANCH  14  23
TORSDOF 1
ENDMDL
MODEL 4
REMARK VINA RESULT:     -10.4      3.285      7.072
REMARK  Name = 5288641
REMARK  1 active torsions:
REMARK  status: ('A' for Active; 'I' for Inactive)
REMARK    1  A    between atoms: C_14  and  S_23
REMARK                            x       y       z     vdW  Elec       q    Type
REMARK                         _______ _______ _______ _____ _____    ______ ____
ROOT
ATOM      1  O   UNL     1      33.090 -21.426 -19.293  0.00  0.00    -0.270 OA
ATOM      2  O   UNL     1      33.470 -23.856 -14.634  0.00  0.00    -0.285 OA
ATOM      3  N   UNL     1      31.410 -22.754 -17.235  0.00  0.00    -0.310 N 
ATOM      4  N   UNL     1      35.359 -21.466 -18.633  0.00  0.00    -0.280 N 
ATOM      5  C   UNL     1      33.849 -22.432 -17.210  0.00  0.00    +0.071 C 
ATOM      6  C   UNL     1      35.178 -22.563 -16.620  0.00  0.00    +0.020 C 
ATOM      7  C   UNL     1      32.680 -22.852 -16.724  0.00  0.00    +0.092 C 
ATOM      8  C   UNL     1      36.056 -21.960 -17.526  0.00  0.00    +0.051 C 
ATOM      9  C   UNL     1      33.987 -21.714 -18.521  0.00  0.00    +0.251 C 
ATOM     10  C   UNL     1      31.143 -23.857 -15.237  0.00  0.00    +0.054 C 
ATOM     11  C   UNL     1      30.496 -23.342 -16.369  0.00  0.00    +0.051 C 
ATOM     12  C   UNL     1      32.579 -23.569 -15.404  0.00  0.00    +0.210 C 
ATOM     13  C   UNL     1      35.648 -23.124 -15.448  0.00  0.00    +0.020 C 
ATOM     14  C   UNL     1      37.024 -23.066 -15.201  0.00  0.00    +0.112 C 
ATOM     15  C   UNL     1      37.417 -21.893 -17.302  0.00  0.00    +0.016 C 
ATOM     16  C   UNL     1      37.899 -22.457 -16.119  0.00  0.00    +0.020 C 
ATOM     17  C   UNL     1      30.478 -24.495 -14.211  0.00  0.00    +0.004 C 
ATOM     18  C   UNL     1      29.128 -23.461 -16.497  0.00  0.00    +0.015 C 
ATOM     19  C   UNL     1      29.094 -24.615 -14.340  0.00  0.00    +0.000 C 
ATOM     20  C   UNL     1      28.426 -24.104 -15.471  0.00  0.00    +0.001 C 
ATOM     21  H   UNL     1      31.179 -22.329 -18.092  0.00  0.00    +0.152 HD
ATOM     22  H   UNL     1      35.780 -21.003 -19.394  0.00  0.00    +0.155 HD
ENDROOT
BRANCH  14  23
ATOM     23  S   UNL     1      37.666 -23.761 -13.731  0.00  0.00    +0.042 S 
ATOM     24  O   UNL     1      39.127 -24.364 -14.144  0.00  0.00    -0.065 OA
ATOM     25  O   UNL     1      37.903 -22.676 -12.790  0.00  0.00    -0.065 OA
ATOM     26  O   UNL     1      36.800 -24.874 -13.377  0.00  0.00    -0.065 OA
ENDBRANCH  14  23
TORSDOF 1
ENDMDL
MODEL 5
REMARK VINA RESULT:     -10.3      0.751      1.227
REMARK  Name = 5288641
REMARK  1 active torsions:
REMARK  status: ('A' for Active; 'I' for Inactive)
REMARK    1  A    between atoms: C_14  and  S_23
REMARK                            x       y       z     vdW  Elec       q    Type
REMARK                         _______ _______ _______ _____ _____    ______ ____
ROOT
ATOM      1  O   UNL     1      35.073 -24.380 -13.913  0.00  0.00    -0.270 OA
ATOM      2  O   UNL     1      32.120 -22.338 -17.768  0.00  0.00    -0.285 OA
ATOM      3  N   UNL     1      35.314 -22.825 -16.432  0.00  0.00    -0.310 N 
ATOM      4  N   UNL     1      32.803 -24.875 -13.483  0.00  0.00    -0.280 N 
ATOM      5  C   UNL     1      33.260 -23.676 -15.377  0.00  0.00    +0.071 C 
ATOM      6  C   UNL     1      31.816 -23.870 -15.300  0.00  0.00    +0.020 C 
ATOM      7  C   UNL     1      33.963 -23.035 -16.312  0.00  0.00    +0.092 C 
ATOM      8  C   UNL     1      31.594 -24.604 -14.131  0.00  0.00    +0.051 C 
ATOM      9  C   UNL     1      33.887 -24.337 -14.185  0.00  0.00    +0.251 C 
ATOM     10  C   UNL     1      34.407 -21.797 -18.276  0.00  0.00    +0.054 C 
ATOM     11  C   UNL     1      35.588 -22.097 -17.583  0.00  0.00    +0.051 C 
ATOM     12  C   UNL     1      33.301 -22.383 -17.497  0.00  0.00    +0.210 C 
ATOM     13  C   UNL     1      30.760 -23.489 -16.105  0.00  0.00    +0.020 C 
ATOM     14  C   UNL     1      29.469 -23.861 -15.712  0.00  0.00    +0.112 C 
ATOM     15  C   UNL     1      30.329 -24.981 -13.725  0.00  0.00    +0.016 C 
ATOM     16  C   UNL     1      29.256 -24.600 -14.534  0.00  0.00    +0.020 C 
ATOM     17  C   UNL     1      34.382 -21.082 -19.454  0.00  0.00    +0.004 C 
ATOM     18  C   UNL     1      36.804 -21.672 -18.075  0.00  0.00    +0.015 C 
ATOM     19  C   UNL     1      35.612 -20.652 -19.953  0.00  0.00    +0.000 C 
ATOM     20  C   UNL     1      36.811 -20.944 -19.271  0.00  0.00    +0.001 C 
ATOM     21  H   UNL     1      35.992 -23.142 -15.793  0.00  0.00    +0.152 HD
ATOM     22  H   UNL     1      32.882 -25.380 -12.640  0.00  0.00    +0.155 HD
ENDROOT
BRANCH  14  23
ATOM     23  S   UNL     1      28.101 -23.400 -16.698  0.00  0.00    +0.042 S 
ATOM     24  O   UNL     1      27.274 -24.786 -16.957  0.00  0.00    -0.065 OA
ATOM     25  O   UNL     1      27.245 -22.537 -15.899  0.00  0.00    -0.065 OA
ATOM     26  O   UNL     1      28.633 -22.946 -17.972  0.00  0.00    -0.065 OA
ENDBRANCH  14  23
TORSDOF 1
ENDMDL
MODEL 6
REMARK VINA RESULT:     -10.3      1.877      2.546
REMARK  Name = 5288641
REMARK  1 active torsions:
REMARK  status: ('A' for Active; 'I' for Inactive)
REMARK    1  A    between atoms: C_14  and  S_23
REMARK                            x       y       z     vdW  Elec       q    Type
REMARK                         _______ _______ _______ _____ _____    ______ ____
ROOT
ATOM      1  O   UNL     1      37.795 -22.443 -16.425  0.00  0.00    -0.270 OA
ATOM      2  O   UNL     1      32.746 -21.989 -17.855  0.00  0.00    -0.285 OA
ATOM      3  N   UNL     1      36.096 -21.301 -18.576  0.00  0.00    -0.310 N 
ATOM      4  N   UNL     1      36.443 -23.509 -14.807  0.00  0.00    -0.280 N 
ATOM      5  C   UNL     1      35.368 -22.541 -16.580  0.00  0.00    +0.071 C 
ATOM      6  C   UNL     1      34.360 -23.136 -15.708  0.00  0.00    +0.020 C 
ATOM      7  C   UNL     1      35.189 -21.877 -17.723  0.00  0.00    +0.092 C 
ATOM      8  C   UNL     1      35.068 -23.710 -14.648  0.00  0.00    +0.051 C 
ATOM      9  C   UNL     1      36.719 -22.793 -15.977  0.00  0.00    +0.251 C 
ATOM     10  C   UNL     1      34.054 -20.888 -19.544  0.00  0.00    +0.054 C 
ATOM     11  C   UNL     1      35.440 -20.715 -19.652  0.00  0.00    +0.051 C 
ATOM     12  C   UNL     1      33.818 -21.643 -18.300  0.00  0.00    +0.210 C 
ATOM     13  C   UNL     1      32.982 -23.214 -15.760  0.00  0.00    +0.020 C 
ATOM     14  C   UNL     1      32.324 -23.881 -14.721  0.00  0.00    +0.112 C 
ATOM     15  C   UNL     1      34.439 -24.373 -13.613  0.00  0.00    +0.016 C 
ATOM     16  C   UNL     1      33.045 -24.456 -13.658  0.00  0.00    +0.020 C 
ATOM     17  C   UNL     1      33.157 -20.406 -20.474  0.00  0.00    +0.004 C 
ATOM     18  C   UNL     1      35.970 -20.035 -20.729  0.00  0.00    +0.015 C 
ATOM     19  C   UNL     1      33.692 -19.718 -21.563  0.00  0.00    +0.000 C 
ATOM     20  C   UNL     1      35.084 -19.534 -21.690  0.00  0.00    +0.001 C 
ATOM     21  H   UNL     1      37.071 -21.301 -18.446  0.00  0.00    +0.152 HD
ATOM     22  H   UNL     1      37.129 -23.829 -14.176  0.00  0.00    +0.155 HD
ENDROOT
BRANCH  14  23
ATOM     23  S   UNL     1      30.580 -24.004 -14.743  0.00  0.00    +0.042 S 
ATOM     24  O   UNL     1      30.244 -25.125 -15.883  0.00  0.00    -0.065 OA
ATOM     25  O   UNL     1      30.155 -24.555 -13.465  0.00  0.00    -0.065 OA
ATOM     26  O   UNL     1      30.073 -22.721 -15.205  0.00  0.00    -0.065 OA
ENDBRANCH  14  23
TORSDOF 1
ENDMDL
