MODEL 1
REMARK VINA RESULT:     -12.0      0.000      0.000
REMARK  Name = 124173720
REMARK  4 active torsions:
REMARK  status: ('A' for Active; 'I' for Inactive)
REMARK    1  A    between atoms: C_13  and  N_24
REMARK    2  A    between atoms: C_18  and  C_23
REMARK    3  A    between atoms: N_24  and  C_26
REMARK    4  A    between atoms: C_26  and  C_30
REMARK                            x       y       z     vdW  Elec       q    Type
REMARK                         _______ _______ _______ _____ _____    ______ ____
ROOT
ATOM      1  O   UNL     1      32.300 -22.369 -18.202  0.00  0.00    -0.473 OA
ATOM      2  N   UNL     1      34.056 -23.498 -16.003  0.00  0.00    -0.272 N 
ATOM      3  N   UNL     1      36.201 -23.089 -16.309  0.00  0.00    -0.374 NA
ATOM      4  C   UNL     1      36.045 -23.907 -15.226  0.00  0.00    +0.190 C 
ATOM      5  C   UNL     1      34.986 -22.844 -16.786  0.00  0.00    +0.188 C 
ATOM      6  C   UNL     1      32.614 -23.516 -16.129  0.00  0.00    +0.141 C 
ATOM      7  C   UNL     1      34.721 -24.180 -15.015  0.00  0.00    +0.169 C 
ATOM      8  C   UNL     1      34.732 -21.998 -17.971  0.00  0.00    +0.078 C 
ATOM      9  C   UNL     1      32.061 -22.280 -16.801  0.00  0.00    +0.227 C 
ATOM     10  C   UNL     1      33.488 -21.817 -18.599  0.00  0.00    +0.144 C 
ATOM     11  C   UNL     1      35.844 -21.344 -18.545  0.00  0.00    +0.008 C 
ATOM     12  C   UNL     1      33.383 -21.057 -19.777  0.00  0.00    +0.051 C 
ATOM     13  C   UNL     1      34.498 -20.430 -20.322  0.00  0.00    +0.048 C 
ATOM     14  C   UNL     1      35.731 -20.568 -19.702  0.00  0.00    +0.015 C 
ATOM     15  O   UNL     1      39.225 -24.850 -13.873  0.00  0.00    -0.432 OA
ATOM     16  O   UNL     1      38.913 -23.279 -15.508  0.00  0.00    -0.226 OA
ATOM     17  N   UNL     1      37.100 -24.372 -14.479  0.00  0.00    -0.194 N 
ATOM     18  C   UNL     1      36.996 -25.240 -13.327  0.00  0.00    +0.195 C 
ATOM     19  C   UNL     1      38.385 -25.843 -13.274  0.00  0.00    +0.236 C 
ATOM     20  C   UNL     1      38.447 -24.081 -14.710  0.00  0.00    +0.411 C 
ENDROOT
BRANCH  18  23
ATOM     21  F   UNL     1      35.502 -24.912 -11.556  0.00  0.00    -0.196 F 
ATOM     22  F   UNL     1      37.627 -24.700 -11.138  0.00  0.00    -0.196 F 
ATOM     23  C   UNL     1      36.668 -24.457 -12.056  0.00  0.00    +0.340 C 
ENDBRANCH  18  23
BRANCH  13  24
ATOM     24  N   UNL     1      34.375 -19.659 -21.496  0.00  0.00    -0.327 N 
ATOM     25  H   UNL     1      33.473 -19.444 -21.824  0.00  0.00    +0.147 HD
BRANCH  24  26
ATOM     26  C   UNL     1      35.504 -19.175 -22.230  0.00  0.00    +0.146 C 
ATOM     27  C   UNL     1      35.288 -19.424 -23.716  0.00  0.00    +0.031 C 
BRANCH  26  30
ATOM     28  O   UNL     1      35.541 -17.187 -20.840  0.00  0.00    -0.274 OA
ATOM     29  N   UNL     1      36.025 -16.971 -23.074  0.00  0.00    -0.327 N 
ATOM     30  C   UNL     1      35.683 -17.693 -21.951  0.00  0.00    +0.237 C 
ATOM     31  H   UNL     1      36.166 -15.999 -23.011  0.00  0.00    +0.145 HD
ATOM     32  H   UNL     1      36.129 -17.428 -23.940  0.00  0.00    +0.145 HD
ENDBRANCH  26  30
ENDBRANCH  24  26
ENDBRANCH  13  24
TORSDOF 4
ENDMDL
MODEL 2
REMARK VINA RESULT:     -11.1      3.920      6.097
REMARK  Name = 124173720
REMARK  4 active torsions:
REMARK  status: ('A' for Active; 'I' for Inactive)
REMARK    1  A    between atoms: C_13  and  N_24
REMARK    2  A    between atoms: C_18  and  C_23
REMARK    3  A    between atoms: N_24  and  C_26
REMARK    4  A    between atoms: C_26  and  C_30
REMARK                            x       y       z     vdW  Elec       q    Type
REMARK                         _______ _______ _______ _____ _____    ______ ____
ROOT
ATOM      1  O   UNL     1      32.682 -22.182 -17.427  0.00  0.00    -0.473 OA
ATOM      2  N   UNL     1      35.047 -23.172 -15.806  0.00  0.00    -0.272 N 
ATOM      3  N   UNL     1      34.504 -23.762 -13.752  0.00  0.00    -0.374 NA
ATOM      4  C   UNL     1      35.861 -23.826 -13.899  0.00  0.00    +0.190 C 
ATOM      5  C   UNL     1      34.007 -23.357 -14.916  0.00  0.00    +0.188 C 
ATOM      6  C   UNL     1      34.992 -22.750 -17.190  0.00  0.00    +0.141 C 
ATOM      7  C   UNL     1      36.225 -23.461 -15.167  0.00  0.00    +0.169 C 
ATOM      8  C   UNL     1      32.564 -23.156 -15.159  0.00  0.00    +0.078 C 
ATOM      9  C   UNL     1      33.684 -23.094 -17.865  0.00  0.00    +0.227 C 
ATOM     10  C   UNL     1      31.997 -22.600 -16.318  0.00  0.00    +0.144 C 
ATOM     11  C   UNL     1      31.680 -23.516 -14.119  0.00  0.00    +0.008 C 
ATOM     12  C   UNL     1      30.612 -22.373 -16.401  0.00  0.00    +0.051 C 
ATOM     13  C   UNL     1      29.767 -22.735 -15.358  0.00  0.00    +0.048 C 
ATOM     14  C   UNL     1      30.301 -23.313 -14.216  0.00  0.00    +0.015 C 
ATOM     15  O   UNL     1      37.437 -24.731 -10.812  0.00  0.00    -0.432 OA
ATOM     16  O   UNL     1      35.178 -24.756 -11.185  0.00  0.00    -0.226 OA
ATOM     17  N   UNL     1      36.708 -24.207 -12.887  0.00  0.00    -0.194 N 
ATOM     18  C   UNL     1      38.149 -24.290 -12.984  0.00  0.00    +0.195 C 
ATOM     19  C   UNL     1      38.557 -24.200 -11.527  0.00  0.00    +0.236 C 
ATOM     20  C   UNL     1      36.316 -24.577 -11.598  0.00  0.00    +0.411 C 
ENDROOT
BRANCH  18  23
ATOM     21  F   UNL     1      38.850 -25.392 -14.926  0.00  0.00    -0.196 F 
ATOM     22  F   UNL     1      39.753 -25.994 -13.039  0.00  0.00    -0.196 F 
ATOM     23  C   UNL     1      38.598 -25.605 -13.619  0.00  0.00    +0.340 C 
ENDBRANCH  18  23
BRANCH  13  24
ATOM     24  N   UNL     1      28.378 -22.515 -15.461  0.00  0.00    -0.327 N 
ATOM     25  H   UNL     1      27.838 -22.531 -14.639  0.00  0.00    +0.147 HD
BRANCH  24  26
ATOM     26  C   UNL     1      27.719 -22.271 -16.707  0.00  0.00    +0.146 C 
ATOM     27  C   UNL     1      27.629 -23.568 -17.497  0.00  0.00    +0.031 C 
BRANCH  26  30
ATOM     28  O   UNL     1      25.675 -21.971 -15.435  0.00  0.00    -0.274 OA
ATOM     29  N   UNL     1      25.895 -20.860 -17.432  0.00  0.00    -0.327 N 
ATOM     30  C   UNL     1      26.335 -21.706 -16.437  0.00  0.00    +0.237 C 
ATOM     31  H   UNL     1      25.010 -20.436 -17.363  0.00  0.00    +0.145 HD
ATOM     32  H   UNL     1      26.467 -20.680 -18.214  0.00  0.00    +0.145 HD
ENDBRANCH  26  30
ENDBRANCH  24  26
ENDBRANCH  13  24
TORSDOF 4
ENDMDL
MODEL 3
REMARK VINA RESULT:     -11.1      4.095      8.849
REMARK  Name = 124173720
REMARK  4 active torsions:
REMARK  status: ('A' for Active; 'I' for Inactive)
REMARK    1  A    between atoms: C_13  and  N_24
REMARK    2  A    between atoms: C_18  and  C_23
REMARK    3  A    between atoms: N_24  and  C_26
REMARK    4  A    between atoms: C_26  and  C_30
REMARK                            x       y       z     vdW  Elec       q    Type
REMARK                         _______ _______ _______ _____ _____    ______ ____
ROOT
ATOM      1  O   UNL     1      33.922 -22.852 -16.560  0.00  0.00    -0.473 OA
ATOM      2  N   UNL     1      34.125 -21.246 -19.124  0.00  0.00    -0.272 N 
ATOM      3  N   UNL     1      36.133 -20.398 -19.459  0.00  0.00    -0.374 NA
ATOM      4  C   UNL     1      35.279 -19.936 -20.420  0.00  0.00    +0.190 C 
ATOM      5  C   UNL     1      35.426 -21.194 -18.664  0.00  0.00    +0.188 C 
ATOM      6  C   UNL     1      33.003 -21.989 -18.591  0.00  0.00    +0.141 C 
ATOM      7  C   UNL     1      34.023 -20.445 -20.233  0.00  0.00    +0.169 C 
ATOM      8  C   UNL     1      35.997 -21.886 -17.490  0.00  0.00    +0.078 C 
ATOM      9  C   UNL     1      33.418 -23.232 -17.837  0.00  0.00    +0.227 C 
ATOM     10  C   UNL     1      35.272 -22.625 -16.541  0.00  0.00    +0.144 C 
ATOM     11  C   UNL     1      37.388 -21.762 -17.283  0.00  0.00    +0.008 C 
ATOM     12  C   UNL     1      35.912 -23.166 -15.412  0.00  0.00    +0.051 C 
ATOM     13  C   UNL     1      37.283 -23.023 -15.233  0.00  0.00    +0.048 C 
ATOM     14  C   UNL     1      38.025 -22.324 -16.173  0.00  0.00    +0.015 C 
ATOM     15  O   UNL     1      36.934 -17.613 -22.587  0.00  0.00    -0.432 OA
ATOM     16  O   UNL     1      37.974 -18.884 -20.994  0.00  0.00    -0.226 OA
ATOM     17  N   UNL     1      35.667 -19.075 -21.418  0.00  0.00    -0.194 N 
ATOM     18  C   UNL     1      34.808 -18.553 -22.458  0.00  0.00    +0.195 C 
ATOM     19  C   UNL     1      35.566 -17.310 -22.882  0.00  0.00    +0.236 C 
ATOM     20  C   UNL     1      36.956 -18.566 -21.593  0.00  0.00    +0.411 C 
ENDROOT
BRANCH  18  23
ATOM     21  F   UNL     1      33.905 -18.966 -24.577  0.00  0.00    -0.196 F 
ATOM     22  F   UNL     1      35.867 -19.797 -24.135  0.00  0.00    -0.196 F 
ATOM     23  C   UNL     1      34.650 -19.542 -23.612  0.00  0.00    +0.340 C 
ENDBRANCH  18  23
BRANCH  13  24
ATOM     24  N   UNL     1      37.914 -23.583 -14.104  0.00  0.00    -0.327 N 
ATOM     25  H   UNL     1      38.893 -23.674 -14.110  0.00  0.00    +0.147 HD
BRANCH  24  26
ATOM     26  C   UNL     1      37.193 -24.027 -12.950  0.00  0.00    +0.146 C 
ATOM     27  C   UNL     1      37.505 -25.493 -12.689  0.00  0.00    +0.031 C 
BRANCH  26  30
ATOM     28  O   UNL     1      38.374 -22.230 -11.825  0.00  0.00    -0.274 OA
ATOM     29  N   UNL     1      36.963 -23.556 -10.590  0.00  0.00    -0.327 N 
ATOM     30  C   UNL     1      37.586 -23.171 -11.758  0.00  0.00    +0.237 C 
ATOM     31  H   UNL     1      37.144 -23.072  -9.753  0.00  0.00    +0.145 HD
ATOM     32  H   UNL     1      36.338 -24.317 -10.593  0.00  0.00    +0.145 HD
ENDBRANCH  26  30
ENDBRANCH  24  26
ENDBRANCH  13  24
TORSDOF 4
ENDMDL
MODEL 4
REMARK VINA RESULT:      -9.7      4.029      8.699
REMARK  Name = 124173720
REMARK  4 active torsions:
REMARK  status: ('A' for Active; 'I' for Inactive)
REMARK    1  A    between atoms: C_13  and  N_24
REMARK    2  A    between atoms: C_18  and  C_23
REMARK    3  A    between atoms: N_24  and  C_26
REMARK    4  A    between atoms: C_26  and  C_30
REMARK                            x       y       z     vdW  Elec       q    Type
REMARK                         _______ _______ _______ _____ _____    ______ ____
ROOT
ATOM      1  O   UNL     1      36.472 -23.540 -15.590  0.00  0.00    -0.473 OA
ATOM      2  N   UNL     1      36.409 -21.669 -17.975  0.00  0.00    -0.272 N 
ATOM      3  N   UNL     1      34.386 -21.394 -18.809  0.00  0.00    -0.374 NA
ATOM      4  C   UNL     1      35.296 -20.761 -19.608  0.00  0.00    +0.190 C 
ATOM      5  C   UNL     1      35.067 -21.953 -17.815  0.00  0.00    +0.188 C 
ATOM      6  C   UNL     1      37.525 -22.054 -17.138  0.00  0.00    +0.141 C 
ATOM      7  C   UNL     1      36.562 -20.920 -19.114  0.00  0.00    +0.169 C 
ATOM      8  C   UNL     1      34.435 -22.742 -16.737  0.00  0.00    +0.078 C 
ATOM      9  C   UNL     1      37.134 -22.284 -15.696  0.00  0.00    +0.227 C 
ATOM     10  C   UNL     1      35.114 -23.467 -15.744  0.00  0.00    +0.144 C 
ATOM     11  C   UNL     1      33.024 -22.804 -16.728  0.00  0.00    +0.008 C 
ATOM     12  C   UNL     1      34.405 -24.256 -14.821  0.00  0.00    +0.051 C 
ATOM     13  C   UNL     1      33.016 -24.301 -14.840  0.00  0.00    +0.048 C 
ATOM     14  C   UNL     1      32.322 -23.568 -15.793  0.00  0.00    +0.015 C 
ATOM     15  O   UNL     1      33.696 -19.322 -22.471  0.00  0.00    -0.432 OA
ATOM     16  O   UNL     1      32.600 -20.247 -20.687  0.00  0.00    -0.226 OA
ATOM     17  N   UNL     1      34.947 -20.074 -20.745  0.00  0.00    -0.194 N 
ATOM     18  C   UNL     1      35.864 -19.388 -21.628  0.00  0.00    +0.195 C 
ATOM     19  C   UNL     1      35.058 -19.320 -22.910  0.00  0.00    +0.236 C 
ATOM     20  C   UNL     1      33.646 -19.923 -21.233  0.00  0.00    +0.411 C 
ENDROOT
BRANCH  18  23
ATOM     21  F   UNL     1      37.493 -18.012 -20.664  0.00  0.00    -0.196 F 
ATOM     22  F   UNL     1      36.154 -17.120 -22.129  0.00  0.00    -0.196 F 
ATOM     23  C   UNL     1      36.219 -17.997 -21.106  0.00  0.00    +0.340 C 
ENDBRANCH  18  23
BRANCH  13  24
ATOM     24  N   UNL     1      32.318 -25.085 -13.899  0.00  0.00    -0.327 N 
ATOM     25  H   UNL     1      32.657 -25.985 -13.694  0.00  0.00    +0.147 HD
BRANCH  24  26
ATOM     26  C   UNL     1      31.138 -24.630 -13.230  0.00  0.00    +0.146 C 
ATOM     27  C   UNL     1      31.320 -23.179 -12.809  0.00  0.00    +0.031 C 
BRANCH  26  30
ATOM     28  O   UNL     1      29.318 -23.823 -14.617  0.00  0.00    -0.274 OA
ATOM     29  N   UNL     1      29.649 -26.089 -14.453  0.00  0.00    -0.327 N 
ATOM     30  C   UNL     1      29.948 -24.776 -14.164  0.00  0.00    +0.237 C 
ATOM     31  H   UNL     1      28.895 -26.303 -15.049  0.00  0.00    +0.145 HD
ATOM     32  H   UNL     1      30.190 -26.815 -14.064  0.00  0.00    +0.145 HD
ENDBRANCH  26  30
ENDBRANCH  24  26
ENDBRANCH  13  24
TORSDOF 4
ENDMDL
MODEL 5
REMARK VINA RESULT:      -9.2      3.282      5.162
REMARK  Name = 124173720
REMARK  4 active torsions:
REMARK  status: ('A' for Active; 'I' for Inactive)
REMARK    1  A    between atoms: C_13  and  N_24
REMARK    2  A    between atoms: C_18  and  C_23
REMARK    3  A    between atoms: N_24  and  C_26
REMARK    4  A    between atoms: C_26  and  C_30
REMARK                            x       y       z     vdW  Elec       q    Type
REMARK                         _______ _______ _______ _____ _____    ______ ____
ROOT
ATOM      1  O   UNL     1      36.147 -21.058 -18.713  0.00  0.00    -0.473 OA
ATOM      2  N   UNL     1      34.081 -22.388 -16.936  0.00  0.00    -0.272 N 
ATOM      3  N   UNL     1      32.008 -22.029 -17.598  0.00  0.00    -0.374 NA
ATOM      4  C   UNL     1      31.995 -22.695 -16.405  0.00  0.00    +0.190 C 
ATOM      5  C   UNL     1      33.283 -21.836 -17.919  0.00  0.00    +0.188 C 
ATOM      6  C   UNL     1      35.526 -22.434 -16.860  0.00  0.00    +0.141 C 
ATOM      7  C   UNL     1      33.272 -22.928 -15.970  0.00  0.00    +0.169 C 
ATOM      8  C   UNL     1      33.716 -21.137 -19.146  0.00  0.00    +0.078 C 
ATOM      9  C   UNL     1      36.194 -22.392 -18.215  0.00  0.00    +0.227 C 
ATOM     10  C   UNL     1      35.038 -20.786 -19.467  0.00  0.00    +0.144 C 
ATOM     11  C   UNL     1      32.709 -20.754 -20.058  0.00  0.00    +0.008 C 
ATOM     12  C   UNL     1      35.321 -20.040 -20.625  0.00  0.00    +0.051 C 
ATOM     13  C   UNL     1      34.306 -19.672 -21.502  0.00  0.00    +0.048 C 
ATOM     14  C   UNL     1      32.997 -20.035 -21.221  0.00  0.00    +0.015 C 
ATOM     15  O   UNL     1      28.639 -23.168 -15.246  0.00  0.00    -0.432 OA
ATOM     16  O   UNL     1      29.208 -22.363 -17.311  0.00  0.00    -0.226 OA
ATOM     17  N   UNL     1      30.837 -23.060 -15.762  0.00  0.00    -0.194 N 
ATOM     18  C   UNL     1      30.762 -23.762 -14.500  0.00  0.00    +0.195 C 
ATOM     19  C   UNL     1      29.365 -23.403 -14.035  0.00  0.00    +0.236 C 
ATOM     20  C   UNL     1      29.542 -22.813 -16.223  0.00  0.00    +0.411 C 
ENDROOT
BRANCH  18  23
ATOM     21  F   UNL     1      31.892 -25.702 -13.840  0.00  0.00    -0.196 F 
ATOM     22  F   UNL     1      29.779 -25.880 -14.331  0.00  0.00    -0.196 F 
ATOM     23  C   UNL     1      30.931 -25.270 -14.681  0.00  0.00    +0.340 C 
ENDBRANCH  18  23
BRANCH  13  24
ATOM     24  N   UNL     1      34.606 -18.937 -22.666  0.00  0.00    -0.327 N 
ATOM     25  H   UNL     1      34.216 -19.230 -23.520  0.00  0.00    +0.147 HD
BRANCH  24  26
ATOM     26  C   UNL     1      35.453 -17.784 -22.662  0.00  0.00    +0.146 C 
ATOM     27  C   UNL     1      36.905 -18.220 -22.529  0.00  0.00    +0.031 C 
BRANCH  26  30
ATOM     28  O   UNL     1      34.700 -17.472 -24.947  0.00  0.00    -0.274 OA
ATOM     29  N   UNL     1      35.709 -15.710 -23.876  0.00  0.00    -0.327 N 
ATOM     30  C   UNL     1      35.239 -17.003 -23.947  0.00  0.00    +0.237 C 
ATOM     31  H   UNL     1      35.624 -15.111 -24.652  0.00  0.00    +0.145 HD
ATOM     32  H   UNL     1      36.131 -15.384 -23.047  0.00  0.00    +0.145 HD
ENDBRANCH  26  30
ENDBRANCH  24  26
ENDBRANCH  13  24
TORSDOF 4
ENDMDL
