MODEL 1
REMARK VINA RESULT:     -11.5      0.000      0.000
REMARK  Name = 46937052
REMARK  7 active torsions:
REMARK  status: ('A' for Active; 'I' for Inactive)
REMARK    1  A    between atoms: O_1  and  C_3
REMARK    2  A    between atoms: O_1  and  C_17
REMARK    3  A    between atoms: C_4  and  C_11
REMARK    4  A    between atoms: C_17  and  C_18
REMARK    5  A    between atoms: C_18  and  N_19
REMARK    6  A    between atoms: C_18  and  C_23
REMARK    7  A    between atoms: C_23  and  C_25
REMARK                            x       y       z     vdW  Elec       q    Type
REMARK                         _______ _______ _______ _____ _____    ______ ____
ROOT
ATOM      1  O   UNL     1      35.952 -22.516 -17.816  0.00  0.00    -0.476 OA
ENDROOT
BRANCH   1   3
ATOM      2  N   UNL     1      32.730 -21.586 -19.277  0.00  0.00    -0.239 NA
ATOM      3  C   UNL     1      35.033 -21.869 -18.601  0.00  0.00    +0.158 C 
ATOM      4  C   UNL     1      34.469 -20.235 -20.273  0.00  0.00    +0.039 C 
ATOM      5  C   UNL     1      35.424 -20.875 -19.490  0.00  0.00    +0.042 C 
ATOM      6  C   UNL     1      33.686 -22.185 -18.532  0.00  0.00    +0.136 C 
ATOM      7  C   UNL     1      33.147 -20.624 -20.130  0.00  0.00    +0.101 C 
BRANCH   4  11
ATOM      8  N   UNL     1      35.653 -18.241 -20.830  0.00  0.00    -0.264 NA
ATOM      9  N   UNL     1      35.700 -16.437 -24.069  0.00  0.00    -0.150 NA
ATOM     10  N   UNL     1      34.914 -16.930 -25.199  0.00  0.00    -0.147 NA
ATOM     11  C   UNL     1      34.854 -19.167 -21.235  0.00  0.00    +0.078 C 
ATOM     12  C   UNL     1      34.605 -18.319 -23.437  0.00  0.00    +0.040 C 
ATOM     13  C   UNL     1      35.504 -17.253 -23.068  0.00  0.00    +0.107 C 
ATOM     14  C   UNL     1      36.088 -17.152 -21.708  0.00  0.00    +0.173 C 
ATOM     15  C   UNL     1      34.249 -19.273 -22.592  0.00  0.00    +0.022 C 
ATOM     16  C   UNL     1      34.293 -18.008 -24.812  0.00  0.00    +0.123 C 
ENDBRANCH   4  11
ENDBRANCH   1   3
BRANCH   1  17
ATOM     17  C   UNL     1      35.881 -22.279 -16.417  0.00  0.00    +0.184 C 
BRANCH  17  18
ATOM     18  C   UNL     1      35.036 -23.359 -15.732  0.00  0.00    -0.017 C 
BRANCH  18  19
ATOM     19  N   UNL     1      35.940 -24.269 -15.023  0.00  0.00    +0.384 N 
ATOM     20  H   UNL     1      36.831 -23.802 -14.858  0.00  0.00    -0.089 HD
ATOM     21  H   UNL     1      36.093 -25.105 -15.588  0.00  0.00    -0.089 HD
ATOM     22  H   UNL     1      35.524 -24.534 -14.130  0.00  0.00    -0.089 HD
ENDBRANCH  18  19
BRANCH  18  23
ATOM     23  C   UNL     1      34.009 -22.781 -14.726  0.00  0.00    +0.010 C 
BRANCH  23  25
ATOM     24  N   UNL     1      31.500 -25.348 -13.683  0.00  0.00    -0.244 NA
ATOM     25  C   UNL     1      32.782 -23.582 -14.570  0.00  0.00    -0.004 C 
ATOM     26  C   UNL     1      31.549 -23.519 -15.086  0.00  0.00    +0.011 C 
ATOM     27  C   UNL     1      30.750 -24.600 -14.548  0.00  0.00    +0.080 C 
ATOM     28  C   UNL     1      32.660 -24.762 -13.699  0.00  0.00    +0.094 C 
ATOM     29  C   UNL     1      31.009 -22.570 -16.027  0.00  0.00    -0.020 C 
ATOM     30  C   UNL     1      29.471 -24.756 -14.912  0.00  0.00    +0.015 C 
ATOM     31  C   UNL     1      28.816 -23.808 -15.897  0.00  0.00    -0.020 C 
ATOM     32  C   UNL     1      29.726 -22.705 -16.408  0.00  0.00    +0.052 C 
ENDBRANCH  23  25
ENDBRANCH  18  23
ENDBRANCH  17  18
ENDBRANCH   1  17
TORSDOF 7
ENDMDL
MODEL 2
REMARK VINA RESULT:     -11.3      5.831     12.302
REMARK  Name = 46937052
REMARK  7 active torsions:
REMARK  status: ('A' for Active; 'I' for Inactive)
REMARK    1  A    between atoms: O_1  and  C_3
REMARK    2  A    between atoms: O_1  and  C_17
REMARK    3  A    between atoms: C_4  and  C_11
REMARK    4  A    between atoms: C_17  and  C_18
REMARK    5  A    between atoms: C_18  and  N_19
REMARK    6  A    between atoms: C_18  and  C_23
REMARK    7  A    between atoms: C_23  and  C_25
REMARK                            x       y       z     vdW  Elec       q    Type
REMARK                         _______ _______ _______ _____ _____    ______ ____
ROOT
ATOM      1  O   UNL     1      35.399 -14.578 -23.159  0.00  0.00    -0.476 OA
ENDROOT
BRANCH   1   3
ATOM      2  N   UNL     1      34.507 -17.757 -24.736  0.00  0.00    -0.239 NA
ATOM      3  C   UNL     1      35.189 -15.924 -23.315  0.00  0.00    +0.158 C 
ATOM      4  C   UNL     1      35.202 -18.171 -22.457  0.00  0.00    +0.039 C 
ATOM      5  C   UNL     1      35.423 -16.811 -22.270  0.00  0.00    +0.042 C 
ATOM      6  C   UNL     1      34.735 -16.442 -24.517  0.00  0.00    +0.136 C 
ATOM      7  C   UNL     1      34.747 -18.589 -23.698  0.00  0.00    +0.101 C 
BRANCH   4  11
ATOM      8  N   UNL     1      36.631 -19.233 -20.870  0.00  0.00    -0.264 NA
ATOM      9  N   UNL     1      35.763 -21.871 -18.414  0.00  0.00    -0.150 NA
ATOM     10  N   UNL     1      34.399 -22.395 -18.348  0.00  0.00    -0.147 NA
ATOM     11  C   UNL     1      35.443 -19.147 -21.360  0.00  0.00    +0.078 C 
ATOM     12  C   UNL     1      34.490 -20.812 -19.964  0.00  0.00    +0.040 C 
ATOM     13  C   UNL     1      35.788 -20.962 -19.353  0.00  0.00    +0.107 C 
ATOM     14  C   UNL     1      36.960 -20.163 -19.787  0.00  0.00    +0.173 C 
ATOM     15  C   UNL     1      34.261 -19.954 -20.944  0.00  0.00    +0.022 C 
ATOM     16  C   UNL     1      33.689 -21.777 -19.247  0.00  0.00    +0.123 C 
ENDBRANCH   4  11
ENDBRANCH   1   3
BRANCH   1  17
ATOM     17  C   UNL     1      34.244 -13.759 -23.035  0.00  0.00    +0.184 C 
BRANCH  17  18
ATOM     18  C   UNL     1      34.281 -12.621 -24.062  0.00  0.00    -0.017 C 
BRANCH  18  19
ATOM     19  N   UNL     1      33.745 -13.127 -25.328  0.00  0.00    +0.384 N 
ATOM     20  H   UNL     1      33.083 -13.879 -25.140  0.00  0.00    -0.089 HD
ATOM     21  H   UNL     1      34.509 -13.482 -25.904  0.00  0.00    -0.089 HD
ATOM     22  H   UNL     1      33.270 -12.371 -25.822  0.00  0.00    -0.089 HD
ENDBRANCH  18  19
BRANCH  18  23
ATOM     23  C   UNL     1      33.463 -11.381 -23.625  0.00  0.00    +0.010 C 
BRANCH  23  25
ATOM     24  N   UNL     1      35.832  -8.695 -24.695  0.00  0.00    -0.244 NA
ATOM     25  C   UNL     1      34.145 -10.090 -23.827  0.00  0.00    -0.004 C 
ATOM     26  C   UNL     1      33.918  -8.836 -23.416  0.00  0.00    +0.011 C 
ATOM     27  C   UNL     1      34.949  -7.968 -23.944  0.00  0.00    +0.080 C 
ATOM     28  C   UNL     1      35.367  -9.906 -24.624  0.00  0.00    +0.094 C 
ATOM     29  C   UNL     1      32.852  -8.333 -22.587  0.00  0.00    -0.020 C 
ATOM     30  C   UNL     1      34.947  -6.656 -23.675  0.00  0.00    +0.015 C 
ATOM     31  C   UNL     1      33.867  -6.036 -22.810  0.00  0.00    -0.020 C 
ATOM     32  C   UNL     1      32.828  -7.019 -22.302  0.00  0.00    +0.052 C 
ENDBRANCH  23  25
ENDBRANCH  18  23
ENDBRANCH  17  18
ENDBRANCH   1  17
TORSDOF 7
ENDMDL
MODEL 3
REMARK VINA RESULT:     -11.3      2.113      8.629
REMARK  Name = 46937052
REMARK  7 active torsions:
REMARK  status: ('A' for Active; 'I' for Inactive)
REMARK    1  A    between atoms: O_1  and  C_3
REMARK    2  A    between atoms: O_1  and  C_17
REMARK    3  A    between atoms: C_4  and  C_11
REMARK    4  A    between atoms: C_17  and  C_18
REMARK    5  A    between atoms: C_18  and  N_19
REMARK    6  A    between atoms: C_18  and  C_23
REMARK    7  A    between atoms: C_23  and  C_25
REMARK                            x       y       z     vdW  Elec       q    Type
REMARK                         _______ _______ _______ _____ _____    ______ ____
ROOT
ATOM      1  O   UNL     1      36.938 -23.134 -15.998  0.00  0.00    -0.476 OA
ENDROOT
BRANCH   1   3
ATOM      2  N   UNL     1      35.643 -23.904 -12.664  0.00  0.00    -0.239 NA
ATOM      3  C   UNL     1      36.048 -23.439 -15.002  0.00  0.00    +0.158 C 
ATOM      4  C   UNL     1      33.813 -23.901 -14.243  0.00  0.00    +0.039 C 
ATOM      5  C   UNL     1      34.693 -23.593 -15.274  0.00  0.00    +0.042 C 
ATOM      6  C   UNL     1      36.468 -23.603 -13.692  0.00  0.00    +0.136 C 
ATOM      7  C   UNL     1      34.334 -24.045 -12.967  0.00  0.00    +0.101 C 
BRANCH   4  11
ATOM      8  N   UNL     1      31.768 -25.108 -14.008  0.00  0.00    -0.264 NA
ATOM      9  N   UNL     1      28.433 -24.247 -15.378  0.00  0.00    -0.150 NA
ATOM     10  N   UNL     1      28.257 -23.042 -16.186  0.00  0.00    -0.147 NA
ATOM     11  C   UNL     1      32.357 -24.074 -14.502  0.00  0.00    +0.078 C 
ATOM     12  C   UNL     1      30.426 -23.182 -15.554  0.00  0.00    +0.040 C 
ATOM     13  C   UNL     1      29.690 -24.305 -15.028  0.00  0.00    +0.107 C 
ATOM     14  C   UNL     1      30.339 -25.358 -14.209  0.00  0.00    +0.173 C 
ATOM     15  C   UNL     1      31.721 -23.017 -15.338  0.00  0.00    +0.022 C 
ATOM     16  C   UNL     1      29.413 -22.449 -16.276  0.00  0.00    +0.123 C 
ENDBRANCH   4  11
ENDBRANCH   1   3
BRANCH   1  17
ATOM     17  C   UNL     1      37.564 -21.859 -15.930  0.00  0.00    +0.184 C 
BRANCH  17  18
ATOM     18  C   UNL     1      37.014 -20.933 -17.023  0.00  0.00    -0.017 C 
BRANCH  18  19
ATOM     19  N   UNL     1      37.930 -19.799 -17.168  0.00  0.00    +0.384 N 
ATOM     20  H   UNL     1      38.718 -19.915 -16.531  0.00  0.00    -0.089 HD
ATOM     21  H   UNL     1      37.438 -18.934 -16.945  0.00  0.00    -0.089 HD
ATOM     22  H   UNL     1      38.271 -19.759 -18.128  0.00  0.00    -0.089 HD
ENDBRANCH  18  19
BRANCH  18  23
ATOM     23  C   UNL     1      36.858 -21.637 -18.394  0.00  0.00    +0.010 C 
BRANCH  23  25
ATOM     24  N   UNL     1      33.828 -20.542 -20.290  0.00  0.00    -0.244 NA
ATOM     25  C   UNL     1      35.936 -20.967 -19.329  0.00  0.00    -0.004 C 
ATOM     26  C   UNL     1      36.079 -20.038 -20.281  0.00  0.00    +0.011 C 
ATOM     27  C   UNL     1      34.788 -19.767 -20.880  0.00  0.00    +0.080 C 
ATOM     28  C   UNL     1      34.489 -21.226 -19.404  0.00  0.00    +0.094 C 
ATOM     29  C   UNL     1      37.274 -19.358 -20.712  0.00  0.00    -0.020 C 
ATOM     30  C   UNL     1      34.663 -18.869 -21.865  0.00  0.00    +0.015 C 
ATOM     31  C   UNL     1      35.865 -18.104 -22.385  0.00  0.00    -0.020 C 
ATOM     32  C   UNL     1      37.174 -18.450 -21.699  0.00  0.00    +0.052 C 
ENDBRANCH  23  25
ENDBRANCH  18  23
ENDBRANCH  17  18
ENDBRANCH   1  17
TORSDOF 7
ENDMDL
MODEL 4
REMARK VINA RESULT:     -11.3      5.314      8.567
REMARK  Name = 46937052
REMARK  7 active torsions:
REMARK  status: ('A' for Active; 'I' for Inactive)
REMARK    1  A    between atoms: O_1  and  C_3
REMARK    2  A    between atoms: O_1  and  C_17
REMARK    3  A    between atoms: C_4  and  C_11
REMARK    4  A    between atoms: C_17  and  C_18
REMARK    5  A    between atoms: C_18  and  N_19
REMARK    6  A    between atoms: C_18  and  C_23
REMARK    7  A    between atoms: C_23  and  C_25
REMARK                            x       y       z     vdW  Elec       q    Type
REMARK                         _______ _______ _______ _____ _____    ______ ____
ROOT
ATOM      1  O   UNL     1      35.032 -15.727 -22.643  0.00  0.00    -0.476 OA
ENDROOT
BRANCH   1   3
ATOM      2  N   UNL     1      33.790 -14.217 -25.735  0.00  0.00    -0.239 NA
ATOM      3  C   UNL     1      34.581 -14.775 -23.520  0.00  0.00    +0.158 C 
ATOM      4  C   UNL     1      33.990 -12.503 -24.043  0.00  0.00    +0.039 C 
ATOM      5  C   UNL     1      34.451 -13.447 -23.132  0.00  0.00    +0.042 C 
ATOM      6  C   UNL     1      34.240 -15.106 -24.822  0.00  0.00    +0.136 C 
ATOM      7  C   UNL     1      33.676 -12.936 -25.321  0.00  0.00    +0.101 C 
BRANCH   4  11
ATOM      8  N   UNL     1      32.848 -10.744 -22.906  0.00  0.00    -0.264 NA
ATOM      9  N   UNL     1      33.719  -7.142 -22.802  0.00  0.00    -0.150 NA
ATOM     10  N   UNL     1      34.886  -6.645 -23.530  0.00  0.00    -0.147 NA
ATOM     11  C   UNL     1      33.841 -11.073 -23.659  0.00  0.00    +0.078 C 
ATOM     12  C   UNL     1      34.725  -8.880 -23.856  0.00  0.00    +0.040 C 
ATOM     13  C   UNL     1      33.649  -8.430 -23.007  0.00  0.00    +0.107 C 
ATOM     14  C   UNL     1      32.623  -9.362 -22.476  0.00  0.00    +0.173 C 
ATOM     15  C   UNL     1      34.868 -10.146 -24.210  0.00  0.00    +0.022 C 
ATOM     16  C   UNL     1      35.445  -7.658 -24.129  0.00  0.00    +0.123 C 
ENDBRANCH   4  11
ENDBRANCH   1   3
BRANCH   1  17
ATOM     17  C   UNL     1      35.719 -16.839 -23.202  0.00  0.00    +0.184 C 
BRANCH  17  18
ATOM     18  C   UNL     1      34.981 -18.144 -22.876  0.00  0.00    -0.017 C 
BRANCH  18  19
ATOM     19  N   UNL     1      34.908 -18.948 -24.098  0.00  0.00    +0.384 N 
ATOM     20  H   UNL     1      33.931 -19.074 -24.364  0.00  0.00    -0.089 HD
ATOM     21  H   UNL     1      35.335 -19.860 -23.932  0.00  0.00    -0.089 HD
ATOM     22  H   UNL     1      35.406 -18.471 -24.849  0.00  0.00    -0.089 HD
ENDBRANCH  18  19
BRANCH  18  23
ATOM     23  C   UNL     1      35.673 -18.972 -21.765  0.00  0.00    +0.010 C 
BRANCH  23  25
ATOM     24  N   UNL     1      32.639 -20.542 -20.246  0.00  0.00    -0.244 NA
ATOM     25  C   UNL     1      34.756 -19.762 -20.923  0.00  0.00    -0.004 C 
ATOM     26  C   UNL     1      34.918 -20.597 -19.890  0.00  0.00    +0.011 C 
ATOM     27  C   UNL     1      33.622 -21.085 -19.464  0.00  0.00    +0.080 C 
ATOM     28  C   UNL     1      33.293 -19.787 -21.078  0.00  0.00    +0.094 C 
ATOM     29  C   UNL     1      36.136 -21.008 -19.240  0.00  0.00    -0.020 C 
ATOM     30  C   UNL     1      33.513 -21.941 -18.441  0.00  0.00    +0.015 C 
ATOM     31  C   UNL     1      34.739 -22.429 -17.694  0.00  0.00    -0.020 C 
ATOM     32  C   UNL     1      36.053 -21.868 -18.208  0.00  0.00    +0.052 C 
ENDBRANCH  23  25
ENDBRANCH  18  23
ENDBRANCH  17  18
ENDBRANCH   1  17
TORSDOF 7
ENDMDL
MODEL 5
REMARK VINA RESULT:     -11.2      2.444      9.964
REMARK  Name = 46937052
REMARK  7 active torsions:
REMARK  status: ('A' for Active; 'I' for Inactive)
REMARK    1  A    between atoms: O_1  and  C_3
REMARK    2  A    between atoms: O_1  and  C_17
REMARK    3  A    between atoms: C_4  and  C_11
REMARK    4  A    between atoms: C_17  and  C_18
REMARK    5  A    between atoms: C_18  and  N_19
REMARK    6  A    between atoms: C_18  and  C_23
REMARK    7  A    between atoms: C_23  and  C_25
REMARK                            x       y       z     vdW  Elec       q    Type
REMARK                         _______ _______ _______ _____ _____    ______ ____
ROOT
ATOM      1  O   UNL     1      35.550 -20.564 -20.484  0.00  0.00    -0.476 OA
ENDROOT
BRANCH   1   3
ATOM      2  N   UNL     1      32.792 -22.152 -18.680  0.00  0.00    -0.239 NA
ATOM      3  C   UNL     1      34.873 -21.235 -19.499  0.00  0.00    +0.158 C 
ATOM      4  C   UNL     1      34.814 -22.354 -17.370  0.00  0.00    +0.039 C 
ATOM      5  C   UNL     1      35.526 -21.675 -18.353  0.00  0.00    +0.042 C 
ATOM      6  C   UNL     1      33.518 -21.496 -19.613  0.00  0.00    +0.136 C 
ATOM      7  C   UNL     1      33.460 -22.565 -17.580  0.00  0.00    +0.101 C 
BRANCH   4  11
ATOM      8  N   UNL     1      36.768 -22.921 -16.126  0.00  0.00    -0.264 NA
ATOM      9  N   UNL     1      36.980 -24.175 -12.644  0.00  0.00    -0.150 NA
ATOM     10  N   UNL     1      35.762 -24.391 -11.863  0.00  0.00    -0.147 NA
ATOM     11  C   UNL     1      35.482 -22.838 -16.132  0.00  0.00    +0.078 C 
ATOM     12  C   UNL     1      35.184 -23.623 -13.913  0.00  0.00    +0.040 C 
ATOM     13  C   UNL     1      36.619 -23.734 -13.819  0.00  0.00    +0.107 C 
ATOM     14  C   UNL     1      37.511 -23.384 -14.951  0.00  0.00    +0.173 C 
ATOM     15  C   UNL     1      34.574 -23.200 -15.008  0.00  0.00    +0.022 C 
ATOM     16  C   UNL     1      34.746 -24.071 -12.612  0.00  0.00    +0.123 C 
ENDBRANCH   4  11
ENDBRANCH   1   3
BRANCH   1  17
ATOM     17  C   UNL     1      34.907 -19.426 -21.042  0.00  0.00    +0.184 C 
BRANCH  17  18
ATOM     18  C   UNL     1      35.910 -18.280 -21.224  0.00  0.00    -0.017 C 
BRANCH  18  19
ATOM     19  N   UNL     1      37.129 -18.613 -20.484  0.00  0.00    +0.384 N 
ATOM     20  H   UNL     1      37.653 -19.324 -20.995  0.00  0.00    -0.089 HD
ATOM     21  H   UNL     1      36.880 -18.972 -19.562  0.00  0.00    -0.089 HD
ATOM     22  H   UNL     1      37.704 -17.777 -20.380  0.00  0.00    -0.089 HD
ENDBRANCH  18  19
BRANCH  18  23
ATOM     23  C   UNL     1      36.273 -18.020 -22.707  0.00  0.00    +0.010 C 
BRANCH  23  25
ATOM     24  N   UNL     1      34.377 -15.945 -25.172  0.00  0.00    -0.244 NA
ATOM     25  C   UNL     1      35.489 -16.955 -23.357  0.00  0.00    -0.004 C 
ATOM     26  C   UNL     1      34.973 -15.790 -22.949  0.00  0.00    +0.011 C 
ATOM     27  C   UNL     1      34.286 -15.158 -24.056  0.00  0.00    +0.080 C 
ATOM     28  C   UNL     1      35.065 -16.970 -24.766  0.00  0.00    +0.094 C 
ATOM     29  C   UNL     1      35.035 -15.178 -21.645  0.00  0.00    -0.020 C 
ATOM     30  C   UNL     1      33.681 -13.973 -23.904  0.00  0.00    +0.015 C 
ATOM     31  C   UNL     1      33.694 -13.253 -22.570  0.00  0.00    -0.020 C 
ATOM     32  C   UNL     1      34.435 -13.988 -21.467  0.00  0.00    +0.052 C 
ENDBRANCH  23  25
ENDBRANCH  18  23
ENDBRANCH  17  18
ENDBRANCH   1  17
TORSDOF 7
ENDMDL
MODEL 6
REMARK VINA RESULT:     -11.2      5.821      9.144
REMARK  Name = 46937052
REMARK  7 active torsions:
REMARK  status: ('A' for Active; 'I' for Inactive)
REMARK    1  A    between atoms: O_1  and  C_3
REMARK    2  A    between atoms: O_1  and  C_17
REMARK    3  A    between atoms: C_4  and  C_11
REMARK    4  A    between atoms: C_17  and  C_18
REMARK    5  A    between atoms: C_18  and  N_19
REMARK    6  A    between atoms: C_18  and  C_23
REMARK    7  A    between atoms: C_23  and  C_25
REMARK                            x       y       z     vdW  Elec       q    Type
REMARK                         _______ _______ _______ _____ _____    ______ ____
ROOT
ATOM      1  O   UNL     1      34.508 -15.039 -22.924  0.00  0.00    -0.476 OA
ENDROOT
BRANCH   1   3
ATOM      2  N   UNL     1      33.647 -13.391 -26.074  0.00  0.00    -0.239 NA
ATOM      3  C   UNL     1      34.268 -14.039 -23.829  0.00  0.00    +0.158 C 
ATOM      4  C   UNL     1      34.136 -11.708 -24.409  0.00  0.00    +0.039 C 
ATOM      5  C   UNL     1      34.387 -12.701 -23.469  0.00  0.00    +0.042 C 
ATOM      6  C   UNL     1      33.898 -14.328 -25.133  0.00  0.00    +0.136 C 
ATOM      7  C   UNL     1      33.773 -12.102 -25.687  0.00  0.00    +0.101 C 
BRANCH   4  11
ATOM      8  N   UNL     1      35.301  -9.627 -24.452  0.00  0.00    -0.264 NA
ATOM      9  N   UNL     1      34.278  -6.400 -22.940  0.00  0.00    -0.150 NA
ATOM     10  N   UNL     1      33.024  -6.301 -22.195  0.00  0.00    -0.147 NA
ATOM     11  C   UNL     1      34.256 -10.268 -24.056  0.00  0.00    +0.078 C 
ATOM     12  C   UNL     1      33.256  -8.424 -22.945  0.00  0.00    +0.040 C 
ATOM     13  C   UNL     1      34.387  -7.632 -23.360  0.00  0.00    +0.107 C 
ATOM     14  C   UNL     1      35.502  -8.207 -24.153  0.00  0.00    +0.173 C 
ATOM     15  C   UNL     1      33.137  -9.707 -23.247  0.00  0.00    +0.022 C 
ATOM     16  C   UNL     1      32.457  -7.473 -22.208  0.00  0.00    +0.123 C 
ENDBRANCH   4  11
ENDBRANCH   1   3
BRANCH   1  17
ATOM     17  C   UNL     1      35.039 -16.254 -23.436  0.00  0.00    +0.184 C 
BRANCH  17  18
ATOM     18  C   UNL     1      35.583 -17.124 -22.296  0.00  0.00    -0.017 C 
BRANCH  18  19
ATOM     19  N   UNL     1      35.268 -16.466 -21.025  0.00  0.00    +0.384 N 
ATOM     20  H   UNL     1      36.133 -16.260 -20.526  0.00  0.00    -0.089 HD
ATOM     21  H   UNL     1      34.686 -17.083 -20.458  0.00  0.00    -0.089 HD
ATOM     22  H   UNL     1      34.765 -15.598 -21.208  0.00  0.00    -0.089 HD
ENDBRANCH  18  19
BRANCH  18  23
ATOM     23  C   UNL     1      34.989 -18.554 -22.287  0.00  0.00    +0.010 C 
BRANCH  23  25
ATOM     24  N   UNL     1      37.094 -20.325 -19.757  0.00  0.00    -0.244 NA
ATOM     25  C   UNL     1      35.458 -19.410 -21.183  0.00  0.00    -0.004 C 
ATOM     26  C   UNL     1      34.861 -20.247 -20.327  0.00  0.00    +0.011 C 
ATOM     27  C   UNL     1      35.857 -20.818 -19.444  0.00  0.00    +0.080 C 
ATOM     28  C   UNL     1      36.861 -19.522 -20.751  0.00  0.00    +0.094 C 
ATOM     29  C   UNL     1      33.465 -20.591 -20.220  0.00  0.00    -0.020 C 
ATOM     30  C   UNL     1      35.510 -21.692 -18.491  0.00  0.00    +0.015 C 
ATOM     31  C   UNL     1      34.067 -22.115 -18.303  0.00  0.00    -0.020 C 
ATOM     32  C   UNL     1      33.092 -21.467 -19.271  0.00  0.00    +0.052 C 
ENDBRANCH  23  25
ENDBRANCH  18  23
ENDBRANCH  17  18
ENDBRANCH   1  17
TORSDOF 7
ENDMDL
MODEL 7
REMARK VINA RESULT:     -11.1      5.758     12.025
REMARK  Name = 46937052
REMARK  7 active torsions:
REMARK  status: ('A' for Active; 'I' for Inactive)
REMARK    1  A    between atoms: O_1  and  C_3
REMARK    2  A    between atoms: O_1  and  C_17
REMARK    3  A    between atoms: C_4  and  C_11
REMARK    4  A    between atoms: C_17  and  C_18
REMARK    5  A    between atoms: C_18  and  N_19
REMARK    6  A    between atoms: C_18  and  C_23
REMARK    7  A    between atoms: C_23  and  C_25
REMARK                            x       y       z     vdW  Elec       q    Type
REMARK                         _______ _______ _______ _____ _____    ______ ____
ROOT
ATOM      1  O   UNL     1      35.279 -14.908 -23.302  0.00  0.00    -0.476 OA
ENDROOT
BRANCH   1   3
ATOM      2  N   UNL     1      34.435 -18.180 -24.704  0.00  0.00    -0.239 NA
ATOM      3  C   UNL     1      35.093 -16.263 -23.386  0.00  0.00    +0.158 C 
ATOM      4  C   UNL     1      35.154 -18.462 -22.413  0.00  0.00    +0.039 C 
ATOM      5  C   UNL     1      35.351 -17.091 -22.299  0.00  0.00    +0.042 C 
ATOM      6  C   UNL     1      34.640 -16.852 -24.556  0.00  0.00    +0.136 C 
ATOM      7  C   UNL     1      34.698 -18.953 -23.627  0.00  0.00    +0.101 C 
BRANCH   4  11
ATOM      8  N   UNL     1      36.618 -19.426 -20.795  0.00  0.00    -0.264 NA
ATOM      9  N   UNL     1      35.812 -21.932 -18.186  0.00  0.00    -0.150 NA
ATOM     10  N   UNL     1      34.454 -22.463 -18.067  0.00  0.00    -0.147 NA
ATOM     11  C   UNL     1      35.421 -19.375 -21.269  0.00  0.00    +0.078 C 
ATOM     12  C   UNL     1      34.505 -20.969 -19.768  0.00  0.00    +0.040 C 
ATOM     13  C   UNL     1      35.814 -21.076 -19.172  0.00  0.00    +0.107 C 
ATOM     14  C   UNL     1      36.972 -20.293 -19.669  0.00  0.00    +0.173 C 
ATOM     15  C   UNL     1      34.253 -20.167 -20.789  0.00  0.00    +0.022 C 
ATOM     16  C   UNL     1      33.724 -21.899 -18.986  0.00  0.00    +0.123 C 
ENDBRANCH   4  11
ENDBRANCH   1   3
BRANCH   1  17
ATOM     17  C   UNL     1      34.498 -14.099 -24.171  0.00  0.00    +0.184 C 
BRANCH  17  18
ATOM     18  C   UNL     1      33.991 -12.854 -23.432  0.00  0.00    -0.017 C 
BRANCH  18  19
ATOM     19  N   UNL     1      34.432 -12.936 -22.037  0.00  0.00    +0.384 N 
ATOM     20  H   UNL     1      35.066 -13.727 -21.927  0.00  0.00    -0.089 HD
ATOM     21  H   UNL     1      33.621 -13.063 -21.431  0.00  0.00    -0.089 HD
ATOM     22  H   UNL     1      34.916 -12.075 -21.783  0.00  0.00    -0.089 HD
ENDBRANCH  18  19
BRANCH  18  23
ATOM     23  C   UNL     1      34.506 -11.530 -24.049  0.00  0.00    +0.010 C 
BRANCH  23  25
ATOM     24  N   UNL     1      32.112  -9.137 -22.462  0.00  0.00    -0.244 NA
ATOM     25  C   UNL     1      33.841 -10.315 -23.543  0.00  0.00    -0.004 C 
ATOM     26  C   UNL     1      34.141  -9.011 -23.552  0.00  0.00    +0.011 C 
ATOM     27  C   UNL     1      33.085  -8.274 -22.889  0.00  0.00    +0.080 C 
ATOM     28  C   UNL     1      32.550 -10.301 -22.838  0.00  0.00    +0.094 C 
ATOM     29  C   UNL     1      35.297  -8.350 -24.102  0.00  0.00    -0.020 C 
ATOM     30  C   UNL     1      33.148  -6.943 -22.765  0.00  0.00    +0.015 C 
ATOM     31  C   UNL     1      34.326  -6.161 -23.314  0.00  0.00    -0.020 C 
ATOM     32  C   UNL     1      35.385  -7.012 -23.990  0.00  0.00    +0.052 C 
ENDBRANCH  23  25
ENDBRANCH  18  23
ENDBRANCH  17  18
ENDBRANCH   1  17
TORSDOF 7
ENDMDL
MODEL 8
REMARK VINA RESULT:     -11.1      1.918      9.792
REMARK  Name = 46937052
REMARK  7 active torsions:
REMARK  status: ('A' for Active; 'I' for Inactive)
REMARK    1  A    between atoms: O_1  and  C_3
REMARK    2  A    between atoms: O_1  and  C_17
REMARK    3  A    between atoms: C_4  and  C_11
REMARK    4  A    between atoms: C_17  and  C_18
REMARK    5  A    between atoms: C_18  and  N_19
REMARK    6  A    between atoms: C_18  and  C_23
REMARK    7  A    between atoms: C_23  and  C_25
REMARK                            x       y       z     vdW  Elec       q    Type
REMARK                         _______ _______ _______ _____ _____    ______ ____
ROOT
ATOM      1  O   UNL     1      35.678 -21.380 -19.916  0.00  0.00    -0.476 OA
ENDROOT
BRANCH   1   3
ATOM      2  N   UNL     1      36.927 -22.010 -16.536  0.00  0.00    -0.239 NA
ATOM      3  C   UNL     1      35.691 -21.757 -18.598  0.00  0.00    +0.158 C 
ATOM      4  C   UNL     1      34.591 -22.626 -16.644  0.00  0.00    +0.039 C 
ATOM      5  C   UNL     1      34.548 -22.253 -17.983  0.00  0.00    +0.042 C 
ATOM      6  C   UNL     1      36.845 -21.656 -17.838  0.00  0.00    +0.136 C 
ATOM      7  C   UNL     1      35.795 -22.487 -15.971  0.00  0.00    +0.101 C 
BRANCH   4  11
ATOM      8  N   UNL     1      33.555 -23.914 -14.925  0.00  0.00    -0.264 NA
ATOM      9  N   UNL     1      29.934 -24.441 -14.327  0.00  0.00    -0.150 NA
ATOM     10  N   UNL     1      28.944 -23.830 -15.214  0.00  0.00    -0.147 NA
ATOM     11  C   UNL     1      33.385 -23.161 -15.956  0.00  0.00    +0.078 C 
ATOM     12  C   UNL     1      31.014 -23.253 -15.929  0.00  0.00    +0.040 C 
ATOM     13  C   UNL     1      31.116 -24.094 -14.761  0.00  0.00    +0.107 C 
ATOM     14  C   UNL     1      32.427 -24.483 -14.184  0.00  0.00    +0.173 C 
ATOM     15  C   UNL     1      32.077 -22.775 -16.555  0.00  0.00    +0.022 C 
ATOM     16  C   UNL     1      29.586 -23.158 -16.126  0.00  0.00    +0.123 C 
ENDBRANCH   4  11
ENDBRANCH   1   3
BRANCH   1  17
ATOM     17  C   UNL     1      36.324 -20.156 -20.239  0.00  0.00    +0.184 C 
BRANCH  17  18
ATOM     18  C   UNL     1      35.566 -19.429 -21.357  0.00  0.00    -0.017 C 
BRANCH  18  19
ATOM     19  N   UNL     1      34.139 -19.434 -21.025  0.00  0.00    +0.384 N 
ATOM     20  H   UNL     1      33.751 -18.503 -21.178  0.00  0.00    -0.089 HD
ATOM     21  H   UNL     1      34.019 -19.696 -20.046  0.00  0.00    -0.089 HD
ATOM     22  H   UNL     1      33.654 -20.106 -21.619  0.00  0.00    -0.089 HD
ENDBRANCH  18  19
BRANCH  18  23
ATOM     23  C   UNL     1      36.034 -17.966 -21.557  0.00  0.00    +0.010 C 
BRANCH  23  25
ATOM     24  N   UNL     1      34.806 -17.200 -25.003  0.00  0.00    -0.244 NA
ATOM     25  C   UNL     1      35.480 -17.299 -22.749  0.00  0.00    -0.004 C 
ATOM     26  C   UNL     1      35.013 -16.071 -23.002  0.00  0.00    +0.011 C 
ATOM     27  C   UNL     1      34.594 -15.996 -24.387  0.00  0.00    +0.080 C 
ATOM     28  C   UNL     1      35.312 -17.939 -24.063  0.00  0.00    +0.094 C 
ATOM     29  C   UNL     1      34.901 -14.942 -22.114  0.00  0.00    -0.020 C 
ATOM     30  C   UNL     1      34.086 -14.865 -24.891  0.00  0.00    +0.015 C 
ATOM     31  C   UNL     1      33.932 -13.625 -24.033  0.00  0.00    -0.020 C 
ATOM     32  C   UNL     1      34.393 -13.794 -22.597  0.00  0.00    +0.052 C 
ENDBRANCH  23  25
ENDBRANCH  18  23
ENDBRANCH  17  18
ENDBRANCH   1  17
TORSDOF 7
ENDMDL
MODEL 9
REMARK VINA RESULT:     -11.0      5.450     10.917
REMARK  Name = 46937052
REMARK  7 active torsions:
REMARK  status: ('A' for Active; 'I' for Inactive)
REMARK    1  A    between atoms: O_1  and  C_3
REMARK    2  A    between atoms: O_1  and  C_17
REMARK    3  A    between atoms: C_4  and  C_11
REMARK    4  A    between atoms: C_17  and  C_18
REMARK    5  A    between atoms: C_18  and  N_19
REMARK    6  A    between atoms: C_18  and  C_23
REMARK    7  A    between atoms: C_23  and  C_25
REMARK                            x       y       z     vdW  Elec       q    Type
REMARK                         _______ _______ _______ _____ _____    ______ ____
ROOT
ATOM      1  O   UNL     1      35.297 -14.944 -22.844  0.00  0.00    -0.476 OA
ENDROOT
BRANCH   1   3
ATOM      2  N   UNL     1      34.835 -18.174 -24.500  0.00  0.00    -0.239 NA
ATOM      3  C   UNL     1      35.204 -16.301 -23.016  0.00  0.00    +0.158 C 
ATOM      4  C   UNL     1      35.272 -18.545 -22.151  0.00  0.00    +0.039 C 
ATOM      5  C   UNL     1      35.371 -17.173 -21.946  0.00  0.00    +0.042 C 
ATOM      6  C   UNL     1      34.940 -16.847 -24.262  0.00  0.00    +0.136 C 
ATOM      7  C   UNL     1      35.004 -18.990 -23.436  0.00  0.00    +0.101 C 
BRANCH   4  11
ATOM      8  N   UNL     1      36.624 -19.653 -20.528  0.00  0.00    -0.264 NA
ATOM      9  N   UNL     1      35.578 -22.163 -18.009  0.00  0.00    -0.150 NA
ATOM     10  N   UNL     1      34.184 -22.598 -17.937  0.00  0.00    -0.147 NA
ATOM     11  C   UNL     1      35.445 -19.504 -21.028  0.00  0.00    +0.078 C 
ATOM     12  C   UNL     1      34.382 -21.068 -19.594  0.00  0.00    +0.040 C 
ATOM     13  C   UNL     1      35.665 -21.284 -18.971  0.00  0.00    +0.107 C 
ATOM     14  C   UNL     1      36.888 -20.572 -19.420  0.00  0.00    +0.173 C 
ATOM     15  C   UNL     1      34.213 -20.222 -20.597  0.00  0.00    +0.022 C 
ATOM     16  C   UNL     1      33.518 -21.960 -18.856  0.00  0.00    +0.123 C 
ENDBRANCH   4  11
ENDBRANCH   1   3
BRANCH   1  17
ATOM     17  C   UNL     1      34.492 -14.134 -23.689  0.00  0.00    +0.184 C 
BRANCH  17  18
ATOM     18  C   UNL     1      34.194 -12.788 -23.017  0.00  0.00    -0.017 C 
BRANCH  18  19
ATOM     19  N   UNL     1      34.602 -11.718 -23.930  0.00  0.00    +0.384 N 
ATOM     20  H   UNL     1      33.834 -11.057 -24.045  0.00  0.00    -0.089 HD
ATOM     21  H   UNL     1      34.844 -12.118 -24.837  0.00  0.00    -0.089 HD
ATOM     22  H   UNL     1      35.413 -11.233 -23.545  0.00  0.00    -0.089 HD
ENDBRANCH  18  19
BRANCH  18  23
ATOM     23  C   UNL     1      32.698 -12.605 -22.659  0.00  0.00    +0.010 C 
BRANCH  23  25
ATOM     24  N   UNL     1      32.005 -10.903 -19.404  0.00  0.00    -0.244 NA
ATOM     25  C   UNL     1      32.433 -11.602 -21.612  0.00  0.00    -0.004 C 
ATOM     26  C   UNL     1      32.308 -10.270 -21.601  0.00  0.00    +0.011 C 
ATOM     27  C   UNL     1      32.045  -9.827 -20.248  0.00  0.00    +0.080 C 
ATOM     28  C   UNL     1      32.227 -11.914 -20.189  0.00  0.00    +0.094 C 
ATOM     29  C   UNL     1      32.405  -9.342 -22.699  0.00  0.00    -0.020 C 
ATOM     30  C   UNL     1      31.880  -8.528 -19.970  0.00  0.00    +0.015 C 
ATOM     31  C   UNL     1      31.962  -7.477 -21.060  0.00  0.00    -0.020 C 
ATOM     32  C   UNL     1      32.243  -8.031 -22.446  0.00  0.00    +0.052 C 
ENDBRANCH  23  25
ENDBRANCH  18  23
ENDBRANCH  17  18
ENDBRANCH   1  17
TORSDOF 7
ENDMDL
