MODEL 1
REMARK VINA RESULT:     -11.4      0.000      0.000
REMARK  Name = 11314340
REMARK  7 active torsions:
REMARK  status: ('A' for Active; 'I' for Inactive)
REMARK    1  A    between atoms: C_2  and  C_10
REMARK    2  A    between atoms: C_3  and  O_18
REMARK    3  A    between atoms: O_18  and  C_19
REMARK    4  A    between atoms: C_19  and  C_20
REMARK    5  A    between atoms: C_20  and  N_21
REMARK    6  A    between atoms: C_20  and  C_25
REMARK    7  A    between atoms: C_25  and  C_26
REMARK                            x       y       z     vdW  Elec       q    Type
REMARK                         _______ _______ _______ _____ _____    ______ ____
ROOT
ATOM      1  N   UNL     1      33.648 -15.619 -25.542  0.00  0.00    -0.239 NA
ATOM      2  C   UNL     1      34.042 -13.716 -24.115  0.00  0.00    +0.022 C 
ATOM      3  C   UNL     1      35.212 -15.769 -23.705  0.00  0.00    +0.158 C 
ATOM      4  C   UNL     1      34.952 -14.446 -23.365  0.00  0.00    +0.040 C 
ATOM      5  C   UNL     1      33.420 -14.336 -25.182  0.00  0.00    +0.099 C 
ATOM      6  C   UNL     1      34.540 -16.304 -24.792  0.00  0.00    +0.136 C 
ENDROOT
BRANCH   2  10
ATOM      7  N   UNL     1      32.096  -8.793 -21.744  0.00  0.00    -0.280 N 
ATOM      8  N   UNL     1      32.875  -8.466 -22.794  0.00  0.00    -0.173 NA
ATOM      9  C   UNL     1      32.728 -10.714 -22.500  0.00  0.00    +0.032 A 
ATOM     10  C   UNL     1      33.747 -12.334 -23.785  0.00  0.00    +0.002 C 
ATOM     11  C   UNL     1      33.288  -9.645 -23.292  0.00  0.00    +0.102 A 
ATOM     12  C   UNL     1      32.909 -12.079 -22.682  0.00  0.00    +0.003 C 
ATOM     13  C   UNL     1      31.972 -10.134 -21.521  0.00  0.00    +0.053 A 
ATOM     14  C   UNL     1      34.328 -11.310 -24.600  0.00  0.00    +0.002 C 
ATOM     15  C   UNL     1      34.123  -9.929 -24.388  0.00  0.00    +0.021 C 
ATOM     16  C   UNL     1      31.160 -10.670 -20.416  0.00  0.00    +0.051 C 
ATOM     17  H   UNL     1      31.651  -8.118 -21.182  0.00  0.00    +0.189 HD
ENDBRANCH   2  10
BRANCH   3  18
ATOM     18  O   UNL     1      36.098 -16.511 -22.994  0.00  0.00    -0.476 OA
BRANCH  18  19
ATOM     19  C   UNL     1      35.979 -17.932 -23.080  0.00  0.00    +0.184 C 
BRANCH  19  20
ATOM     20  C   UNL     1      35.784 -18.534 -21.684  0.00  0.00    -0.017 C 
BRANCH  20  21
ATOM     21  N   UNL     1      35.703 -17.438 -20.715  0.00  0.00    +0.384 N 
ATOM     22  H   UNL     1      36.586 -17.362 -20.211  0.00  0.00    -0.089 HD
ATOM     23  H   UNL     1      34.948 -17.624 -20.053  0.00  0.00    -0.089 HD
ATOM     24  H   UNL     1      35.515 -16.562 -21.206  0.00  0.00    -0.089 HD
ENDBRANCH  20  21
BRANCH  20  25
ATOM     25  C   UNL     1      34.499 -19.381 -21.562  0.00  0.00    +0.008 C 
BRANCH  25  26
ATOM     26  C   UNL     1      34.497 -20.357 -20.411  0.00  0.00    -0.024 C 
ATOM     27  C   UNL     1      35.701 -20.860 -19.943  0.00  0.00    -0.004 C 
ATOM     28  C   UNL     1      33.290 -20.734 -19.841  0.00  0.00    -0.004 C 
ATOM     29  C   UNL     1      35.699 -21.761 -18.879  0.00  0.00    -0.000 C 
ATOM     30  C   UNL     1      33.289 -21.636 -18.777  0.00  0.00    -0.000 C 
ATOM     31  C   UNL     1      34.493 -22.150 -18.296  0.00  0.00    -0.000 C 
ENDBRANCH  25  26
ENDBRANCH  20  25
ENDBRANCH  19  20
ENDBRANCH  18  19
ENDBRANCH   3  18
TORSDOF 7
ENDMDL
MODEL 2
REMARK VINA RESULT:     -11.2      1.428      1.851
REMARK  Name = 11314340
REMARK  7 active torsions:
REMARK  status: ('A' for Active; 'I' for Inactive)
REMARK    1  A    between atoms: C_2  and  C_10
REMARK    2  A    between atoms: C_3  and  O_18
REMARK    3  A    between atoms: O_18  and  C_19
REMARK    4  A    between atoms: C_19  and  C_20
REMARK    5  A    between atoms: C_20  and  N_21
REMARK    6  A    between atoms: C_20  and  C_25
REMARK    7  A    between atoms: C_25  and  C_26
REMARK                            x       y       z     vdW  Elec       q    Type
REMARK                         _______ _______ _______ _____ _____    ______ ____
ROOT
ATOM      1  N   UNL     1      33.517 -13.853 -26.031  0.00  0.00    -0.239 NA
ATOM      2  C   UNL     1      34.179 -12.115 -24.496  0.00  0.00    +0.022 C 
ATOM      3  C   UNL     1      34.302 -14.411 -23.814  0.00  0.00    +0.158 C 
ATOM      4  C   UNL     1      34.482 -13.062 -23.529  0.00  0.00    +0.040 C 
ATOM      5  C   UNL     1      33.705 -12.551 -25.719  0.00  0.00    +0.099 C 
ATOM      6  C   UNL     1      33.821 -14.751 -25.068  0.00  0.00    +0.136 C 
ENDROOT
BRANCH   2  10
ATOM      7  N   UNL     1      33.698  -6.642 -22.639  0.00  0.00    -0.280 N 
ATOM      8  N   UNL     1      34.786  -6.714 -23.431  0.00  0.00    -0.173 NA
ATOM      9  C   UNL     1      33.729  -8.717 -23.235  0.00  0.00    +0.032 A 
ATOM     10  C   UNL     1      34.355 -10.700 -24.229  0.00  0.00    +0.002 C 
ATOM     11  C   UNL     1      34.836  -8.001 -23.823  0.00  0.00    +0.102 A 
ATOM     12  C   UNL     1      33.421 -10.062 -23.390  0.00  0.00    +0.003 C 
ATOM     13  C   UNL     1      33.023  -7.818 -22.486  0.00  0.00    +0.053 A 
ATOM     14  C   UNL     1      35.469 -10.035 -24.834  0.00  0.00    +0.002 C 
ATOM     15  C   UNL     1      35.755  -8.663 -24.657  0.00  0.00    +0.021 C 
ATOM     16  C   UNL     1      31.813  -7.921 -21.655  0.00  0.00    +0.051 C 
ATOM     17  H   UNL     1      33.413  -5.805 -22.205  0.00  0.00    +0.189 HD
ENDBRANCH   2  10
BRANCH   3  18
ATOM     18  O   UNL     1      34.589 -15.364 -22.892  0.00  0.00    -0.476 OA
BRANCH  18  19
ATOM     19  C   UNL     1      35.485 -16.406 -23.284  0.00  0.00    +0.184 C 
BRANCH  19  20
ATOM     20  C   UNL     1      35.629 -17.434 -22.156  0.00  0.00    -0.017 C 
BRANCH  20  21
ATOM     21  N   UNL     1      35.279 -16.784 -20.890  0.00  0.00    +0.384 N 
ATOM     22  H   UNL     1      34.340 -17.065 -20.610  0.00  0.00    -0.089 HD
ATOM     23  H   UNL     1      35.310 -15.770 -21.009  0.00  0.00    -0.089 HD
ATOM     24  H   UNL     1      35.947 -17.061 -20.169  0.00  0.00    -0.089 HD
ENDBRANCH  20  21
BRANCH  20  25
ATOM     25  C   UNL     1      34.716 -18.665 -22.335  0.00  0.00    +0.008 C 
BRANCH  25  26
ATOM     26  C   UNL     1      34.745 -19.643 -21.185  0.00  0.00    -0.024 C 
ATOM     27  C   UNL     1      35.966 -20.104 -20.717  0.00  0.00    -0.004 C 
ATOM     28  C   UNL     1      33.552 -20.063 -20.618  0.00  0.00    -0.004 C 
ATOM     29  C   UNL     1      35.994 -21.007 -19.655  0.00  0.00    -0.000 C 
ATOM     30  C   UNL     1      33.581 -20.966 -19.556  0.00  0.00    -0.000 C 
ATOM     31  C   UNL     1      34.801 -21.439 -19.074  0.00  0.00    -0.000 C 
ENDBRANCH  25  26
ENDBRANCH  20  25
ENDBRANCH  19  20
ENDBRANCH  18  19
ENDBRANCH   3  18
TORSDOF 7
ENDMDL
MODEL 3
REMARK VINA RESULT:     -11.2      2.090      9.871
REMARK  Name = 11314340
REMARK  7 active torsions:
REMARK  status: ('A' for Active; 'I' for Inactive)
REMARK    1  A    between atoms: C_2  and  C_10
REMARK    2  A    between atoms: C_3  and  O_18
REMARK    3  A    between atoms: O_18  and  C_19
REMARK    4  A    between atoms: C_19  and  C_20
REMARK    5  A    between atoms: C_20  and  N_21
REMARK    6  A    between atoms: C_20  and  C_25
REMARK    7  A    between atoms: C_25  and  C_26
REMARK                            x       y       z     vdW  Elec       q    Type
REMARK                         _______ _______ _______ _____ _____    ______ ____
ROOT
ATOM      1  N   UNL     1      34.496 -16.670 -25.092  0.00  0.00    -0.239 NA
ATOM      2  C   UNL     1      35.266 -17.232 -22.878  0.00  0.00    +0.022 C 
ATOM      3  C   UNL     1      34.964 -14.931 -23.481  0.00  0.00    +0.158 C 
ATOM      4  C   UNL     1      35.323 -15.889 -22.539  0.00  0.00    +0.040 C 
ATOM      5  C   UNL     1      34.852 -17.573 -24.151  0.00  0.00    +0.099 C 
ATOM      6  C   UNL     1      34.563 -15.369 -24.731  0.00  0.00    +0.136 C 
ENDROOT
BRANCH   2  10
ATOM      7  N   UNL     1      35.324 -21.571 -19.029  0.00  0.00    -0.280 N 
ATOM      8  N   UNL     1      36.596 -21.162 -19.208  0.00  0.00    -0.173 NA
ATOM      9  C   UNL     1      35.124 -19.976 -20.470  0.00  0.00    +0.032 A 
ATOM     10  C   UNL     1      35.635 -18.256 -21.918  0.00  0.00    +0.002 C 
ATOM     11  C   UNL     1      36.508 -20.163 -20.105  0.00  0.00    +0.102 A 
ATOM     12  C   UNL     1      34.609 -19.047 -21.365  0.00  0.00    +0.003 C 
ATOM     13  C   UNL     1      34.397 -20.892 -19.765  0.00  0.00    +0.053 A 
ATOM     14  C   UNL     1      37.020 -18.403 -21.590  0.00  0.00    +0.002 C 
ATOM     15  C   UNL     1      37.513 -19.358 -20.673  0.00  0.00    +0.021 C 
ATOM     16  C   UNL     1      32.960 -21.208 -19.693  0.00  0.00    +0.051 C 
ATOM     17  H   UNL     1      35.084 -22.303 -18.417  0.00  0.00    +0.189 HD
ENDBRANCH   2  10
BRANCH   3  18
ATOM     18  O   UNL     1      35.007 -13.608 -23.182  0.00  0.00    -0.476 OA
BRANCH  18  19
ATOM     19  C   UNL     1      33.808 -12.855 -23.369  0.00  0.00    +0.184 C 
BRANCH  19  20
ATOM     20  C   UNL     1      34.131 -11.482 -23.969  0.00  0.00    -0.017 C 
BRANCH  20  21
ATOM     21  N   UNL     1      34.054 -11.584 -25.429  0.00  0.00    +0.384 N 
ATOM     22  H   UNL     1      34.802 -12.188 -25.768  0.00  0.00    -0.089 HD
ATOM     23  H   UNL     1      34.152 -10.656 -25.841  0.00  0.00    -0.089 HD
ATOM     24  H   UNL     1      33.150 -11.979 -25.694  0.00  0.00    -0.089 HD
ENDBRANCH  20  21
BRANCH  20  25
ATOM     25  C   UNL     1      33.159 -10.374 -23.511  0.00  0.00    +0.008 C 
BRANCH  25  26
ATOM     26  C   UNL     1      33.753  -8.987 -23.483  0.00  0.00    -0.024 C 
ATOM     27  C   UNL     1      32.989  -7.929 -23.014  0.00  0.00    -0.004 C 
ATOM     28  C   UNL     1      35.053  -8.794 -23.925  0.00  0.00    -0.004 C 
ATOM     29  C   UNL     1      33.537  -6.647 -22.988  0.00  0.00    -0.000 C 
ATOM     30  C   UNL     1      35.601  -7.512 -23.899  0.00  0.00    -0.000 C 
ATOM     31  C   UNL     1      34.844  -6.438 -23.431  0.00  0.00    -0.000 C 
ENDBRANCH  25  26
ENDBRANCH  20  25
ENDBRANCH  19  20
ENDBRANCH  18  19
ENDBRANCH   3  18
TORSDOF 7
ENDMDL
MODEL 4
REMARK VINA RESULT:     -10.9      1.815      9.053
REMARK  Name = 11314340
REMARK  7 active torsions:
REMARK  status: ('A' for Active; 'I' for Inactive)
REMARK    1  A    between atoms: C_2  and  C_10
REMARK    2  A    between atoms: C_3  and  O_18
REMARK    3  A    between atoms: O_18  and  C_19
REMARK    4  A    between atoms: C_19  and  C_20
REMARK    5  A    between atoms: C_20  and  N_21
REMARK    6  A    between atoms: C_20  and  C_25
REMARK    7  A    between atoms: C_25  and  C_26
REMARK                            x       y       z     vdW  Elec       q    Type
REMARK                         _______ _______ _______ _____ _____    ______ ____
ROOT
ATOM      1  N   UNL     1      34.242 -16.373 -25.248  0.00  0.00    -0.239 NA
ATOM      2  C   UNL     1      35.118 -16.943 -23.075  0.00  0.00    +0.022 C 
ATOM      3  C   UNL     1      34.690 -14.646 -23.617  0.00  0.00    +0.158 C 
ATOM      4  C   UNL     1      35.126 -15.605 -22.710  0.00  0.00    +0.040 C 
ATOM      5  C   UNL     1      34.673 -17.277 -24.340  0.00  0.00    +0.099 C 
ATOM      6  C   UNL     1      34.263 -15.078 -24.862  0.00  0.00    +0.136 C 
ENDROOT
BRANCH   2  10
ATOM      7  N   UNL     1      35.510 -21.317 -19.287  0.00  0.00    -0.280 N 
ATOM      8  N   UNL     1      36.758 -20.877 -19.539  0.00  0.00    -0.173 NA
ATOM      9  C   UNL     1      35.186 -19.713 -20.695  0.00  0.00    +0.032 A 
ATOM     10  C   UNL     1      35.568 -17.968 -22.151  0.00  0.00    +0.002 C 
ATOM     11  C   UNL     1      36.594 -19.871 -20.417  0.00  0.00    +0.102 A 
ATOM     12  C   UNL     1      34.596 -18.788 -21.546  0.00  0.00    +0.003 C 
ATOM     13  C   UNL     1      34.524 -20.652 -19.956  0.00  0.00    +0.053 A 
ATOM     14  C   UNL     1      36.974 -18.085 -21.910  0.00  0.00    +0.002 C 
ATOM     15  C   UNL     1      37.543 -19.038 -21.036  0.00  0.00    +0.021 C 
ATOM     16  C   UNL     1      33.102 -21.002 -19.801  0.00  0.00    +0.051 C 
ATOM     17  H   UNL     1      35.324 -22.061 -18.669  0.00  0.00    +0.189 HD
ENDBRANCH   2  10
BRANCH   3  18
ATOM     18  O   UNL     1      34.683 -13.329 -23.292  0.00  0.00    -0.476 OA
BRANCH  18  19
ATOM     19  C   UNL     1      34.139 -12.421 -24.250  0.00  0.00    +0.184 C 
BRANCH  19  20
ATOM     20  C   UNL     1      34.357 -10.973 -23.794  0.00  0.00    -0.017 C 
BRANCH  20  21
ATOM     21  N   UNL     1      35.243 -10.314 -24.758  0.00  0.00    +0.384 N 
ATOM     22  H   UNL     1      34.843 -10.384 -25.693  0.00  0.00    -0.089 HD
ATOM     23  H   UNL     1      36.158 -10.767 -24.745  0.00  0.00    -0.089 HD
ATOM     24  H   UNL     1      35.349  -9.330 -24.506  0.00  0.00    -0.089 HD
ENDBRANCH  20  21
BRANCH  20  25
ATOM     25  C   UNL     1      33.049 -10.159 -23.706  0.00  0.00    +0.008 C 
BRANCH  25  26
ATOM     26  C   UNL     1      32.541  -9.935 -22.303  0.00  0.00    -0.024 C 
ATOM     27  C   UNL     1      32.646  -8.674 -21.735  0.00  0.00    -0.004 C 
ATOM     28  C   UNL     1      31.978 -10.993 -21.606  0.00  0.00    -0.004 C 
ATOM     29  C   UNL     1      32.176  -8.466 -20.439  0.00  0.00    -0.000 C 
ATOM     30  C   UNL     1      31.508 -10.784 -20.309  0.00  0.00    -0.000 C 
ATOM     31  C   UNL     1      31.607  -9.522 -19.725  0.00  0.00    -0.000 C 
ENDBRANCH  25  26
ENDBRANCH  20  25
ENDBRANCH  19  20
ENDBRANCH  18  19
ENDBRANCH   3  18
TORSDOF 7
ENDMDL
MODEL 5
REMARK VINA RESULT:     -10.9      3.295     10.389
REMARK  Name = 11314340
REMARK  7 active torsions:
REMARK  status: ('A' for Active; 'I' for Inactive)
REMARK    1  A    between atoms: C_2  and  C_10
REMARK    2  A    between atoms: C_3  and  O_18
REMARK    3  A    between atoms: O_18  and  C_19
REMARK    4  A    between atoms: C_19  and  C_20
REMARK    5  A    between atoms: C_20  and  N_21
REMARK    6  A    between atoms: C_20  and  C_25
REMARK    7  A    between atoms: C_25  and  C_26
REMARK                            x       y       z     vdW  Elec       q    Type
REMARK                         _______ _______ _______ _____ _____    ______ ____
ROOT
ATOM      1  N   UNL     1      31.932 -11.590 -20.173  0.00  0.00    -0.239 NA
ATOM      2  C   UNL     1      32.971 -12.359 -22.209  0.00  0.00    +0.022 C 
ATOM      3  C   UNL     1      32.342 -10.055 -21.994  0.00  0.00    +0.158 C 
ATOM      4  C   UNL     1      32.899 -11.083 -22.747  0.00  0.00    +0.040 C 
ATOM      5  C   UNL     1      32.481 -12.564 -20.934  0.00  0.00    +0.099 C 
ATOM      6  C   UNL     1      31.876 -10.357 -20.726  0.00  0.00    +0.136 C 
ENDROOT
BRANCH   2  10
ATOM      7  N   UNL     1      35.676 -17.186 -23.945  0.00  0.00    -0.280 N 
ATOM      8  N   UNL     1      35.192 -16.569 -25.040  0.00  0.00    -0.173 NA
ATOM      9  C   UNL     1      34.713 -15.434 -23.130  0.00  0.00    +0.032 A 
ATOM     10  C   UNL     1      33.546 -13.453 -22.969  0.00  0.00    +0.002 C 
ATOM     11  C   UNL     1      34.582 -15.466 -24.567  0.00  0.00    +0.102 A 
ATOM     12  C   UNL     1      34.225 -14.465 -22.263  0.00  0.00    +0.003 C 
ATOM     13  C   UNL     1      35.417 -16.547 -22.767  0.00  0.00    +0.053 A 
ATOM     14  C   UNL     1      33.389 -13.440 -24.391  0.00  0.00    +0.002 C 
ATOM     15  C   UNL     1      33.899 -14.442 -25.247  0.00  0.00    +0.021 C 
ATOM     16  C   UNL     1      35.871 -17.082 -21.473  0.00  0.00    +0.051 C 
ATOM     17  H   UNL     1      36.177 -18.033 -23.991  0.00  0.00    +0.189 HD
ENDBRANCH   2  10
BRANCH   3  18
ATOM     18  O   UNL     1      32.257  -8.794 -22.489  0.00  0.00    -0.476 OA
BRANCH  18  19
ATOM     19  C   UNL     1      31.859  -7.761 -21.587  0.00  0.00    +0.184 C 
BRANCH  19  20
ATOM     20  C   UNL     1      33.039  -6.828 -21.293  0.00  0.00    -0.017 C 
BRANCH  20  21
ATOM     21  N   UNL     1      33.510  -7.093 -19.930  0.00  0.00    +0.384 N 
ATOM     22  H   UNL     1      33.291  -6.297 -19.333  0.00  0.00    -0.089 HD
ATOM     23  H   UNL     1      34.520  -7.243 -19.942  0.00  0.00    -0.089 HD
ATOM     24  H   UNL     1      33.048  -7.928 -19.567  0.00  0.00    -0.089 HD
ENDBRANCH  20  21
BRANCH  20  25
ATOM     25  C   UNL     1      34.226  -7.026 -22.260  0.00  0.00    +0.008 C 
BRANCH  25  26
ATOM     26  C   UNL     1      34.244  -6.078 -23.435  0.00  0.00    -0.024 C 
ATOM     27  C   UNL     1      35.204  -6.240 -24.423  0.00  0.00    -0.004 C 
ATOM     28  C   UNL     1      33.303  -5.063 -23.505  0.00  0.00    -0.004 C 
ATOM     29  C   UNL     1      35.221  -5.365 -25.509  0.00  0.00    -0.000 C 
ATOM     30  C   UNL     1      33.321  -4.188 -24.592  0.00  0.00    -0.000 C 
ATOM     31  C   UNL     1      34.280  -4.338 -25.593  0.00  0.00    -0.000 C 
ENDBRANCH  25  26
ENDBRANCH  20  25
ENDBRANCH  19  20
ENDBRANCH  18  19
ENDBRANCH   3  18
TORSDOF 7
ENDMDL
MODEL 6
REMARK VINA RESULT:     -10.9      3.531      7.091
REMARK  Name = 11314340
REMARK  7 active torsions:
REMARK  status: ('A' for Active; 'I' for Inactive)
REMARK    1  A    between atoms: C_2  and  C_10
REMARK    2  A    between atoms: C_3  and  O_18
REMARK    3  A    between atoms: O_18  and  C_19
REMARK    4  A    between atoms: C_19  and  C_20
REMARK    5  A    between atoms: C_20  and  N_21
REMARK    6  A    between atoms: C_20  and  C_25
REMARK    7  A    between atoms: C_25  and  C_26
REMARK                            x       y       z     vdW  Elec       q    Type
REMARK                         _______ _______ _______ _____ _____    ______ ____
ROOT
ATOM      1  N   UNL     1      36.924 -20.590 -19.457  0.00  0.00    -0.239 NA
ATOM      2  C   UNL     1      35.406 -19.542 -21.010  0.00  0.00    +0.022 C 
ATOM      3  C   UNL     1      34.565 -21.118 -19.409  0.00  0.00    +0.158 C 
ATOM      4  C   UNL     1      34.339 -20.240 -20.464  0.00  0.00    +0.040 C 
ATOM      5  C   UNL     1      36.666 -19.746 -20.481  0.00  0.00    +0.099 C 
ATOM      6  C   UNL     1      35.863 -21.256 -18.947  0.00  0.00    +0.136 C 
ENDROOT
BRANCH   2  10
ATOM      7  N   UNL     1      34.681 -14.872 -24.372  0.00  0.00    -0.280 N 
ATOM      8  N   UNL     1      34.637 -15.961 -25.164  0.00  0.00    -0.173 NA
ATOM      9  C   UNL     1      34.964 -16.498 -22.980  0.00  0.00    +0.032 A 
ATOM     10  C   UNL     1      35.203 -18.620 -22.112  0.00  0.00    +0.002 C 
ATOM     11  C   UNL     1      34.810 -16.999 -24.326  0.00  0.00    +0.102 A 
ATOM     12  C   UNL     1      35.162 -17.242 -21.824  0.00  0.00    +0.003 C 
ATOM     13  C   UNL     1      34.876 -15.137 -23.047  0.00  0.00    +0.053 A 
ATOM     14  C   UNL     1      35.057 -19.165 -23.427  0.00  0.00    +0.002 C 
ATOM     15  C   UNL     1      34.855 -18.381 -24.584  0.00  0.00    +0.021 C 
ATOM     16  C   UNL     1      34.952 -14.065 -22.040  0.00  0.00    +0.051 C 
ATOM     17  H   UNL     1      34.582 -13.957 -24.721  0.00  0.00    +0.189 HD
ENDBRANCH   2  10
BRANCH   3  18
ATOM     18  O   UNL     1      33.545 -21.816 -18.851  0.00  0.00    -0.476 OA
BRANCH  18  19
ATOM     19  C   UNL     1      33.833 -23.132 -18.377  0.00  0.00    +0.184 C 
BRANCH  19  20
ATOM     20  C   UNL     1      33.403 -23.276 -16.913  0.00  0.00    -0.017 C 
BRANCH  20  21
ATOM     21  N   UNL     1      34.470 -22.740 -16.063  0.00  0.00    +0.384 N 
ATOM     22  H   UNL     1      35.364 -23.140 -16.345  0.00  0.00    -0.089 HD
ATOM     23  H   UNL     1      34.282 -22.981 -15.089  0.00  0.00    -0.089 HD
ATOM     24  H   UNL     1      34.505 -21.724 -16.161  0.00  0.00    -0.089 HD
ENDBRANCH  20  21
BRANCH  20  25
ATOM     25  C   UNL     1      32.099 -22.519 -16.585  0.00  0.00    +0.008 C 
BRANCH  25  26
ATOM     26  C   UNL     1      31.055 -23.344 -15.872  0.00  0.00    -0.024 C 
ATOM     27  C   UNL     1      29.711 -23.069 -16.082  0.00  0.00    -0.004 C 
ATOM     28  C   UNL     1      31.456 -24.361 -15.020  0.00  0.00    -0.004 C 
ATOM     29  C   UNL     1      28.747 -23.831 -15.424  0.00  0.00    -0.000 C 
ATOM     30  C   UNL     1      30.490 -25.123 -14.362  0.00  0.00    -0.000 C 
ATOM     31  C   UNL     1      29.136 -24.858 -14.563  0.00  0.00    -0.000 C 
ENDBRANCH  25  26
ENDBRANCH  20  25
ENDBRANCH  19  20
ENDBRANCH  18  19
ENDBRANCH   3  18
TORSDOF 7
ENDMDL
MODEL 7
REMARK VINA RESULT:     -10.7      5.908      9.221
REMARK  Name = 11314340
REMARK  7 active torsions:
REMARK  status: ('A' for Active; 'I' for Inactive)
REMARK    1  A    between atoms: C_2  and  C_10
REMARK    2  A    between atoms: C_3  and  O_18
REMARK    3  A    between atoms: O_18  and  C_19
REMARK    4  A    between atoms: C_19  and  C_20
REMARK    5  A    between atoms: C_20  and  N_21
REMARK    6  A    between atoms: C_20  and  C_25
REMARK    7  A    between atoms: C_25  and  C_26
REMARK                            x       y       z     vdW  Elec       q    Type
REMARK                         _______ _______ _______ _____ _____    ______ ____
ROOT
ATOM      1  N   UNL     1      32.325 -22.057 -18.258  0.00  0.00    -0.239 NA
ATOM      2  C   UNL     1      34.493 -21.316 -19.008  0.00  0.00    +0.022 C 
ATOM      3  C   UNL     1      34.336 -22.903 -17.217  0.00  0.00    +0.158 C 
ATOM      4  C   UNL     1      35.113 -22.124 -18.067  0.00  0.00    +0.040 C 
ATOM      5  C   UNL     1      33.112 -21.314 -19.067  0.00  0.00    +0.099 C 
ATOM      6  C   UNL     1      32.959 -22.834 -17.351  0.00  0.00    +0.136 C 
ENDROOT
BRANCH   2  10
ATOM      7  N   UNL     1      36.409 -18.016 -23.376  0.00  0.00    -0.280 N 
ATOM      8  N   UNL     1      37.418 -18.158 -22.493  0.00  0.00    -0.173 NA
ATOM      9  C   UNL     1      35.538 -19.252 -21.835  0.00  0.00    +0.032 A 
ATOM     10  C   UNL     1      35.276 -20.490 -19.908  0.00  0.00    +0.002 C 
ATOM     11  C   UNL     1      36.907 -18.928 -21.515  0.00  0.00    +0.102 A 
ATOM     12  C   UNL     1      34.660 -20.025 -21.086  0.00  0.00    +0.003 C 
ATOM     13  C   UNL     1      35.253 -18.654 -23.029  0.00  0.00    +0.053 A 
ATOM     14  C   UNL     1      36.629 -20.196 -19.546  0.00  0.00    +0.002 C 
ATOM     15  C   UNL     1      37.498 -19.406 -20.331  0.00  0.00    +0.021 C 
ATOM     16  C   UNL     1      34.050 -18.603 -23.877  0.00  0.00    +0.051 C 
ATOM     17  H   UNL     1      36.499 -17.491 -24.204  0.00  0.00    +0.189 HD
ENDBRANCH   2  10
BRANCH   3  18
ATOM     18  O   UNL     1      34.910 -23.706 -16.286  0.00  0.00    -0.476 OA
BRANCH  18  19
ATOM     19  C   UNL     1      34.918 -23.240 -14.936  0.00  0.00    +0.184 C 
BRANCH  19  20
ATOM     20  C   UNL     1      34.096 -24.179 -14.045  0.00  0.00    -0.017 C 
BRANCH  20  21
ATOM     21  N   UNL     1      34.974 -24.710 -12.998  0.00  0.00    +0.384 N 
ATOM     22  H   UNL     1      35.933 -24.414 -13.176  0.00  0.00    -0.089 HD
ATOM     23  H   UNL     1      34.926 -25.730 -13.000  0.00  0.00    -0.089 HD
ATOM     24  H   UNL     1      34.671 -24.358 -12.089  0.00  0.00    -0.089 HD
ENDBRANCH  20  21
BRANCH  20  25
ATOM     25  C   UNL     1      32.901 -23.478 -13.363  0.00  0.00    +0.008 C 
BRANCH  25  26
ATOM     26  C   UNL     1      31.564 -23.741 -14.011  0.00  0.00    -0.024 C 
ATOM     27  C   UNL     1      31.096 -25.044 -14.100  0.00  0.00    -0.004 C 
ATOM     28  C   UNL     1      30.826 -22.677 -14.506  0.00  0.00    -0.004 C 
ATOM     29  C   UNL     1      29.860 -25.288 -14.698  0.00  0.00    -0.000 C 
ATOM     30  C   UNL     1      29.590 -22.922 -15.104  0.00  0.00    -0.000 C 
ATOM     31  C   UNL     1      29.107 -24.226 -15.201  0.00  0.00    -0.000 C 
ENDBRANCH  25  26
ENDBRANCH  20  25
ENDBRANCH  19  20
ENDBRANCH  18  19
ENDBRANCH   3  18
TORSDOF 7
ENDMDL
MODEL 8
REMARK VINA RESULT:     -10.7      3.672      7.033
REMARK  Name = 11314340
REMARK  7 active torsions:
REMARK  status: ('A' for Active; 'I' for Inactive)
REMARK    1  A    between atoms: C_2  and  C_10
REMARK    2  A    between atoms: C_3  and  O_18
REMARK    3  A    between atoms: O_18  and  C_19
REMARK    4  A    between atoms: C_19  and  C_20
REMARK    5  A    between atoms: C_20  and  N_21
REMARK    6  A    between atoms: C_20  and  C_25
REMARK    7  A    between atoms: C_25  and  C_26
REMARK                            x       y       z     vdW  Elec       q    Type
REMARK                         _______ _______ _______ _____ _____    ______ ____
ROOT
ATOM      1  N   UNL     1      36.559 -21.026 -19.323  0.00  0.00    -0.239 NA
ATOM      2  C   UNL     1      35.214 -19.803 -20.907  0.00  0.00    +0.022 C 
ATOM      3  C   UNL     1      34.157 -21.298 -19.358  0.00  0.00    +0.158 C 
ATOM      4  C   UNL     1      34.062 -20.389 -20.407  0.00  0.00    +0.040 C 
ATOM      5  C   UNL     1      36.427 -20.147 -20.342  0.00  0.00    +0.099 C 
ATOM      6  C   UNL     1      35.417 -21.581 -18.857  0.00  0.00    +0.136 C 
ENDROOT
BRANCH   2  10
ATOM      7  N   UNL     1      34.923 -15.043 -24.208  0.00  0.00    -0.280 N 
ATOM      8  N   UNL     1      34.962 -16.112 -25.028  0.00  0.00    -0.173 NA
ATOM      9  C   UNL     1      35.029 -16.706 -22.836  0.00  0.00    +0.032 A 
ATOM     10  C   UNL     1      35.148 -18.851 -22.001  0.00  0.00    +0.002 C 
ATOM     11  C   UNL     1      35.029 -17.172 -24.202  0.00  0.00    +0.102 A 
ATOM     12  C   UNL     1      35.086 -17.481 -21.684  0.00  0.00    +0.003 C 
ATOM     13  C   UNL     1      34.960 -15.343 -22.877  0.00  0.00    +0.053 A 
ATOM     14  C   UNL     1      35.152 -19.363 -23.338  0.00  0.00    +0.002 C 
ATOM     15  C   UNL     1      35.092 -18.547 -24.490  0.00  0.00    +0.021 C 
ATOM     16  C   UNL     1      34.927 -14.298 -21.841  0.00  0.00    +0.051 C 
ATOM     17  H   UNL     1      34.872 -14.118 -24.543  0.00  0.00    +0.189 HD
ENDBRANCH   2  10
BRANCH   3  18
ATOM     18  O   UNL     1      33.050 -21.889 -18.844  0.00  0.00    -0.476 OA
BRANCH  18  19
ATOM     19  C   UNL     1      33.248 -22.949 -17.907  0.00  0.00    +0.184 C 
BRANCH  19  20
ATOM     20  C   UNL     1      32.668 -22.565 -16.540  0.00  0.00    -0.017 C 
BRANCH  20  21
ATOM     21  N   UNL     1      31.206 -22.611 -16.629  0.00  0.00    +0.384 N 
ATOM     22  H   UNL     1      30.931 -23.001 -17.530  0.00  0.00    -0.089 HD
ATOM     23  H   UNL     1      30.830 -21.666 -16.539  0.00  0.00    -0.089 HD
ATOM     24  H   UNL     1      30.838 -23.196 -15.878  0.00  0.00    -0.089 HD
ENDBRANCH  20  21
BRANCH  20  25
ATOM     25  C   UNL     1      33.112 -23.511 -15.404  0.00  0.00    +0.008 C 
BRANCH  25  26
ATOM     26  C   UNL     1      34.607 -23.608 -15.214  0.00  0.00    -0.024 C 
ATOM     27  C   UNL     1      35.378 -22.459 -15.297  0.00  0.00    -0.004 C 
ATOM     28  C   UNL     1      35.181 -24.844 -14.960  0.00  0.00    -0.004 C 
ATOM     29  C   UNL     1      36.759 -22.548 -15.121  0.00  0.00    -0.000 C 
ATOM     30  C   UNL     1      36.562 -24.932 -14.785  0.00  0.00    -0.000 C 
ATOM     31  C   UNL     1      37.351 -23.785 -14.865  0.00  0.00    -0.000 C 
ENDBRANCH  25  26
ENDBRANCH  20  25
ENDBRANCH  19  20
ENDBRANCH  18  19
ENDBRANCH   3  18
TORSDOF 7
ENDMDL
MODEL 9
REMARK VINA RESULT:     -10.6      4.254      8.195
REMARK  Name = 11314340
REMARK  7 active torsions:
REMARK  status: ('A' for Active; 'I' for Inactive)
REMARK    1  A    between atoms: C_2  and  C_10
REMARK    2  A    between atoms: C_3  and  O_18
REMARK    3  A    between atoms: O_18  and  C_19
REMARK    4  A    between atoms: C_19  and  C_20
REMARK    5  A    between atoms: C_20  and  N_21
REMARK    6  A    between atoms: C_20  and  C_25
REMARK    7  A    between atoms: C_25  and  C_26
REMARK                            x       y       z     vdW  Elec       q    Type
REMARK                         _______ _______ _______ _____ _____    ______ ____
ROOT
ATOM      1  N   UNL     1      35.719  -7.971 -23.864  0.00  0.00    -0.239 NA
ATOM      2  C   UNL     1      34.288  -9.889 -24.160  0.00  0.00    +0.022 C 
ATOM      3  C   UNL     1      33.361  -7.830 -23.349  0.00  0.00    +0.158 C 
ATOM      4  C   UNL     1      33.193  -9.160 -23.719  0.00  0.00    +0.040 C 
ATOM      5  C   UNL     1      35.517  -9.261 -24.215  0.00  0.00    +0.099 C 
ATOM      6  C   UNL     1      34.632  -7.288 -23.438  0.00  0.00    +0.136 C 
ENDROOT
BRANCH   2  10
ATOM      7  N   UNL     1      34.123 -15.682 -24.370  0.00  0.00    -0.280 N 
ATOM      8  N   UNL     1      33.764 -15.215 -25.582  0.00  0.00    -0.173 NA
ATOM      9  C   UNL     1      34.235 -13.541 -24.120  0.00  0.00    +0.032 A 
ATOM     10  C   UNL     1      34.145 -11.279 -24.552  0.00  0.00    +0.002 C 
ATOM     11  C   UNL     1      33.824 -13.877 -25.462  0.00  0.00    +0.102 A 
ATOM     12  C   UNL     1      34.419 -12.271 -23.590  0.00  0.00    +0.003 C 
ATOM     13  C   UNL     1      34.417 -14.718 -23.451  0.00  0.00    +0.053 A 
ATOM     14  C   UNL     1      33.734 -11.560 -25.893  0.00  0.00    +0.002 C 
ATOM     15  C   UNL     1      33.557 -12.866 -26.403  0.00  0.00    +0.021 C 
ATOM     16  C   UNL     1      34.826 -15.049 -22.076  0.00  0.00    +0.051 C 
ATOM     17  H   UNL     1      34.167 -16.644 -24.164  0.00  0.00    +0.189 HD
ENDBRANCH   2  10
BRANCH   3  18
ATOM     18  O   UNL     1      32.312  -7.089 -22.915  0.00  0.00    -0.476 OA
BRANCH  18  19
ATOM     19  C   UNL     1      32.405  -6.525 -21.606  0.00  0.00    +0.184 C 
BRANCH  19  20
ATOM     20  C   UNL     1      32.872  -7.586 -20.603  0.00  0.00    -0.017 C 
BRANCH  20  21
ATOM     21  N   UNL     1      33.539  -6.906 -19.488  0.00  0.00    +0.384 N 
ATOM     22  H   UNL     1      33.749  -5.944 -19.752  0.00  0.00    -0.089 HD
ATOM     23  H   UNL     1      34.407  -7.394 -19.263  0.00  0.00    -0.089 HD
ATOM     24  H   UNL     1      32.927  -6.910 -18.672  0.00  0.00    -0.089 HD
ENDBRANCH  20  21
BRANCH  20  25
ATOM     25  C   UNL     1      31.715  -8.431 -20.029  0.00  0.00    +0.008 C 
BRANCH  25  26
ATOM     26  C   UNL     1      31.806  -9.908 -20.328  0.00  0.00    -0.024 C 
ATOM     27  C   UNL     1      32.402 -10.753 -19.404  0.00  0.00    -0.004 C 
ATOM     28  C   UNL     1      31.293 -10.393 -21.521  0.00  0.00    -0.004 C 
ATOM     29  C   UNL     1      32.486 -12.117 -19.680  0.00  0.00    -0.000 C 
ATOM     30  C   UNL     1      31.378 -11.758 -21.796  0.00  0.00    -0.000 C 
ATOM     31  C   UNL     1      31.974 -12.620 -20.877  0.00  0.00    -0.000 C 
ENDBRANCH  25  26
ENDBRANCH  20  25
ENDBRANCH  19  20
ENDBRANCH  18  19
ENDBRANCH   3  18
TORSDOF 7
ENDMDL
