MODEL 1
REMARK VINA RESULT:     -12.0      0.000      0.000
REMARK  Name = 216239
REMARK  6 active torsions:
REMARK  status: ('A' for Active; 'I' for Inactive)
REMARK    1  A    between atoms: C_1  and  N_9
REMARK    2  A    between atoms: C_2  and  O_24
REMARK    3  A    between atoms: N_8  and  C_14
REMARK    4  A    between atoms: C_15  and  C_23
REMARK    5  A    between atoms: O_24  and  C_26
REMARK    6  A    between atoms: C_28  and  C_33
REMARK                            x       y       z     vdW  Elec       q    Type
REMARK                         _______ _______ _______ _____ _____    ______ ____
ROOT
ATOM      1  C   UNL     1      34.940 -15.756 -23.521  0.00  0.00    +0.052 C 
ATOM      2  C   UNL     1      35.467 -18.276 -22.499  0.00  0.00    +0.145 C 
ATOM      3  C   UNL     1      34.830 -16.859 -24.350  0.00  0.00    +0.018 C 
ATOM      4  C   UNL     1      35.307 -15.885 -22.192  0.00  0.00    +0.018 C 
ATOM      5  C   UNL     1      35.096 -18.129 -23.835  0.00  0.00    +0.039 C 
ATOM      6  C   UNL     1      35.574 -17.154 -21.677  0.00  0.00    +0.039 C 
ENDROOT
BRANCH   1   9
ATOM      7  O   UNL     1      34.855 -13.102 -22.154  0.00  0.00    -0.252 OA
ATOM      8  N   UNL     1      34.333 -12.193 -24.249  0.00  0.00    -0.268 N 
ATOM      9  N   UNL     1      34.670 -14.469 -24.043  0.00  0.00    -0.268 N 
ATOM     10  C   UNL     1      34.643 -13.245 -23.354  0.00  0.00    +0.308 C 
ATOM     11  H   UNL     1      34.186 -12.458 -25.186  0.00  0.00    +0.156 HD
ATOM     12  H   UNL     1      34.478 -14.425 -25.007  0.00  0.00    +0.156 HD
BRANCH   8  14
ATOM     13 CL   UNL     1      33.835  -6.411 -23.130  0.00  0.00    -0.082 Cl
ATOM     14  C   UNL     1      34.205 -10.830 -23.981  0.00  0.00    +0.052 C 
ATOM     15  C   UNL     1      32.943  -8.985 -23.065  0.00  0.00    +0.083 C 
ATOM     16  C   UNL     1      33.069 -10.348 -23.334  0.00  0.00    +0.019 C 
ATOM     17  C   UNL     1      35.218  -9.948 -24.362  0.00  0.00    +0.016 C 
ATOM     18  C   UNL     1      33.954  -8.103 -23.446  0.00  0.00    +0.062 C 
ATOM     19  C   UNL     1      35.092  -8.585 -24.094  0.00  0.00    +0.013 C 
BRANCH  15  23
ATOM     20  F   UNL     1      31.963  -7.886 -21.181  0.00  0.00    -0.166 F 
ATOM     21  F   UNL     1      30.983  -7.614 -23.096  0.00  0.00    -0.166 F 
ATOM     22  F   UNL     1      30.852  -9.528 -22.072  0.00  0.00    -0.166 F 
ATOM     23  C   UNL     1      31.710  -8.509 -22.367  0.00  0.00    +0.419 C 
ENDBRANCH  15  23
ENDBRANCH   8  14
ENDBRANCH   1   9
BRANCH   2  24
ATOM     24  O   UNL     1      35.728 -19.514 -21.998  0.00  0.00    -0.453 OA
BRANCH  24  26
ATOM     25  N   UNL     1      33.096 -21.043 -19.168  0.00  0.00    -0.239 NA
ATOM     26  C   UNL     1      34.852 -20.024 -21.055  0.00  0.00    +0.149 C 
ATOM     27  C   UNL     1      35.344 -20.792 -20.022  0.00  0.00    +0.061 C 
ATOM     28  C   UNL     1      34.427 -21.277 -19.104  0.00  0.00    +0.137 C 
ATOM     29  C   UNL     1      33.505 -19.752 -21.172  0.00  0.00    +0.058 C 
ATOM     30  C   UNL     1      32.669 -20.285 -20.203  0.00  0.00    +0.102 C 
BRANCH  28  33
ATOM     31  O   UNL     1      36.080 -22.188 -17.713  0.00  0.00    -0.268 OA
ATOM     32  N   UNL     1      33.878 -22.735 -17.235  0.00  0.00    -0.298 N 
ATOM     33  C   UNL     1      34.869 -22.093 -17.987  0.00  0.00    +0.264 C 
ATOM     34  C   UNL     1      34.158 -23.561 -16.082  0.00  0.00    +0.111 C 
ATOM     35  H   UNL     1      32.938 -22.618 -17.506  0.00  0.00    +0.150 HD
ENDBRANCH  28  33
ENDBRANCH  24  26
ENDBRANCH   2  24
TORSDOF 6
ENDMDL
MODEL 2
REMARK VINA RESULT:     -11.7      4.046      6.858
REMARK  Name = 216239
REMARK  6 active torsions:
REMARK  status: ('A' for Active; 'I' for Inactive)
REMARK    1  A    between atoms: C_1  and  N_9
REMARK    2  A    between atoms: C_2  and  O_24
REMARK    3  A    between atoms: N_8  and  C_14
REMARK    4  A    between atoms: C_15  and  C_23
REMARK    5  A    between atoms: O_24  and  C_26
REMARK    6  A    between atoms: C_28  and  C_33
REMARK                            x       y       z     vdW  Elec       q    Type
REMARK                         _______ _______ _______ _____ _____    ______ ____
ROOT
ATOM      1  C   UNL     1      35.674 -21.137 -19.082  0.00  0.00    +0.052 C 
ATOM      2  C   UNL     1      35.013 -22.957 -17.101  0.00  0.00    +0.145 C 
ATOM      3  C   UNL     1      34.512 -21.880 -19.205  0.00  0.00    +0.018 C 
ATOM      4  C   UNL     1      36.513 -21.285 -17.990  0.00  0.00    +0.018 C 
ATOM      5  C   UNL     1      34.179 -22.796 -18.207  0.00  0.00    +0.039 C 
ATOM      6  C   UNL     1      36.181 -22.202 -16.993  0.00  0.00    +0.039 C 
ENDROOT
BRANCH   1   9
ATOM      7  O   UNL     1      33.938 -19.275 -20.643  0.00  0.00    -0.252 OA
ATOM      8  N   UNL     1      35.894 -18.580 -21.729  0.00  0.00    -0.268 N 
ATOM      9  N   UNL     1      36.011 -20.208 -20.094  0.00  0.00    -0.268 N 
ATOM     10  C   UNL     1      35.152 -19.350 -20.800  0.00  0.00    +0.308 C 
ATOM     11  H   UNL     1      36.864 -18.749 -21.746  0.00  0.00    +0.156 HD
ATOM     12  H   UNL     1      36.964 -20.156 -20.332  0.00  0.00    +0.156 HD
BRANCH   8  14
ATOM     13 CL   UNL     1      33.951 -14.516 -25.555  0.00  0.00    -0.082 Cl
ATOM     14  C   UNL     1      35.434 -17.614 -22.624  0.00  0.00    +0.052 C 
ATOM     15  C   UNL     1      34.728 -15.349 -23.079  0.00  0.00    +0.083 C 
ATOM     16  C   UNL     1      35.186 -16.314 -22.183  0.00  0.00    +0.019 C 
ATOM     17  C   UNL     1      35.223 -17.949 -23.962  0.00  0.00    +0.016 C 
ATOM     18  C   UNL     1      34.516 -15.683 -24.417  0.00  0.00    +0.062 C 
ATOM     19  C   UNL     1      34.764 -16.983 -24.858  0.00  0.00    +0.013 C 
BRANCH  15  23
ATOM     20  F   UNL     1      35.069 -12.993 -23.317  0.00  0.00    -0.166 F 
ATOM     21  F   UNL     1      33.153 -13.635 -22.526  0.00  0.00    -0.166 F 
ATOM     22  F   UNL     1      34.941 -13.789 -21.297  0.00  0.00    -0.166 F 
ATOM     23  C   UNL     1      34.476 -13.967 -22.567  0.00  0.00    +0.419 C 
ENDBRANCH  15  23
ENDBRANCH   8  14
ENDBRANCH   1   9
BRANCH   2  24
ATOM     24  O   UNL     1      34.689 -23.853 -16.129  0.00  0.00    -0.453 OA
BRANCH  24  26
ATOM     25  N   UNL     1      31.283 -23.104 -13.868  0.00  0.00    -0.239 NA
ATOM     26  C   UNL     1      33.554 -23.602 -15.376  0.00  0.00    +0.149 C 
ATOM     27  C   UNL     1      32.390 -23.232 -16.014  0.00  0.00    +0.061 C 
ATOM     28  C   UNL     1      31.282 -22.994 -15.216  0.00  0.00    +0.137 C 
ATOM     29  C   UNL     1      33.614 -23.731 -14.004  0.00  0.00    +0.058 C 
ATOM     30  C   UNL     1      32.452 -23.470 -13.296  0.00  0.00    +0.102 C 
BRANCH  28  33
ATOM     31  O   UNL     1      29.972 -22.215 -16.997  0.00  0.00    -0.268 OA
ATOM     32  N   UNL     1      28.876 -22.699 -15.012  0.00  0.00    -0.298 N 
ATOM     33  C   UNL     1      30.018 -22.600 -15.815  0.00  0.00    +0.264 C 
ATOM     34  C   UNL     1      27.546 -22.366 -15.471  0.00  0.00    +0.111 C 
ATOM     35  H   UNL     1      28.983 -23.011 -14.084  0.00  0.00    +0.150 HD
ENDBRANCH  28  33
ENDBRANCH  24  26
ENDBRANCH   2  24
TORSDOF 6
ENDMDL
MODEL 3
REMARK VINA RESULT:     -11.6      1.998      3.023
REMARK  Name = 216239
REMARK  6 active torsions:
REMARK  status: ('A' for Active; 'I' for Inactive)
REMARK    1  A    between atoms: C_1  and  N_9
REMARK    2  A    between atoms: C_2  and  O_24
REMARK    3  A    between atoms: N_8  and  C_14
REMARK    4  A    between atoms: C_15  and  C_23
REMARK    5  A    between atoms: O_24  and  C_26
REMARK    6  A    between atoms: C_28  and  C_33
REMARK                            x       y       z     vdW  Elec       q    Type
REMARK                         _______ _______ _______ _____ _____    ______ ____
ROOT
ATOM      1  C   UNL     1      34.007 -13.654 -23.187  0.00  0.00    +0.052 C 
ATOM      2  C   UNL     1      34.911 -16.246 -23.557  0.00  0.00    +0.145 C 
ATOM      3  C   UNL     1      34.667 -14.295 -22.153  0.00  0.00    +0.018 C 
ATOM      4  C   UNL     1      33.789 -14.280 -24.403  0.00  0.00    +0.018 C 
ATOM      5  C   UNL     1      35.123 -15.600 -22.339  0.00  0.00    +0.039 C 
ATOM      6  C   UNL     1      34.243 -15.586 -24.589  0.00  0.00    +0.039 C 
ENDROOT
BRANCH   1   9
ATOM      7  O   UNL     1      35.008 -11.083 -24.330  0.00  0.00    -0.252 OA
ATOM      8  N   UNL     1      33.302 -10.036 -23.113  0.00  0.00    -0.268 N 
ATOM      9  N   UNL     1      33.545 -12.330 -22.997  0.00  0.00    -0.268 N 
ATOM     10  C   UNL     1      34.054 -11.149 -23.562  0.00  0.00    +0.308 C 
ATOM     11  H   UNL     1      32.562 -10.241 -22.496  0.00  0.00    +0.156 HD
ATOM     12  H   UNL     1      32.774 -12.223 -22.397  0.00  0.00    +0.156 HD
BRANCH   8  14
ATOM     13 CL   UNL     1      34.053  -4.330 -24.459  0.00  0.00    -0.082 Cl
ATOM     14  C   UNL     1      33.469  -8.687 -23.428  0.00  0.00    +0.052 C 
ATOM     15  C   UNL     1      32.624  -6.424 -23.457  0.00  0.00    +0.083 C 
ATOM     16  C   UNL     1      32.456  -7.772 -23.143  0.00  0.00    +0.019 C 
ATOM     17  C   UNL     1      34.652  -8.254 -24.028  0.00  0.00    +0.016 C 
ATOM     18  C   UNL     1      33.807  -5.990 -24.057  0.00  0.00    +0.062 C 
ATOM     19  C   UNL     1      34.820  -6.905 -24.342  0.00  0.00    +0.013 C 
BRANCH  15  23
ATOM     20  F   UNL     1      30.495  -6.050 -22.435  0.00  0.00    -0.166 F 
ATOM     21  F   UNL     1      31.914  -4.411 -22.378  0.00  0.00    -0.166 F 
ATOM     22  F   UNL     1      30.943  -4.941 -24.250  0.00  0.00    -0.166 F 
ATOM     23  C   UNL     1      31.516  -5.475 -23.133  0.00  0.00    +0.419 C 
ENDBRANCH  15  23
ENDBRANCH   8  14
ENDBRANCH   1   9
BRANCH   2  24
ATOM     24  O   UNL     1      35.354 -17.520 -23.738  0.00  0.00    -0.453 OA
BRANCH  24  26
ATOM     25  N   UNL     1      36.207 -19.770 -20.350  0.00  0.00    -0.239 NA
ATOM     26  C   UNL     1      35.638 -18.269 -22.609  0.00  0.00    +0.149 C 
ATOM     27  C   UNL     1      34.624 -18.973 -21.995  0.00  0.00    +0.061 C 
ATOM     28  C   UNL     1      34.960 -19.708 -20.869  0.00  0.00    +0.137 C 
ATOM     29  C   UNL     1      36.929 -18.295 -22.124  0.00  0.00    +0.058 C 
ATOM     30  C   UNL     1      37.161 -19.060 -20.992  0.00  0.00    +0.102 C 
BRANCH  28  33
ATOM     31  O   UNL     1      32.740 -20.315 -20.423  0.00  0.00    -0.268 OA
ATOM     32  N   UNL     1      34.395 -21.408 -19.222  0.00  0.00    -0.298 N 
ATOM     33  C   UNL     1      33.946 -20.477 -20.167  0.00  0.00    +0.264 C 
ATOM     34  C   UNL     1      33.511 -22.262 -18.461  0.00  0.00    +0.111 C 
ATOM     35  H   UNL     1      35.364 -21.485 -19.068  0.00  0.00    +0.150 HD
ENDBRANCH  28  33
ENDBRANCH  24  26
ENDBRANCH   2  24
TORSDOF 6
ENDMDL
MODEL 4
REMARK VINA RESULT:     -11.6      4.249      7.523
REMARK  Name = 216239
REMARK  6 active torsions:
REMARK  status: ('A' for Active; 'I' for Inactive)
REMARK    1  A    between atoms: C_1  and  N_9
REMARK    2  A    between atoms: C_2  and  O_24
REMARK    3  A    between atoms: N_8  and  C_14
REMARK    4  A    between atoms: C_15  and  C_23
REMARK    5  A    between atoms: O_24  and  C_26
REMARK    6  A    between atoms: C_28  and  C_33
REMARK                            x       y       z     vdW  Elec       q    Type
REMARK                         _______ _______ _______ _____ _____    ______ ____
ROOT
ATOM      1  C   UNL     1      36.056 -21.178 -18.821  0.00  0.00    +0.052 C 
ATOM      2  C   UNL     1      35.573 -22.804 -16.631  0.00  0.00    +0.145 C 
ATOM      3  C   UNL     1      36.998 -21.249 -17.810  0.00  0.00    +0.018 C 
ATOM      4  C   UNL     1      34.876 -21.901 -18.762  0.00  0.00    +0.018 C 
ATOM      5  C   UNL     1      36.755 -22.069 -16.707  0.00  0.00    +0.039 C 
ATOM      6  C   UNL     1      34.632 -22.720 -17.658  0.00  0.00    +0.039 C 
ENDROOT
BRANCH   1   9
ATOM      7  O   UNL     1      34.222 -19.340 -20.297  0.00  0.00    -0.252 OA
ATOM      8  N   UNL     1      36.051 -18.840 -21.672  0.00  0.00    -0.268 N 
ATOM      9  N   UNL     1      36.302 -20.347 -19.939  0.00  0.00    -0.268 N 
ATOM     10  C   UNL     1      35.400 -19.496 -20.599  0.00  0.00    +0.308 C 
ATOM     11  H   UNL     1      37.002 -19.065 -21.797  0.00  0.00    +0.156 HD
ATOM     12  H   UNL     1      37.218 -20.366 -20.299  0.00  0.00    +0.156 HD
BRANCH   8  14
ATOM     13 CL   UNL     1      33.826 -14.966 -25.542  0.00  0.00    -0.082 Cl
ATOM     14  C   UNL     1      35.525 -17.918 -22.578  0.00  0.00    +0.052 C 
ATOM     15  C   UNL     1      34.777 -15.679 -23.089  0.00  0.00    +0.083 C 
ATOM     16  C   UNL     1      35.302 -16.600 -22.183  0.00  0.00    +0.019 C 
ATOM     17  C   UNL     1      35.223 -18.317 -23.881  0.00  0.00    +0.016 C 
ATOM     18  C   UNL     1      34.474 -16.077 -24.392  0.00  0.00    +0.062 C 
ATOM     19  C   UNL     1      34.698 -17.396 -24.787  0.00  0.00    +0.013 C 
BRANCH  15  23
ATOM     20  F   UNL     1      35.203 -13.344 -23.385  0.00  0.00    -0.166 F 
ATOM     21  F   UNL     1      33.243 -13.900 -22.641  0.00  0.00    -0.166 F 
ATOM     22  F   UNL     1      34.983 -14.073 -21.348  0.00  0.00    -0.166 F 
ATOM     23  C   UNL     1      34.554 -14.275 -22.627  0.00  0.00    +0.419 C 
ENDBRANCH  15  23
ENDBRANCH   8  14
ENDBRANCH   1   9
BRANCH   2  24
ATOM     24  O   UNL     1      35.335 -23.602 -15.555  0.00  0.00    -0.453 OA
BRANCH  24  26
ATOM     25  N   UNL     1      38.511 -24.373 -12.987  0.00  0.00    -0.239 NA
ATOM     26  C   UNL     1      36.393 -23.860 -14.699  0.00  0.00    +0.149 C 
ATOM     27  C   UNL     1      37.296 -24.849 -15.022  0.00  0.00    +0.061 C 
ATOM     28  C   UNL     1      38.337 -25.067 -14.134  0.00  0.00    +0.137 C 
ATOM     29  C   UNL     1      36.519 -23.119 -13.542  0.00  0.00    +0.058 C 
ATOM     30  C   UNL     1      37.595 -23.415 -12.720  0.00  0.00    +0.102 C 
BRANCH  28  33
ATOM     31  O   UNL     1      40.245 -26.319 -13.594  0.00  0.00    -0.268 OA
ATOM     32  N   UNL     1      39.188 -26.816 -15.597  0.00  0.00    -0.298 N 
ATOM     33  C   UNL     1      39.329 -26.093 -14.406  0.00  0.00    +0.264 C 
ATOM     34  C   UNL     1      40.080 -27.881 -15.996  0.00  0.00    +0.111 C 
ATOM     35  H   UNL     1      38.441 -26.586 -16.196  0.00  0.00    +0.150 HD
ENDBRANCH  28  33
ENDBRANCH  24  26
ENDBRANCH   2  24
TORSDOF 6
ENDMDL
MODEL 5
REMARK VINA RESULT:     -11.5      1.691      2.144
REMARK  Name = 216239
REMARK  6 active torsions:
REMARK  status: ('A' for Active; 'I' for Inactive)
REMARK    1  A    between atoms: C_1  and  N_9
REMARK    2  A    between atoms: C_2  and  O_24
REMARK    3  A    between atoms: N_8  and  C_14
REMARK    4  A    between atoms: C_15  and  C_23
REMARK    5  A    between atoms: O_24  and  C_26
REMARK    6  A    between atoms: C_28  and  C_33
REMARK                            x       y       z     vdW  Elec       q    Type
REMARK                         _______ _______ _______ _____ _____    ______ ____
ROOT
ATOM      1  C   UNL     1      34.934 -15.641 -23.237  0.00  0.00    +0.052 C 
ATOM      2  C   UNL     1      35.639 -18.189 -22.412  0.00  0.00    +0.145 C 
ATOM      3  C   UNL     1      34.881 -16.685 -24.144  0.00  0.00    +0.018 C 
ATOM      4  C   UNL     1      35.332 -15.842 -21.926  0.00  0.00    +0.018 C 
ATOM      5  C   UNL     1      35.236 -17.969 -23.729  0.00  0.00    +0.039 C 
ATOM      6  C   UNL     1      35.688 -17.126 -21.510  0.00  0.00    +0.039 C 
ENDROOT
BRANCH   1   9
ATOM      7  O   UNL     1      34.226 -13.223 -21.633  0.00  0.00    -0.252 OA
ATOM      8  N   UNL     1      33.948 -12.115 -23.678  0.00  0.00    -0.268 N 
ATOM      9  N   UNL     1      34.574 -14.339 -23.659  0.00  0.00    -0.268 N 
ATOM     10  C   UNL     1      34.249 -13.231 -22.859  0.00  0.00    +0.308 C 
ATOM     11  H   UNL     1      34.006 -12.270 -24.649  0.00  0.00    +0.156 HD
ATOM     12  H   UNL     1      34.548 -14.191 -24.631  0.00  0.00    +0.156 HD
BRANCH   8  14
ATOM     13 CL   UNL     1      32.342  -6.671 -22.031  0.00  0.00    -0.082 Cl
ATOM     14  C   UNL     1      33.578 -10.826 -23.294  0.00  0.00    +0.052 C 
ATOM     15  C   UNL     1      33.958  -8.441 -23.329  0.00  0.00    +0.083 C 
ATOM     16  C   UNL     1      34.329  -9.730 -23.713  0.00  0.00    +0.019 C 
ATOM     17  C   UNL     1      32.454 -10.636 -22.489  0.00  0.00    +0.016 C 
ATOM     18  C   UNL     1      32.834  -8.250 -22.524  0.00  0.00    +0.062 C 
ATOM     19  C   UNL     1      32.082  -9.348 -22.105  0.00  0.00    +0.013 C 
BRANCH  15  23
ATOM     20  F   UNL     1      35.479  -6.672 -22.800  0.00  0.00    -0.166 F 
ATOM     21  F   UNL     1      35.731  -7.644 -24.723  0.00  0.00    -0.166 F 
ATOM     22  F   UNL     1      34.041  -6.316 -24.392  0.00  0.00    -0.166 F 
ATOM     23  C   UNL     1      34.789  -7.292 -23.801  0.00  0.00    +0.419 C 
ENDBRANCH  15  23
ENDBRANCH   8  14
ENDBRANCH   1   9
BRANCH   2  24
ATOM     24  O   UNL     1      35.988 -19.441 -22.007  0.00  0.00    -0.453 OA
BRANCH  24  26
ATOM     25  N   UNL     1      33.698 -21.209 -19.023  0.00  0.00    -0.239 NA
ATOM     26  C   UNL     1      35.225 -20.031 -21.013  0.00  0.00    +0.149 C 
ATOM     27  C   UNL     1      35.857 -20.678 -19.973  0.00  0.00    +0.061 C 
ATOM     28  C   UNL     1      35.050 -21.250 -19.004  0.00  0.00    +0.137 C 
ATOM     29  C   UNL     1      33.850 -19.956 -21.085  0.00  0.00    +0.058 C 
ATOM     30  C   UNL     1      33.133 -20.562 -20.066  0.00  0.00    +0.102 C 
BRANCH  28  33
ATOM     31  O   UNL     1      35.030 -22.875 -17.313  0.00  0.00    -0.268 OA
ATOM     32  N   UNL     1      36.925 -21.550 -17.482  0.00  0.00    -0.298 N 
ATOM     33  C   UNL     1      35.643 -21.950 -17.876  0.00  0.00    +0.264 C 
ATOM     34  C   UNL     1      37.655 -22.163 -16.395  0.00  0.00    +0.111 C 
ATOM     35  H   UNL     1      37.354 -20.810 -17.971  0.00  0.00    +0.150 HD
ENDBRANCH  28  33
ENDBRANCH  24  26
ENDBRANCH   2  24
TORSDOF 6
ENDMDL
MODEL 6
REMARK VINA RESULT:     -11.5      2.213      3.356
REMARK  Name = 216239
REMARK  6 active torsions:
REMARK  status: ('A' for Active; 'I' for Inactive)
REMARK    1  A    between atoms: C_1  and  N_9
REMARK    2  A    between atoms: C_2  and  O_24
REMARK    3  A    between atoms: N_8  and  C_14
REMARK    4  A    between atoms: C_15  and  C_23
REMARK    5  A    between atoms: O_24  and  C_26
REMARK    6  A    between atoms: C_28  and  C_33
REMARK                            x       y       z     vdW  Elec       q    Type
REMARK                         _______ _______ _______ _____ _____    ______ ____
ROOT
ATOM      1  C   UNL     1      34.268 -13.551 -24.061  0.00  0.00    +0.052 C 
ATOM      2  C   UNL     1      34.507 -16.311 -24.046  0.00  0.00    +0.145 C 
ATOM      3  C   UNL     1      34.951 -14.166 -23.026  0.00  0.00    +0.018 C 
ATOM      4  C   UNL     1      33.701 -14.286 -25.089  0.00  0.00    +0.018 C 
ATOM      5  C   UNL     1      35.072 -15.556 -23.019  0.00  0.00    +0.039 C 
ATOM      6  C   UNL     1      33.821 -15.676 -25.081  0.00  0.00    +0.039 C 
ENDROOT
BRANCH   1   9
ATOM      7  O   UNL     1      32.725 -11.742 -22.254  0.00  0.00    -0.252 OA
ATOM      8  N   UNL     1      33.551  -9.972 -23.546  0.00  0.00    -0.268 N 
ATOM      9  N   UNL     1      34.146 -12.142 -24.069  0.00  0.00    -0.268 N 
ATOM     10  C   UNL     1      33.403 -11.335 -23.191  0.00  0.00    +0.308 C 
ATOM     11  H   UNL     1      34.128  -9.793 -24.324  0.00  0.00    +0.156 HD
ATOM     12  H   UNL     1      34.641 -11.669 -24.774  0.00  0.00    +0.156 HD
BRANCH   8  14
ATOM     13 CL   UNL     1      31.153  -5.234 -20.950  0.00  0.00    -0.082 Cl
ATOM     14  C   UNL     1      32.987  -8.848 -22.942  0.00  0.00    +0.052 C 
ATOM     15  C   UNL     1      32.334  -6.524 -23.041  0.00  0.00    +0.083 C 
ATOM     16  C   UNL     1      32.898  -7.647 -23.645  0.00  0.00    +0.019 C 
ATOM     17  C   UNL     1      32.513  -8.926 -21.632  0.00  0.00    +0.016 C 
ATOM     18  C   UNL     1      31.859  -6.601 -21.731  0.00  0.00    +0.062 C 
ATOM     19  C   UNL     1      31.948  -7.803 -21.028  0.00  0.00    +0.013 C 
BRANCH  15  23
ATOM     20  F   UNL     1      32.742  -5.374 -25.098  0.00  0.00    -0.166 F 
ATOM     21  F   UNL     1      30.982  -4.786 -23.976  0.00  0.00    -0.166 F 
ATOM     22  F   UNL     1      32.960  -4.241 -23.256  0.00  0.00    -0.166 F 
ATOM     23  C   UNL     1      32.254  -5.257 -23.830  0.00  0.00    +0.419 C 
ENDBRANCH  15  23
ENDBRANCH   8  14
ENDBRANCH   1   9
BRANCH   2  24
ATOM     24  O   UNL     1      34.624 -17.667 -24.037  0.00  0.00    -0.453 OA
BRANCH  24  26
ATOM     25  N   UNL     1      36.050 -19.462 -20.571  0.00  0.00    -0.239 NA
ATOM     26  C   UNL     1      35.098 -18.265 -22.882  0.00  0.00    +0.149 C 
ATOM     27  C   UNL     1      34.244 -19.035 -22.121  0.00  0.00    +0.061 C 
ATOM     28  C   UNL     1      34.768 -19.612 -20.976  0.00  0.00    +0.137 C 
ATOM     29  C   UNL     1      36.415 -18.077 -22.518  0.00  0.00    +0.058 C 
ATOM     30  C   UNL     1      36.841 -18.696 -21.354  0.00  0.00    +0.102 C 
BRANCH  28  33
ATOM     31  O   UNL     1      32.691 -20.337 -20.165  0.00  0.00    -0.268 OA
ATOM     32  N   UNL     1      34.581 -21.352 -19.285  0.00  0.00    -0.298 N 
ATOM     33  C   UNL     1      33.931 -20.438 -20.123  0.00  0.00    +0.264 C 
ATOM     34  C   UNL     1      33.886 -22.257 -18.397  0.00  0.00    +0.111 C 
ATOM     35  H   UNL     1      35.565 -21.380 -19.300  0.00  0.00    +0.150 HD
ENDBRANCH  28  33
ENDBRANCH  24  26
ENDBRANCH   2  24
TORSDOF 6
ENDMDL
MODEL 7
REMARK VINA RESULT:     -11.5      2.031      2.900
REMARK  Name = 216239
REMARK  6 active torsions:
REMARK  status: ('A' for Active; 'I' for Inactive)
REMARK    1  A    between atoms: C_1  and  N_9
REMARK    2  A    between atoms: C_2  and  O_24
REMARK    3  A    between atoms: N_8  and  C_14
REMARK    4  A    between atoms: C_15  and  C_23
REMARK    5  A    between atoms: O_24  and  C_26
REMARK    6  A    between atoms: C_28  and  C_33
REMARK                            x       y       z     vdW  Elec       q    Type
REMARK                         _______ _______ _______ _____ _____    ______ ____
ROOT
ATOM      1  C   UNL     1      34.323 -13.815 -24.071  0.00  0.00    +0.052 C 
ATOM      2  C   UNL     1      34.614 -16.567 -23.958  0.00  0.00    +0.145 C 
ATOM      3  C   UNL     1      33.821 -14.592 -25.101  0.00  0.00    +0.018 C 
ATOM      4  C   UNL     1      34.967 -14.383 -22.985  0.00  0.00    +0.018 C 
ATOM      5  C   UNL     1      33.968 -15.978 -25.044  0.00  0.00    +0.039 C 
ATOM      6  C   UNL     1      35.115 -15.770 -22.929  0.00  0.00    +0.039 C 
ENDROOT
BRANCH   1   9
ATOM      7  O   UNL     1      32.636 -11.986 -22.419  0.00  0.00    -0.252 OA
ATOM      8  N   UNL     1      33.506 -10.237 -23.712  0.00  0.00    -0.268 N 
ATOM      9  N   UNL     1      34.174 -12.409 -24.130  0.00  0.00    -0.268 N 
ATOM     10  C   UNL     1      33.363 -11.592 -23.324  0.00  0.00    +0.308 C 
ATOM     11  H   UNL     1      34.126 -10.069 -24.459  0.00  0.00    +0.156 HD
ATOM     12  H   UNL     1      34.703 -11.946 -24.819  0.00  0.00    +0.156 HD
BRANCH   8  14
ATOM     13 CL   UNL     1      30.862  -5.440 -21.492  0.00  0.00    -0.082 Cl
ATOM     14  C   UNL     1      32.885  -9.108 -23.178  0.00  0.00    +0.052 C 
ATOM     15  C   UNL     1      32.366  -7.703 -21.283  0.00  0.00    +0.083 C 
ATOM     16  C   UNL     1      32.987  -8.833 -21.815  0.00  0.00    +0.019 C 
ATOM     17  C   UNL     1      32.160  -8.253 -24.010  0.00  0.00    +0.016 C 
ATOM     18  C   UNL     1      31.641  -6.848 -22.114  0.00  0.00    +0.062 C 
ATOM     19  C   UNL     1      31.540  -7.124 -23.478  0.00  0.00    +0.013 C 
BRANCH  15  23
ATOM     20  F   UNL     1      33.154  -6.280 -19.529  0.00  0.00    -0.166 F 
ATOM     21  F   UNL     1      31.304  -7.353 -19.168  0.00  0.00    -0.166 F 
ATOM     22  F   UNL     1      33.197  -8.425 -19.175  0.00  0.00    -0.166 F 
ATOM     23  C   UNL     1      32.501  -7.443 -19.817  0.00  0.00    +0.419 C 
ENDBRANCH  15  23
ENDBRANCH   8  14
ENDBRANCH   1   9
BRANCH   2  24
ATOM     24  O   UNL     1      34.759 -17.919 -23.903  0.00  0.00    -0.453 OA
BRANCH  24  26
ATOM     25  N   UNL     1      36.150 -19.571 -20.353  0.00  0.00    -0.239 NA
ATOM     26  C   UNL     1      35.222 -18.469 -22.720  0.00  0.00    +0.149 C 
ATOM     27  C   UNL     1      34.367 -19.228 -21.949  0.00  0.00    +0.061 C 
ATOM     28  C   UNL     1      34.879 -19.757 -20.776  0.00  0.00    +0.137 C 
ATOM     29  C   UNL     1      36.528 -18.246 -22.339  0.00  0.00    +0.058 C 
ATOM     30  C   UNL     1      36.943 -18.818 -21.147  0.00  0.00    +0.102 C 
BRANCH  28  33
ATOM     31  O   UNL     1      32.802 -20.436 -19.925  0.00  0.00    -0.268 OA
ATOM     32  N   UNL     1      34.684 -21.505 -19.094  0.00  0.00    -0.298 N 
ATOM     33  C   UNL     1      34.039 -20.568 -19.910  0.00  0.00    +0.264 C 
ATOM     34  C   UNL     1      33.986 -22.399 -18.197  0.00  0.00    +0.111 C 
ATOM     35  H   UNL     1      35.667 -21.557 -19.131  0.00  0.00    +0.150 HD
ENDBRANCH  28  33
ENDBRANCH  24  26
ENDBRANCH   2  24
TORSDOF 6
ENDMDL
MODEL 8
REMARK VINA RESULT:     -11.5      6.614     11.947
REMARK  Name = 216239
REMARK  6 active torsions:
REMARK  status: ('A' for Active; 'I' for Inactive)
REMARK    1  A    between atoms: C_1  and  N_9
REMARK    2  A    between atoms: C_2  and  O_24
REMARK    3  A    between atoms: N_8  and  C_14
REMARK    4  A    between atoms: C_15  and  C_23
REMARK    5  A    between atoms: O_24  and  C_26
REMARK    6  A    between atoms: C_28  and  C_33
REMARK                            x       y       z     vdW  Elec       q    Type
REMARK                         _______ _______ _______ _____ _____    ______ ____
ROOT
ATOM      1  C   UNL     1      35.517 -20.523 -19.994  0.00  0.00    +0.052 C 
ATOM      2  C   UNL     1      35.929 -18.877 -22.183  0.00  0.00    +0.145 C 
ATOM      3  C   UNL     1      34.455 -20.235 -20.834  0.00  0.00    +0.018 C 
ATOM      4  C   UNL     1      36.781 -20.006 -20.223  0.00  0.00    +0.018 C 
ATOM      5  C   UNL     1      34.663 -19.406 -21.937  0.00  0.00    +0.039 C 
ATOM      6  C   UNL     1      36.989 -19.176 -21.326  0.00  0.00    +0.039 C 
ENDROOT
BRANCH   1   9
ATOM      7  O   UNL     1      32.982 -21.299 -18.619  0.00  0.00    -0.252 OA
ATOM      8  N   UNL     1      34.315 -22.569 -17.171  0.00  0.00    -0.268 N 
ATOM      9  N   UNL     1      35.306 -21.363 -18.875  0.00  0.00    -0.268 N 
ATOM     10  C   UNL     1      34.085 -21.698 -18.265  0.00  0.00    +0.308 C 
ATOM     11  H   UNL     1      35.257 -22.804 -17.003  0.00  0.00    +0.156 HD
ATOM     12  H   UNL     1      36.111 -21.762 -18.476  0.00  0.00    +0.156 HD
BRANCH   8  14
ATOM     13 CL   UNL     1      30.412 -25.000 -13.459  0.00  0.00    -0.082 Cl
ATOM     14  C   UNL     1      33.386 -23.137 -16.300  0.00  0.00    +0.052 C 
ATOM     15  C   UNL     1      31.096 -23.463 -15.603  0.00  0.00    +0.083 C 
ATOM     16  C   UNL     1      32.025 -22.893 -16.474  0.00  0.00    +0.019 C 
ATOM     17  C   UNL     1      33.821 -23.951 -15.253  0.00  0.00    +0.016 C 
ATOM     18  C   UNL     1      31.530 -24.276 -14.555  0.00  0.00    +0.062 C 
ATOM     19  C   UNL     1      32.893 -24.521 -14.382  0.00  0.00    +0.013 C 
BRANCH  15  23
ATOM     20  F   UNL     1      29.404 -22.418 -16.932  0.00  0.00    -0.166 F 
ATOM     21  F   UNL     1      28.890 -24.302 -15.987  0.00  0.00    -0.166 F 
ATOM     22  F   UNL     1      29.082 -22.502 -14.783  0.00  0.00    -0.166 F 
ATOM     23  C   UNL     1      29.646 -23.178 -15.825  0.00  0.00    +0.419 C 
ENDBRANCH  15  23
ENDBRANCH   8  14
ENDBRANCH   1   9
BRANCH   2  24
ATOM     24  O   UNL     1      36.132 -18.067 -23.258  0.00  0.00    -0.453 OA
BRANCH  24  26
ATOM     25  N   UNL     1      34.128 -14.426 -23.333  0.00  0.00    -0.239 NA
ATOM     26  C   UNL     1      35.465 -16.854 -23.284  0.00  0.00    +0.149 C 
ATOM     27  C   UNL     1      34.857 -16.443 -24.451  0.00  0.00    +0.061 C 
ATOM     28  C   UNL     1      34.202 -15.222 -24.424  0.00  0.00    +0.137 C 
ATOM     29  C   UNL     1      35.423 -16.084 -22.140  0.00  0.00    +0.058 C 
ATOM     30  C   UNL     1      34.743 -14.879 -22.217  0.00  0.00    +0.102 C 
BRANCH  28  33
ATOM     31  O   UNL     1      32.846 -15.479 -26.319  0.00  0.00    -0.268 OA
ATOM     32  N   UNL     1      33.695 -13.361 -25.907  0.00  0.00    -0.298 N 
ATOM     33  C   UNL     1      33.537 -14.721 -25.615  0.00  0.00    +0.264 C 
ATOM     34  C   UNL     1      33.078 -12.711 -27.041  0.00  0.00    +0.111 C 
ATOM     35  H   UNL     1      34.256 -12.818 -25.308  0.00  0.00    +0.150 HD
ENDBRANCH  28  33
ENDBRANCH  24  26
ENDBRANCH   2  24
TORSDOF 6
ENDMDL
MODEL 9
REMARK VINA RESULT:     -11.4      6.394     11.458
REMARK  Name = 216239
REMARK  6 active torsions:
REMARK  status: ('A' for Active; 'I' for Inactive)
REMARK    1  A    between atoms: C_1  and  N_9
REMARK    2  A    between atoms: C_2  and  O_24
REMARK    3  A    between atoms: N_8  and  C_14
REMARK    4  A    between atoms: C_15  and  C_23
REMARK    5  A    between atoms: O_24  and  C_26
REMARK    6  A    between atoms: C_28  and  C_33
REMARK                            x       y       z     vdW  Elec       q    Type
REMARK                         _______ _______ _______ _____ _____    ______ ____
ROOT
ATOM      1  C   UNL     1      35.608 -20.264 -20.338  0.00  0.00    +0.052 C 
ATOM      2  C   UNL     1      35.930 -18.572 -22.508  0.00  0.00    +0.145 C 
ATOM      3  C   UNL     1      34.546 -20.062 -21.203  0.00  0.00    +0.018 C 
ATOM      4  C   UNL     1      36.828 -19.638 -20.534  0.00  0.00    +0.018 C 
ATOM      5  C   UNL     1      34.709 -19.210 -22.296  0.00  0.00    +0.039 C 
ATOM      6  C   UNL     1      36.990 -18.785 -21.626  0.00  0.00    +0.039 C 
ENDROOT
BRANCH   1   9
ATOM      7  O   UNL     1      33.134 -21.055 -18.864  0.00  0.00    -0.252 OA
ATOM      8  N   UNL     1      34.524 -22.365 -17.509  0.00  0.00    -0.268 N 
ATOM      9  N   UNL     1      35.443 -21.127 -19.230  0.00  0.00    -0.268 N 
ATOM     10  C   UNL     1      34.250 -21.468 -18.571  0.00  0.00    +0.308 C 
ATOM     11  H   UNL     1      35.471 -22.610 -17.390  0.00  0.00    +0.156 HD
ATOM     12  H   UNL     1      36.263 -21.541 -18.878  0.00  0.00    +0.156 HD
BRANCH   8  14
ATOM     13 CL   UNL     1      30.780 -24.854 -13.672  0.00  0.00    -0.082 Cl
ATOM     14  C   UNL     1      33.632 -22.947 -16.608  0.00  0.00    +0.052 C 
ATOM     15  C   UNL     1      31.373 -23.292 -15.826  0.00  0.00    +0.083 C 
ATOM     16  C   UNL     1      32.264 -22.709 -16.727  0.00  0.00    +0.019 C 
ATOM     17  C   UNL     1      34.112 -23.768 -15.586  0.00  0.00    +0.016 C 
ATOM     18  C   UNL     1      31.851 -24.113 -14.804  0.00  0.00    +0.062 C 
ATOM     19  C   UNL     1      33.221 -24.351 -14.685  0.00  0.00    +0.013 C 
BRANCH  15  23
ATOM     20  F   UNL     1      29.636 -22.137 -16.996  0.00  0.00    -0.166 F 
ATOM     21  F   UNL     1      29.176 -24.128 -16.269  0.00  0.00    -0.166 F 
ATOM     22  F   UNL     1      29.356 -22.475 -14.867  0.00  0.00    -0.166 F 
ATOM     23  C   UNL     1      29.913 -23.014 -15.989  0.00  0.00    +0.419 C 
ENDBRANCH  15  23
ENDBRANCH   8  14
ENDBRANCH   1   9
BRANCH   2  24
ATOM     24  O   UNL     1      36.088 -17.740 -23.573  0.00  0.00    -0.453 OA
BRANCH  24  26
ATOM     25  N   UNL     1      33.658 -14.374 -23.773  0.00  0.00    -0.239 NA
ATOM     26  C   UNL     1      35.278 -16.619 -23.639  0.00  0.00    +0.149 C 
ATOM     27  C   UNL     1      35.100 -15.848 -22.510  0.00  0.00    +0.061 C 
ATOM     28  C   UNL     1      34.281 -14.737 -22.629  0.00  0.00    +0.137 C 
ATOM     29  C   UNL     1      34.668 -16.298 -24.833  0.00  0.00    +0.058 C 
ATOM     30  C   UNL     1      33.868 -15.166 -24.847  0.00  0.00    +0.102 C 
BRANCH  28  33
ATOM     31  O   UNL     1      34.928 -13.712 -20.621  0.00  0.00    -0.268 OA
ATOM     32  N   UNL     1      32.803 -13.232 -21.414  0.00  0.00    -0.298 N 
ATOM     33  C   UNL     1      34.045 -13.875 -21.482  0.00  0.00    +0.264 C 
ATOM     34  C   UNL     1      32.428 -12.328 -20.350  0.00  0.00    +0.111 C 
ATOM     35  H   UNL     1      32.149 -13.406 -22.129  0.00  0.00    +0.150 HD
ENDBRANCH  28  33
ENDBRANCH  24  26
ENDBRANCH   2  24
TORSDOF 6
ENDMDL
