MODEL 1
REMARK VINA RESULT:     -11.4      0.000      0.000
REMARK  Name = 115368
REMARK  5 active torsions:
REMARK  status: ('A' for Active; 'I' for Inactive)
REMARK    1  A    between atoms: N_2  and  C_17
REMARK    2  A    between atoms: C_17  and  C_18
REMARK    3  A    between atoms: C_18  and  C_19
REMARK    4  A    between atoms: C_19  and  C_20
REMARK    5  A    between atoms: C_20  and  N_23
REMARK                            x       y       z     vdW  Elec       q    Type
REMARK                         _______ _______ _______ _____ _____    ______ ____
ROOT
ATOM      1  S   UNL     1      37.135 -20.735 -19.296  0.00  0.00    +0.014 S 
ATOM      2  N   UNL     1      34.869 -16.944 -24.226  0.00  0.00    +0.389 N 
ATOM      3  N   UNL     1      35.695 -18.728 -22.151  0.00  0.00    -0.297 N 
ATOM      4  N   UNL     1      37.212 -19.709 -20.593  0.00  0.00    -0.194 NA
ATOM      5  C   UNL     1      34.149 -18.201 -23.990  0.00  0.00    -0.055 C 
ATOM      6  C   UNL     1      35.409 -16.425 -22.963  0.00  0.00    -0.055 C 
ATOM      7  C   UNL     1      35.065 -19.258 -23.365  0.00  0.00    +0.069 C 
ATOM      8  C   UNL     1      36.367 -17.435 -22.330  0.00  0.00    +0.069 C 
ATOM      9  C   UNL     1      35.978 -19.531 -21.069  0.00  0.00    +0.140 A 
ATOM     10  C   UNL     1      34.913 -20.225 -20.397  0.00  0.00    +0.040 A 
ATOM     11  C   UNL     1      35.432 -20.972 -19.337  0.00  0.00    +0.050 A 
ATOM     12  C   UNL     1      33.520 -20.264 -20.629  0.00  0.00    +0.003 C 
ATOM     13  C   UNL     1      34.617 -21.753 -18.504  0.00  0.00    +0.008 C 
ATOM     14  C   UNL     1      32.700 -21.039 -19.804  0.00  0.00    +0.000 C 
ATOM     15  C   UNL     1      33.243 -21.774 -18.756  0.00  0.00    +0.001 C 
ATOM     16  H   UNL     1      35.646 -17.127 -24.862  0.00  0.00    -0.080 HD
ENDROOT
BRANCH   2  17
ATOM     17  C   UNL     1      33.989 -15.958 -24.853  0.00  0.00    -0.077 C 
BRANCH  17  18
ATOM     18  C   UNL     1      34.479 -14.542 -24.553  0.00  0.00    -0.021 C 
BRANCH  18  19
ATOM     19  C   UNL     1      33.387 -13.713 -23.870  0.00  0.00    +0.020 C 
BRANCH  19  20
ATOM     20  C   UNL     1      33.873 -13.046 -22.587  0.00  0.00    +0.101 C 
BRANCH  20  23
ATOM     21  O   UNL     1      33.405 -10.280 -23.529  0.00  0.00    -0.274 OA
ATOM     22  O   UNL     1      32.003 -13.327 -20.346  0.00  0.00    -0.274 OA
ATOM     23  N   UNL     1      32.933 -12.064 -22.085  0.00  0.00    -0.230 N 
ATOM     24  C   UNL     1      31.549 -10.207 -21.957  0.00  0.00    +0.086 C 
ATOM     25  C   UNL     1      31.463 -10.980 -20.636  0.00  0.00    +0.086 C 
ATOM     26  C   UNL     1      31.564  -8.687 -21.848  0.00  0.00    +0.010 C 
ATOM     27  C   UNL     1      32.230 -10.343 -19.472  0.00  0.00    +0.010 C 
ATOM     28  C   UNL     1      32.425  -8.171 -20.702  0.00  0.00    +0.001 C 
ATOM     29  C   UNL     1      32.036  -8.837 -19.389  0.00  0.00    +0.001 C 
ATOM     30  C   UNL     1      32.764 -10.806 -22.633  0.00  0.00    +0.231 C 
ATOM     31  C   UNL     1      32.126 -12.293 -20.987  0.00  0.00    +0.231 C 
ENDBRANCH  20  23
ENDBRANCH  19  20
ENDBRANCH  18  19
ENDBRANCH  17  18
ENDBRANCH   2  17
TORSDOF 5
ENDMDL
MODEL 2
REMARK VINA RESULT:     -11.0      4.297     10.412
REMARK  Name = 115368
REMARK  5 active torsions:
REMARK  status: ('A' for Active; 'I' for Inactive)
REMARK    1  A    between atoms: N_2  and  C_17
REMARK    2  A    between atoms: C_17  and  C_18
REMARK    3  A    between atoms: C_18  and  C_19
REMARK    4  A    between atoms: C_19  and  C_20
REMARK    5  A    between atoms: C_20  and  N_23
REMARK                            x       y       z     vdW  Elec       q    Type
REMARK                         _______ _______ _______ _____ _____    ______ ____
ROOT
ATOM      1  S   UNL     1      33.798 -15.295 -25.422  0.00  0.00    +0.014 S 
ATOM      2  N   UNL     1      36.182 -19.773 -21.170  0.00  0.00    +0.389 N 
ATOM      3  N   UNL     1      35.281 -17.692 -22.910  0.00  0.00    -0.297 N 
ATOM      4  N   UNL     1      34.377 -16.760 -24.911  0.00  0.00    -0.194 NA
ATOM      5  C   UNL     1      36.662 -18.396 -21.000  0.00  0.00    -0.055 C 
ATOM      6  C   UNL     1      34.807 -19.770 -21.686  0.00  0.00    -0.055 C 
ATOM      7  C   UNL     1      36.624 -17.627 -22.323  0.00  0.00    +0.069 C 
ATOM      8  C   UNL     1      34.738 -19.049 -23.033  0.00  0.00    +0.069 C 
ATOM      9  C   UNL     1      34.754 -16.647 -23.636  0.00  0.00    +0.140 A 
ATOM     10  C   UNL     1      34.588 -15.360 -23.017  0.00  0.00    +0.040 A 
ATOM     11  C   UNL     1      34.039 -14.463 -23.936  0.00  0.00    +0.050 A 
ATOM     12  C   UNL     1      34.874 -14.897 -21.714  0.00  0.00    +0.003 C 
ATOM     13  C   UNL     1      33.767 -13.127 -23.605  0.00  0.00    +0.008 C 
ATOM     14  C   UNL     1      34.607 -13.568 -21.375  0.00  0.00    +0.000 C 
ATOM     15  C   UNL     1      34.060 -12.695 -22.310  0.00  0.00    +0.001 C 
ATOM     16  H   UNL     1      36.783 -20.246 -21.845  0.00  0.00    -0.080 HD
ENDROOT
BRANCH   2  17
ATOM     17  C   UNL     1      36.255 -20.503 -19.904  0.00  0.00    -0.077 C 
BRANCH  17  18
ATOM     18  C   UNL     1      34.893 -21.100 -19.556  0.00  0.00    -0.021 C 
BRANCH  18  19
ATOM     19  C   UNL     1      34.998 -22.060 -18.367  0.00  0.00    +0.020 C 
BRANCH  19  20
ATOM     20  C   UNL     1      33.796 -22.994 -18.259  0.00  0.00    +0.101 C 
BRANCH  20  23
ATOM     21  O   UNL     1      34.846 -24.064 -15.708  0.00  0.00    -0.274 OA
ATOM     22  O   UNL     1      31.189 -21.880 -17.509  0.00  0.00    -0.274 OA
ATOM     23  N   UNL     1      33.188 -22.962 -16.944  0.00  0.00    -0.230 N 
ATOM     24  C   UNL     1      32.923 -23.022 -14.641  0.00  0.00    +0.086 C 
ATOM     25  C   UNL     1      31.554 -22.792 -15.291  0.00  0.00    +0.086 C 
ATOM     26  C   UNL     1      32.948 -23.961 -13.441  0.00  0.00    +0.010 C 
ATOM     27  C   UNL     1      30.640 -24.022 -15.311  0.00  0.00    +0.010 C 
ATOM     28  C   UNL     1      32.064 -25.188 -13.613  0.00  0.00    +0.001 C 
ATOM     29  C   UNL     1      30.646 -24.785 -13.995  0.00  0.00    +0.001 C 
ATOM     30  C   UNL     1      33.792 -23.456 -15.803  0.00  0.00    +0.231 C 
ATOM     31  C   UNL     1      31.926 -22.447 -16.715  0.00  0.00    +0.231 C 
ENDBRANCH  20  23
ENDBRANCH  19  20
ENDBRANCH  18  19
ENDBRANCH  17  18
ENDBRANCH   2  17
TORSDOF 5
ENDMDL
MODEL 3
REMARK VINA RESULT:     -11.0      3.617      9.577
REMARK  Name = 115368
REMARK  5 active torsions:
REMARK  status: ('A' for Active; 'I' for Inactive)
REMARK    1  A    between atoms: N_2  and  C_17
REMARK    2  A    between atoms: C_17  and  C_18
REMARK    3  A    between atoms: C_18  and  C_19
REMARK    4  A    between atoms: C_19  and  C_20
REMARK    5  A    between atoms: C_20  and  N_23
REMARK                            x       y       z     vdW  Elec       q    Type
REMARK                         _______ _______ _______ _____ _____    ______ ____
ROOT
ATOM      1  S   UNL     1      33.102  -9.397 -23.628  0.00  0.00    +0.014 S 
ATOM      2  N   UNL     1      34.680 -15.788 -24.321  0.00  0.00    +0.389 N 
ATOM      3  N   UNL     1      34.033 -13.052 -23.808  0.00  0.00    -0.297 N 
ATOM      4  N   UNL     1      33.795 -10.733 -24.318  0.00  0.00    -0.194 NA
ATOM      5  C   UNL     1      34.664 -15.268 -22.949  0.00  0.00    -0.055 C 
ATOM      6  C   UNL     1      33.681 -15.087 -25.140  0.00  0.00    -0.055 C 
ATOM      7  C   UNL     1      34.957 -13.765 -22.920  0.00  0.00    +0.069 C 
ATOM      8  C   UNL     1      33.969 -13.586 -25.173  0.00  0.00    +0.069 C 
ATOM      9  C   UNL     1      33.583 -11.782 -23.520  0.00  0.00    +0.140 A 
ATOM     10  C   UNL     1      32.846 -11.543 -22.309  0.00  0.00    +0.040 A 
ATOM     11  C   UNL     1      32.494 -10.194 -22.230  0.00  0.00    +0.050 A 
ATOM     12  C   UNL     1      32.450 -12.404 -21.261  0.00  0.00    +0.003 C 
ATOM     13  C   UNL     1      31.766  -9.674 -21.149  0.00  0.00    +0.008 C 
ATOM     14  C   UNL     1      31.724 -11.896 -20.181  0.00  0.00    +0.000 C 
ATOM     15  C   UNL     1      31.388 -10.547 -20.127  0.00  0.00    +0.001 C 
ATOM     16  H   UNL     1      35.603 -15.622 -24.722  0.00  0.00    -0.080 HD
ENDROOT
BRANCH   2  17
ATOM     17  C   UNL     1      34.431 -17.229 -24.328  0.00  0.00    -0.077 C 
BRANCH  17  18
ATOM     18  C   UNL     1      35.308 -17.925 -23.289  0.00  0.00    -0.021 C 
BRANCH  18  19
ATOM     19  C   UNL     1      34.531 -19.022 -22.555  0.00  0.00    +0.020 C 
BRANCH  19  20
ATOM     20  C   UNL     1      34.592 -18.869 -21.038  0.00  0.00    +0.101 C 
BRANCH  20  23
ATOM     21  O   UNL     1      32.689 -20.763 -19.794  0.00  0.00    -0.274 OA
ATOM     22  O   UNL     1      37.204 -20.110 -20.553  0.00  0.00    -0.274 OA
ATOM     23  N   UNL     1      34.870 -20.123 -20.367  0.00  0.00    -0.230 N 
ATOM     24  C   UNL     1      34.596 -22.237 -19.453  0.00  0.00    +0.086 C 
ATOM     25  C   UNL     1      36.047 -21.790 -19.240  0.00  0.00    +0.086 C 
ATOM     26  C   UNL     1      33.945 -22.984 -18.295  0.00  0.00    +0.010 C 
ATOM     27  C   UNL     1      36.375 -21.343 -17.812  0.00  0.00    +0.010 C 
ATOM     28  C   UNL     1      34.281 -22.396 -16.931  0.00  0.00    +0.001 C 
ATOM     29  C   UNL     1      35.788 -22.265 -16.754  0.00  0.00    +0.001 C 
ATOM     30  C   UNL     1      33.893 -20.958 -19.858  0.00  0.00    +0.231 C 
ATOM     31  C   UNL     1      36.152 -20.591 -20.156  0.00  0.00    +0.231 C 
ENDBRANCH  20  23
ENDBRANCH  19  20
ENDBRANCH  18  19
ENDBRANCH  17  18
ENDBRANCH   2  17
TORSDOF 5
ENDMDL
MODEL 4
REMARK VINA RESULT:     -10.6      4.648      8.061
REMARK  Name = 115368
REMARK  5 active torsions:
REMARK  status: ('A' for Active; 'I' for Inactive)
REMARK    1  A    between atoms: N_2  and  C_17
REMARK    2  A    between atoms: C_17  and  C_18
REMARK    3  A    between atoms: C_18  and  C_19
REMARK    4  A    between atoms: C_19  and  C_20
REMARK    5  A    between atoms: C_20  and  N_23
REMARK                            x       y       z     vdW  Elec       q    Type
REMARK                         _______ _______ _______ _____ _____    ______ ____
ROOT
ATOM      1  S   UNL     1      35.930 -24.399 -11.915  0.00  0.00    +0.014 S 
ATOM      2  N   UNL     1      35.144 -21.745 -17.928  0.00  0.00    +0.389 N 
ATOM      3  N   UNL     1      35.696 -22.846 -15.349  0.00  0.00    -0.297 N 
ATOM      4  N   UNL     1      35.210 -23.504 -13.108  0.00  0.00    -0.194 NA
ATOM      5  C   UNL     1      36.520 -21.807 -17.420  0.00  0.00    -0.055 C 
ATOM      6  C   UNL     1      34.362 -22.878 -17.413  0.00  0.00    -0.055 C 
ATOM      7  C   UNL     1      36.549 -21.782 -15.889  0.00  0.00    +0.069 C 
ATOM      8  C   UNL     1      34.330 -22.860 -15.885  0.00  0.00    +0.069 C 
ATOM      9  C   UNL     1      36.006 -23.502 -14.179  0.00  0.00    +0.140 A 
ATOM     10  C   UNL     1      37.243 -24.229 -14.074  0.00  0.00    +0.040 A 
ATOM     11  C   UNL     1      37.342 -24.810 -12.808  0.00  0.00    +0.050 A 
ATOM     12  C   UNL     1      38.297 -24.432 -14.992  0.00  0.00    +0.003 C 
ATOM     13  C   UNL     1      38.449 -25.582 -12.425  0.00  0.00    +0.008 C 
ATOM     14  C   UNL     1      39.404 -25.200 -14.620  0.00  0.00    +0.000 C 
ATOM     15  C   UNL     1      39.478 -25.766 -13.352  0.00  0.00    +0.001 C 
ATOM     16  H   UNL     1      34.714 -20.879 -17.602  0.00  0.00    -0.080 HD
ENDROOT
BRANCH   2  17
ATOM     17  C   UNL     1      35.135 -21.737 -19.391  0.00  0.00    -0.077 C 
BRANCH  17  18
ATOM     18  C   UNL     1      36.468 -21.220 -19.927  0.00  0.00    -0.021 C 
BRANCH  18  19
ATOM     19  C   UNL     1      36.352 -19.762 -20.386  0.00  0.00    +0.020 C 
BRANCH  19  20
ATOM     20  C   UNL     1      35.091 -19.505 -21.205  0.00  0.00    +0.101 C 
BRANCH  20  23
ATOM     21  O   UNL     1      35.320 -16.577 -20.838  0.00  0.00    -0.274 OA
ATOM     22  O   UNL     1      35.304 -19.846 -24.110  0.00  0.00    -0.274 OA
ATOM     23  N   UNL     1      35.285 -18.478 -22.209  0.00  0.00    -0.230 N 
ATOM     24  C   UNL     1      35.825 -16.459 -23.216  0.00  0.00    +0.086 C 
ATOM     25  C   UNL     1      35.312 -17.427 -24.290  0.00  0.00    +0.086 C 
ATOM     26  C   UNL     1      35.375 -15.010 -23.347  0.00  0.00    +0.010 C 
ATOM     27  C   UNL     1      33.884 -17.151 -24.770  0.00  0.00    +0.010 C 
ATOM     28  C   UNL     1      33.914 -14.863 -23.751  0.00  0.00    +0.001 C 
ATOM     29  C   UNL     1      33.615 -15.672 -25.006  0.00  0.00    +0.001 C 
ATOM     30  C   UNL     1      35.425 -17.133 -21.921  0.00  0.00    +0.231 C 
ATOM     31  C   UNL     1      35.327 -18.753 -23.563  0.00  0.00    +0.231 C 
ENDBRANCH  20  23
ENDBRANCH  19  20
ENDBRANCH  18  19
ENDBRANCH  17  18
ENDBRANCH   2  17
TORSDOF 5
ENDMDL
MODEL 5
REMARK VINA RESULT:     -10.5      3.774     10.244
REMARK  Name = 115368
REMARK  5 active torsions:
REMARK  status: ('A' for Active; 'I' for Inactive)
REMARK    1  A    between atoms: N_2  and  C_17
REMARK    2  A    between atoms: C_17  and  C_18
REMARK    3  A    between atoms: C_18  and  C_19
REMARK    4  A    between atoms: C_19  and  C_20
REMARK    5  A    between atoms: C_20  and  N_23
REMARK                            x       y       z     vdW  Elec       q    Type
REMARK                         _______ _______ _______ _____ _____    ______ ____
ROOT
ATOM      1  S   UNL     1      31.650  -8.535 -22.290  0.00  0.00    +0.014 S 
ATOM      2  N   UNL     1      34.249 -14.608 -22.711  0.00  0.00    +0.389 N 
ATOM      3  N   UNL     1      33.217 -11.943 -22.723  0.00  0.00    -0.297 N 
ATOM      4  N   UNL     1      31.711 -10.184 -22.149  0.00  0.00    -0.194 NA
ATOM      5  C   UNL     1      34.567 -13.688 -23.809  0.00  0.00    -0.055 C 
ATOM      6  C   UNL     1      34.085 -13.862 -21.455  0.00  0.00    -0.055 C 
ATOM      7  C   UNL     1      33.468 -12.637 -23.990  0.00  0.00    +0.069 C 
ATOM      8  C   UNL     1      32.962 -12.832 -21.583  0.00  0.00    +0.069 C 
ATOM      9  C   UNL     1      32.857 -10.614 -22.681  0.00  0.00    +0.140 A 
ATOM     10  C   UNL     1      33.737  -9.618 -23.229  0.00  0.00    +0.040 A 
ATOM     11  C   UNL     1      33.170  -8.352 -23.074  0.00  0.00    +0.050 A 
ATOM     12  C   UNL     1      35.000  -9.718 -23.854  0.00  0.00    +0.003 C 
ATOM     13  C   UNL     1      33.812  -7.186 -23.519  0.00  0.00    +0.008 C 
ATOM     14  C   UNL     1      35.648  -8.563 -24.300  0.00  0.00    +0.000 C 
ATOM     15  C   UNL     1      35.059  -7.314 -24.135  0.00  0.00    +0.001 C 
ATOM     16  H   UNL     1      33.370 -15.081 -22.925  0.00  0.00    -0.080 HD
ENDROOT
BRANCH   2  17
ATOM     17  C   UNL     1      35.292 -15.625 -22.572  0.00  0.00    -0.077 C 
BRANCH  17  18
ATOM     18  C   UNL     1      35.076 -16.748 -23.585  0.00  0.00    -0.021 C 
BRANCH  18  19
ATOM     19  C   UNL     1      34.886 -18.096 -22.882  0.00  0.00    +0.020 C 
BRANCH  19  20
ATOM     20  C   UNL     1      35.221 -18.035 -21.395  0.00  0.00    +0.101 C 
BRANCH  20  23
ATOM     21  O   UNL     1      33.333 -20.133 -20.504  0.00  0.00    -0.274 OA
ATOM     22  O   UNL     1      37.852 -19.210 -20.848  0.00  0.00    -0.274 OA
ATOM     23  N   UNL     1      35.514 -19.342 -20.841  0.00  0.00    -0.230 N 
ATOM     24  C   UNL     1      35.283 -21.553 -20.178  0.00  0.00    +0.086 C 
ATOM     25  C   UNL     1      36.691 -21.070 -19.811  0.00  0.00    +0.086 C 
ATOM     26  C   UNL     1      34.591 -22.448 -19.157  0.00  0.00    +0.010 C 
ATOM     27  C   UNL     1      36.895 -20.767 -18.323  0.00  0.00    +0.010 C 
ATOM     28  C   UNL     1      34.801 -21.998 -17.718  0.00  0.00    +0.001 C 
ATOM     29  C   UNL     1      36.283 -21.823 -17.415  0.00  0.00    +0.001 C 
ATOM     30  C   UNL     1      34.547 -20.269 -20.497  0.00  0.00    +0.231 C 
ATOM     31  C   UNL     1      36.800 -19.775 -20.584  0.00  0.00    +0.231 C 
ENDBRANCH  20  23
ENDBRANCH  19  20
ENDBRANCH  18  19
ENDBRANCH  17  18
ENDBRANCH   2  17
TORSDOF 5
ENDMDL
MODEL 6
REMARK VINA RESULT:     -10.4      4.245      7.669
REMARK  Name = 115368
REMARK  5 active torsions:
REMARK  status: ('A' for Active; 'I' for Inactive)
REMARK    1  A    between atoms: N_2  and  C_17
REMARK    2  A    between atoms: C_17  and  C_18
REMARK    3  A    between atoms: C_18  and  C_19
REMARK    4  A    between atoms: C_19  and  C_20
REMARK    5  A    between atoms: C_20  and  N_23
REMARK                            x       y       z     vdW  Elec       q    Type
REMARK                         _______ _______ _______ _____ _____    ______ ____
ROOT
ATOM      1  S   UNL     1      31.664 -25.013 -13.467  0.00  0.00    +0.014 S 
ATOM      2  N   UNL     1      35.928 -22.125 -17.625  0.00  0.00    +0.389 N 
ATOM      3  N   UNL     1      33.945 -23.381 -15.995  0.00  0.00    -0.297 N 
ATOM      4  N   UNL     1      33.124 -24.694 -14.180  0.00  0.00    -0.194 NA
ATOM      5  C   UNL     1      34.599 -22.431 -18.167  0.00  0.00    -0.055 C 
ATOM      6  C   UNL     1      35.833 -21.819 -16.191  0.00  0.00    -0.055 C 
ATOM      7  C   UNL     1      33.963 -23.621 -17.442  0.00  0.00    +0.069 C 
ATOM      8  C   UNL     1      35.244 -23.004 -15.425  0.00  0.00    +0.069 C 
ATOM      9  C   UNL     1      32.927 -23.849 -15.193  0.00  0.00    +0.140 A 
ATOM     10  C   UNL     1      31.575 -23.424 -15.436  0.00  0.00    +0.040 A 
ATOM     11  C   UNL     1      30.720 -24.019 -14.507  0.00  0.00    +0.050 A 
ATOM     12  C   UNL     1      31.019 -22.555 -16.402  0.00  0.00    +0.003 C 
ATOM     13  C   UNL     1      29.337 -23.784 -14.505  0.00  0.00    +0.008 C 
ATOM     14  C   UNL     1      29.642 -22.314 -16.408  0.00  0.00    +0.000 C 
ATOM     15  C   UNL     1      28.813 -22.922 -15.471  0.00  0.00    +0.001 C 
ATOM     16  H   UNL     1      36.526 -22.943 -17.744  0.00  0.00    -0.080 HD
ENDROOT
BRANCH   2  17
ATOM     17  C   UNL     1      36.535 -21.008 -18.350  0.00  0.00    -0.077 C 
BRANCH  17  18
ATOM     18  C   UNL     1      36.333 -21.179 -19.854  0.00  0.00    -0.021 C 
BRANCH  18  19
ATOM     19  C   UNL     1      36.412 -19.832 -20.579  0.00  0.00    +0.020 C 
BRANCH  19  20
ATOM     20  C   UNL     1      35.102 -19.456 -21.263  0.00  0.00    +0.101 C 
BRANCH  20  23
ATOM     21  O   UNL     1      35.291 -16.528 -20.881  0.00  0.00    -0.274 OA
ATOM     22  O   UNL     1      35.310 -19.778 -24.171  0.00  0.00    -0.274 OA
ATOM     23  N   UNL     1      35.278 -18.421 -22.263  0.00  0.00    -0.230 N 
ATOM     24  C   UNL     1      35.785 -16.389 -23.260  0.00  0.00    +0.086 C 
ATOM     25  C   UNL     1      35.283 -17.358 -24.337  0.00  0.00    +0.086 C 
ATOM     26  C   UNL     1      35.314 -14.946 -23.382  0.00  0.00    +0.010 C 
ATOM     27  C   UNL     1      33.848 -17.100 -24.811  0.00  0.00    +0.010 C 
ATOM     28  C   UNL     1      33.850 -14.818 -23.780  0.00  0.00    +0.001 C 
ATOM     29  C   UNL     1      33.558 -15.624 -25.038  0.00  0.00    +0.001 C 
ATOM     30  C   UNL     1      35.399 -17.076 -21.967  0.00  0.00    +0.231 C 
ATOM     31  C   UNL     1      35.319 -18.688 -23.618  0.00  0.00    +0.231 C 
ENDBRANCH  20  23
ENDBRANCH  19  20
ENDBRANCH  18  19
ENDBRANCH  17  18
ENDBRANCH   2  17
TORSDOF 5
ENDMDL
MODEL 7
REMARK VINA RESULT:     -10.4      4.039     10.252
REMARK  Name = 115368
REMARK  5 active torsions:
REMARK  status: ('A' for Active; 'I' for Inactive)
REMARK    1  A    between atoms: N_2  and  C_17
REMARK    2  A    between atoms: C_17  and  C_18
REMARK    3  A    between atoms: C_18  and  C_19
REMARK    4  A    between atoms: C_19  and  C_20
REMARK    5  A    between atoms: C_20  and  N_23
REMARK                            x       y       z     vdW  Elec       q    Type
REMARK                         _______ _______ _______ _____ _____    ______ ____
ROOT
ATOM      1  S   UNL     1      34.017 -13.881 -25.440  0.00  0.00    +0.014 S 
ATOM      2  N   UNL     1      35.525 -19.127 -21.696  0.00  0.00    +0.389 N 
ATOM      3  N   UNL     1      34.950 -16.736 -23.152  0.00  0.00    -0.297 N 
ATOM      4  N   UNL     1      34.583 -15.398 -25.093  0.00  0.00    -0.194 NA
ATOM      5  C   UNL     1      35.768 -17.810 -21.096  0.00  0.00    -0.055 C 
ATOM      6  C   UNL     1      34.375 -19.063 -22.609  0.00  0.00    -0.055 C 
ATOM      7  C   UNL     1      36.039 -16.752 -22.170  0.00  0.00    +0.069 C 
ATOM      8  C   UNL     1      34.629 -18.048 -23.725  0.00  0.00    +0.069 C 
ATOM      9  C   UNL     1      34.545 -15.573 -23.770  0.00  0.00    +0.140 A 
ATOM     10  C   UNL     1      34.055 -14.477 -22.979  0.00  0.00    +0.040 A 
ATOM     11  C   UNL     1      33.705 -13.414 -23.814  0.00  0.00    +0.050 A 
ATOM     12  C   UNL     1      33.883 -14.323 -21.586  0.00  0.00    +0.003 C 
ATOM     13  C   UNL     1      33.194 -12.207 -23.313  0.00  0.00    +0.008 C 
ATOM     14  C   UNL     1      33.375 -13.125 -21.076  0.00  0.00    +0.000 C 
ATOM     15  C   UNL     1      33.035 -12.082 -21.930  0.00  0.00    +0.001 C 
ATOM     16  H   UNL     1      36.350 -19.400 -22.230  0.00  0.00    -0.080 HD
ENDROOT
BRANCH   2  17
ATOM     17  C   UNL     1      35.301 -20.132 -20.657  0.00  0.00    -0.077 C 
BRANCH  17  18
ATOM     18  C   UNL     1      33.809 -20.437 -20.525  0.00  0.00    -0.021 C 
BRANCH  18  19
ATOM     19  C   UNL     1      33.492 -21.069 -19.166  0.00  0.00    +0.020 C 
BRANCH  19  20
ATOM     20  C   UNL     1      34.276 -22.354 -18.920  0.00  0.00    +0.101 C 
BRANCH  20  23
ATOM     21  O   UNL     1      36.949 -21.735 -17.812  0.00  0.00    -0.274 OA
ATOM     22  O   UNL     1      32.774 -23.302 -16.587  0.00  0.00    -0.274 OA
ATOM     23  N   UNL     1      34.738 -22.467 -17.551  0.00  0.00    -0.230 N 
ATOM     24  C   UNL     1      35.987 -22.171 -15.619  0.00  0.00    +0.086 C 
ATOM     25  C   UNL     1      34.838 -23.142 -15.322  0.00  0.00    +0.086 C 
ATOM     26  C   UNL     1      37.330 -22.502 -14.980  0.00  0.00    +0.010 C 
ATOM     27  C   UNL     1      35.254 -24.614 -15.226  0.00  0.00    +0.010 C 
ATOM     28  C   UNL     1      37.668 -23.986 -15.017  0.00  0.00    +0.001 C 
ATOM     29  C   UNL     1      36.534 -24.816 -14.430  0.00  0.00    +0.001 C 
ATOM     30  C   UNL     1      36.004 -22.104 -17.132  0.00  0.00    +0.231 C 
ATOM     31  C   UNL     1      33.950 -22.972 -16.534  0.00  0.00    +0.231 C 
ENDBRANCH  20  23
ENDBRANCH  19  20
ENDBRANCH  18  19
ENDBRANCH  17  18
ENDBRANCH   2  17
TORSDOF 5
ENDMDL
MODEL 8
REMARK VINA RESULT:     -10.3      2.362      3.245
REMARK  Name = 115368
REMARK  5 active torsions:
REMARK  status: ('A' for Active; 'I' for Inactive)
REMARK    1  A    between atoms: N_2  and  C_17
REMARK    2  A    between atoms: C_17  and  C_18
REMARK    3  A    between atoms: C_18  and  C_19
REMARK    4  A    between atoms: C_19  and  C_20
REMARK    5  A    between atoms: C_20  and  N_23
REMARK                            x       y       z     vdW  Elec       q    Type
REMARK                         _______ _______ _______ _____ _____    ______ ____
ROOT
ATOM      1  S   UNL     1      37.219 -19.819 -20.254  0.00  0.00    +0.014 S 
ATOM      2  N   UNL     1      34.488 -15.499 -24.461  0.00  0.00    +0.389 N 
ATOM      3  N   UNL     1      35.519 -17.510 -22.711  0.00  0.00    -0.297 N 
ATOM      4  N   UNL     1      37.170 -18.614 -21.389  0.00  0.00    -0.194 NA
ATOM      5  C   UNL     1      33.847 -16.817 -24.376  0.00  0.00    -0.055 C 
ATOM      6  C   UNL     1      35.073 -15.135 -23.163  0.00  0.00    -0.055 C 
ATOM      7  C   UNL     1      34.849 -17.897 -23.957  0.00  0.00    +0.069 C 
ATOM      8  C   UNL     1      36.115 -16.169 -22.733  0.00  0.00    +0.069 C 
ATOM      9  C   UNL     1      35.903 -18.442 -21.773  0.00  0.00    +0.140 A 
ATOM     10  C   UNL     1      34.914 -19.286 -21.159  0.00  0.00    +0.040 A 
ATOM     11  C   UNL     1      35.530 -20.146 -20.246  0.00  0.00    +0.050 A 
ATOM     12  C   UNL     1      33.514 -19.372 -21.325  0.00  0.00    +0.003 C 
ATOM     13  C   UNL     1      34.804 -21.084 -19.496  0.00  0.00    +0.008 C 
ATOM     14  C   UNL     1      32.783 -20.303 -20.582  0.00  0.00    +0.000 C 
ATOM     15  C   UNL     1      33.421 -21.148 -19.681  0.00  0.00    +0.001 C 
ATOM     16  H   UNL     1      35.236 -15.544 -25.154  0.00  0.00    -0.080 HD
ENDROOT
BRANCH   2  17
ATOM     17  C   UNL     1      33.526 -14.486 -24.893  0.00  0.00    -0.077 C 
BRANCH  17  18
ATOM     18  C   UNL     1      33.513 -13.313 -23.914  0.00  0.00    -0.021 C 
BRANCH  18  19
ATOM     19  C   UNL     1      34.491 -12.218 -24.351  0.00  0.00    +0.020 C 
BRANCH  19  20
ATOM     20  C   UNL     1      33.783 -10.982 -24.895  0.00  0.00    +0.101 C 
BRANCH  20  23
ATOM     21  O   UNL     1      32.336  -9.291 -22.944  0.00  0.00    -0.274 OA
ATOM     22  O   UNL     1      36.331  -9.576 -25.255  0.00  0.00    -0.274 OA
ATOM     23  N   UNL     1      34.225  -9.762 -24.248  0.00  0.00    -0.230 N 
ATOM     24  C   UNL     1      34.394  -8.007 -22.741  0.00  0.00    +0.086 C 
ATOM     25  C   UNL     1      35.442  -7.816 -23.843  0.00  0.00    +0.086 C 
ATOM     26  C   UNL     1      33.685  -6.747 -22.261  0.00  0.00    +0.010 C 
ATOM     27  C   UNL     1      35.094  -6.740 -24.878  0.00  0.00    +0.010 C 
ATOM     28  C   UNL     1      33.317  -5.793 -23.389  0.00  0.00    +0.001 C 
ATOM     29  C   UNL     1      34.533  -5.474 -24.248  0.00  0.00    +0.001 C 
ATOM     30  C   UNL     1      33.480  -9.072 -23.311  0.00  0.00    +0.231 C 
ATOM     31  C   UNL     1      35.438  -9.163 -24.531  0.00  0.00    +0.231 C 
ENDBRANCH  20  23
ENDBRANCH  19  20
ENDBRANCH  18  19
ENDBRANCH  17  18
ENDBRANCH   2  17
TORSDOF 5
ENDMDL
MODEL 9
REMARK VINA RESULT:     -10.3      4.243     10.198
REMARK  Name = 115368
REMARK  5 active torsions:
REMARK  status: ('A' for Active; 'I' for Inactive)
REMARK    1  A    between atoms: N_2  and  C_17
REMARK    2  A    between atoms: C_17  and  C_18
REMARK    3  A    between atoms: C_18  and  C_19
REMARK    4  A    between atoms: C_19  and  C_20
REMARK    5  A    between atoms: C_20  and  N_23
REMARK                            x       y       z     vdW  Elec       q    Type
REMARK                         _______ _______ _______ _____ _____    ______ ____
ROOT
ATOM      1  S   UNL     1      33.676 -15.207 -25.574  0.00  0.00    +0.014 S 
ATOM      2  N   UNL     1      35.977 -19.707 -21.300  0.00  0.00    +0.389 N 
ATOM      3  N   UNL     1      35.115 -17.619 -23.049  0.00  0.00    -0.297 N 
ATOM      4  N   UNL     1      34.230 -16.680 -25.056  0.00  0.00    -0.194 NA
ATOM      5  C   UNL     1      36.479 -18.338 -21.134  0.00  0.00    -0.055 C 
ATOM      6  C   UNL     1      34.603 -19.684 -21.819  0.00  0.00    -0.055 C 
ATOM      7  C   UNL     1      36.457 -17.574 -22.461  0.00  0.00    +0.069 C 
ATOM      8  C   UNL     1      34.549 -18.967 -23.169  0.00  0.00    +0.069 C 
ATOM      9  C   UNL     1      34.606 -16.568 -23.781  0.00  0.00    +0.140 A 
ATOM     10  C   UNL     1      34.461 -15.276 -23.167  0.00  0.00    +0.040 A 
ATOM     11  C   UNL     1      33.928 -14.373 -24.091  0.00  0.00    +0.050 A 
ATOM     12  C   UNL     1      34.752 -14.812 -21.865  0.00  0.00    +0.003 C 
ATOM     13  C   UNL     1      33.678 -13.032 -23.766  0.00  0.00    +0.008 C 
ATOM     14  C   UNL     1      34.506 -13.478 -21.532  0.00  0.00    +0.000 C 
ATOM     15  C   UNL     1      33.976 -12.600 -22.471  0.00  0.00    +0.001 C 
ATOM     16  H   UNL     1      36.571 -20.193 -21.972  0.00  0.00    -0.080 HD
ENDROOT
BRANCH   2  17
ATOM     17  C   UNL     1      36.036 -20.434 -20.031  0.00  0.00    -0.077 C 
BRANCH  17  18
ATOM     18  C   UNL     1      34.643 -20.917 -19.631  0.00  0.00    -0.021 C 
BRANCH  18  19
ATOM     19  C   UNL     1      34.705 -22.299 -18.973  0.00  0.00    +0.020 C 
BRANCH  19  20
ATOM     20  C   UNL     1      34.909 -22.221 -17.463  0.00  0.00    +0.101 C 
BRANCH  20  23
ATOM     21  O   UNL     1      31.970 -21.913 -17.632  0.00  0.00    -0.274 OA
ATOM     22  O   UNL     1      35.260 -24.286 -15.411  0.00  0.00    -0.274 OA
ATOM     23  N   UNL     1      33.879 -22.930 -16.730  0.00  0.00    -0.230 N 
ATOM     24  C   UNL     1      31.824 -23.821 -16.128  0.00  0.00    +0.086 C 
ATOM     25  C   UNL     1      32.860 -24.206 -15.066  0.00  0.00    +0.086 C 
ATOM     26  C   UNL     1      30.441 -23.442 -15.612  0.00  0.00    +0.010 C 
ATOM     27  C   UNL     1      32.765 -23.408 -13.761  0.00  0.00    +0.010 C 
ATOM     28  C   UNL     1      30.478 -22.582 -14.357  0.00  0.00    +0.001 C 
ATOM     29  C   UNL     1      31.333 -23.232 -13.278  0.00  0.00    +0.001 C 
ATOM     30  C   UNL     1      32.524 -22.738 -16.921  0.00  0.00    +0.231 C 
ATOM     31  C   UNL     1      34.165 -23.859 -15.747  0.00  0.00    +0.231 C 
ENDBRANCH  20  23
ENDBRANCH  19  20
ENDBRANCH  18  19
ENDBRANCH  17  18
ENDBRANCH   2  17
TORSDOF 5
ENDMDL
