MODEL 1
REMARK VINA RESULT:     -12.2      0.000      0.000
REMARK  Name = 25151352
REMARK  5 active torsions:
REMARK  status: ('A' for Active; 'I' for Inactive)
REMARK    1  A    between atoms: N_1  and  C_21
REMARK    2  A    between atoms: C_3  and  C_9
REMARK    3  A    between atoms: C_9  and  C_13
REMARK    4  A    between atoms: C_21  and  C_23
REMARK    5  A    between atoms: C_27  and  C_31
REMARK                            x       y       z     vdW  Elec       q    Type
REMARK                         _______ _______ _______ _____ _____    ______ ____
ROOT
ATOM      1  N   UNL     1      33.587 -21.967 -18.583  0.00  0.00    -0.314 N 
ATOM      2  N   UNL     1      33.552 -20.317 -20.303  0.00  0.00    -0.230 NA
ATOM      3  C   UNL     1      35.635 -19.390 -21.103  0.00  0.00    +0.002 C 
ATOM      4  C   UNL     1      36.342 -20.192 -20.214  0.00  0.00    +0.000 C 
ATOM      5  C   UNL     1      34.254 -19.489 -21.109  0.00  0.00    +0.096 C 
ATOM      6  C   UNL     1      34.273 -21.080 -19.451  0.00  0.00    +0.129 C 
ATOM      7  C   UNL     1      35.656 -21.055 -19.368  0.00  0.00    +0.034 C 
ATOM      8  H   UNL     1      32.605 -22.002 -18.624  0.00  0.00    +0.149 HD
ENDROOT
BRANCH   3   9
ATOM      9  C   UNL     1      36.359 -18.435 -22.042  0.00  0.00    +0.056 C 
BRANCH   9  13
ATOM     10 CL   UNL     1      34.562 -12.822 -22.774  0.00  0.00    -0.081 Cl
ATOM     11  N   UNL     1      34.452 -18.082 -25.143  0.00  0.00    -0.297 N 
ATOM     12  N   UNL     1      33.773 -15.780 -25.345  0.00  0.00    -0.228 NA
ATOM     13  C   UNL     1      35.568 -18.020 -23.219  0.00  0.00    -0.000 C 
ATOM     14  C   UNL     1      35.086 -16.714 -23.496  0.00  0.00    +0.030 C 
ATOM     15  C   UNL     1      34.396 -16.786 -24.703  0.00  0.00    +0.132 C 
ATOM     16  C   UNL     1      35.162 -18.841 -24.249  0.00  0.00    +0.059 C 
ATOM     17  C   UNL     1      35.152 -15.462 -22.863  0.00  0.00    +0.015 C 
ATOM     18  C   UNL     1      34.524 -14.384 -23.486  0.00  0.00    +0.077 C 
ATOM     19  C   UNL     1      33.868 -14.599 -24.691  0.00  0.00    +0.112 C 
ATOM     20  H   UNL     1      34.046 -18.417 -25.974  0.00  0.00    +0.154 HD
ENDBRANCH   9  13
ENDBRANCH   3   9
BRANCH   1  21
ATOM     21  C   UNL     1      34.264 -22.810 -17.654  0.00  0.00    +0.117 C 
BRANCH  21  23
ATOM     22  N   UNL     1      33.058 -24.214 -14.354  0.00  0.00    -0.240 NA
ATOM     23  C   UNL     1      33.346 -23.197 -16.528  0.00  0.00    +0.017 C 
ATOM     24  C   UNL     1      31.983 -22.922 -16.587  0.00  0.00    +0.000 C 
ATOM     25  C   UNL     1      33.828 -23.839 -15.399  0.00  0.00    +0.096 C 
ATOM     26  C   UNL     1      31.159 -23.293 -15.531  0.00  0.00    +0.023 C 
ATOM     27  C   UNL     1      31.740 -23.930 -14.447  0.00  0.00    +0.153 C 
BRANCH  27  31
ATOM     28  F   UNL     1      30.672 -23.343 -12.388  0.00  0.00    -0.164 F 
ATOM     29  F   UNL     1      29.637 -24.761 -13.663  0.00  0.00    -0.164 F 
ATOM     30  F   UNL     1      31.423 -25.374 -12.584  0.00  0.00    -0.164 F 
ATOM     31  C   UNL     1      30.884 -24.341 -13.295  0.00  0.00    +0.435 C 
ENDBRANCH  27  31
ENDBRANCH  21  23
ENDBRANCH   1  21
TORSDOF 5
ENDMDL
MODEL 2
REMARK VINA RESULT:     -11.9      7.826     12.542
REMARK  Name = 25151352
REMARK  5 active torsions:
REMARK  status: ('A' for Active; 'I' for Inactive)
REMARK    1  A    between atoms: N_1  and  C_21
REMARK    2  A    between atoms: C_3  and  C_9
REMARK    3  A    between atoms: C_9  and  C_13
REMARK    4  A    between atoms: C_21  and  C_23
REMARK    5  A    between atoms: C_27  and  C_31
REMARK                            x       y       z     vdW  Elec       q    Type
REMARK                         _______ _______ _______ _____ _____    ______ ____
ROOT
ATOM      1  N   UNL     1      34.536 -12.488 -23.269  0.00  0.00    -0.314 N 
ATOM      2  N   UNL     1      34.949 -14.517 -22.089  0.00  0.00    -0.230 NA
ATOM      3  C   UNL     1      34.980 -16.610 -23.299  0.00  0.00    +0.002 C 
ATOM      4  C   UNL     1      34.714 -15.936 -24.486  0.00  0.00    +0.000 C 
ATOM      5  C   UNL     1      35.087 -15.861 -22.138  0.00  0.00    +0.096 C 
ATOM      6  C   UNL     1      34.690 -13.897 -23.262  0.00  0.00    +0.129 C 
ATOM      7  C   UNL     1      34.565 -14.554 -24.476  0.00  0.00    +0.034 C 
ATOM      8  H   UNL     1      34.621 -12.000 -22.418  0.00  0.00    +0.149 HD
ENDROOT
BRANCH   3   9
ATOM      9  C   UNL     1      35.150 -18.121 -23.277  0.00  0.00    +0.056 C 
BRANCH   9  13
ATOM     10 CL   UNL     1      33.200 -21.787 -19.030  0.00  0.00    -0.081 Cl
ATOM     11  N   UNL     1      37.851 -18.971 -20.964  0.00  0.00    -0.297 N 
ATOM     12  N   UNL     1      36.961 -20.455 -19.287  0.00  0.00    -0.228 NA
ATOM     13  C   UNL     1      36.043 -18.621 -22.212  0.00  0.00    -0.000 C 
ATOM     14  C   UNL     1      35.689 -19.495 -21.151  0.00  0.00    +0.030 C 
ATOM     15  C   UNL     1      36.838 -19.694 -20.392  0.00  0.00    +0.132 C 
ATOM     16  C   UNL     1      37.380 -18.315 -22.071  0.00  0.00    +0.059 C 
ATOM     17  C   UNL     1      34.518 -20.151 -20.737  0.00  0.00    +0.015 C 
ATOM     18  C   UNL     1      34.590 -20.952 -19.599  0.00  0.00    +0.077 C 
ATOM     19  C   UNL     1      35.804 -21.062 -18.934  0.00  0.00    +0.112 C 
ATOM     20  H   UNL     1      38.777 -18.930 -20.631  0.00  0.00    +0.154 HD
ENDBRANCH   9  13
ENDBRANCH   3   9
BRANCH   1  21
ATOM     21  C   UNL     1      34.264 -11.749 -24.458  0.00  0.00    +0.117 C 
BRANCH  21  23
ATOM     22  N   UNL     1      32.914  -8.395 -23.342  0.00  0.00    -0.240 NA
ATOM     23  C   UNL     1      34.192 -10.278 -24.159  0.00  0.00    +0.017 C 
ATOM     24  C   UNL     1      35.278  -9.443 -24.404  0.00  0.00    +0.000 C 
ATOM     25  C   UNL     1      33.044  -9.709 -23.632  0.00  0.00    +0.096 C 
ATOM     26  C   UNL     1      35.182  -8.085 -24.118  0.00  0.00    +0.023 C 
ATOM     27  C   UNL     1      33.989  -7.616 -23.592  0.00  0.00    +0.153 C 
BRANCH  27  31
ATOM     28  F   UNL     1      32.717  -5.599 -23.779  0.00  0.00    -0.164 F 
ATOM     29  F   UNL     1      33.817  -5.900 -21.934  0.00  0.00    -0.164 F 
ATOM     30  F   UNL     1      34.884  -5.419 -23.767  0.00  0.00    -0.164 F 
ATOM     31  C   UNL     1      33.852  -6.164 -23.273  0.00  0.00    +0.435 C 
ENDBRANCH  27  31
ENDBRANCH  21  23
ENDBRANCH   1  21
TORSDOF 5
ENDMDL
MODEL 3
REMARK VINA RESULT:     -11.5      4.018      6.769
REMARK  Name = 25151352
REMARK  5 active torsions:
REMARK  status: ('A' for Active; 'I' for Inactive)
REMARK    1  A    between atoms: N_1  and  C_21
REMARK    2  A    between atoms: C_3  and  C_9
REMARK    3  A    between atoms: C_9  and  C_13
REMARK    4  A    between atoms: C_21  and  C_23
REMARK    5  A    between atoms: C_27  and  C_31
REMARK                            x       y       z     vdW  Elec       q    Type
REMARK                         _______ _______ _______ _____ _____    ______ ____
ROOT
ATOM      1  N   UNL     1      36.061 -17.635 -23.305  0.00  0.00    -0.314 N 
ATOM      2  N   UNL     1      34.616 -16.263 -24.612  0.00  0.00    -0.230 NA
ATOM      3  C   UNL     1      33.827 -14.165 -23.705  0.00  0.00    +0.002 C 
ATOM      4  C   UNL     1      34.537 -14.397 -22.532  0.00  0.00    +0.000 C 
ATOM      5  C   UNL     1      33.899 -15.120 -24.706  0.00  0.00    +0.096 C 
ATOM      6  C   UNL     1      35.292 -16.454 -23.457  0.00  0.00    +0.129 C 
ATOM      7  C   UNL     1      35.285 -15.561 -22.397  0.00  0.00    +0.034 C 
ATOM      8  H   UNL     1      36.080 -18.284 -24.044  0.00  0.00    +0.149 HD
ENDROOT
BRANCH   3   9
ATOM      9  C   UNL     1      33.000 -12.901 -23.883  0.00  0.00    +0.056 C 
BRANCH   9  13
ATOM     10 CL   UNL     1      31.880  -7.763 -21.122  0.00  0.00    -0.081 Cl
ATOM     11  N   UNL     1      35.316 -10.300 -25.001  0.00  0.00    -0.297 N 
ATOM     12  N   UNL     1      34.780  -8.266 -23.828  0.00  0.00    -0.228 NA
ATOM     13  C   UNL     1      33.794 -11.684 -24.153  0.00  0.00    -0.000 C 
ATOM     14  C   UNL     1      33.617 -10.409 -23.556  0.00  0.00    +0.030 C 
ATOM     15  C   UNL     1      34.581  -9.569 -24.106  0.00  0.00    +0.132 C 
ATOM     16  C   UNL     1      34.846 -11.588 -25.038  0.00  0.00    +0.059 C 
ATOM     17  C   UNL     1      32.745  -9.856 -22.604  0.00  0.00    +0.015 C 
ATOM     18  C   UNL     1      32.907  -8.510 -22.278  0.00  0.00    +0.077 C 
ATOM     19  C   UNL     1      33.912  -7.787 -22.906  0.00  0.00    +0.112 C 
ATOM     20  H   UNL     1      36.066  -9.955 -25.536  0.00  0.00    +0.154 HD
ENDBRANCH   9  13
ENDBRANCH   3   9
BRANCH   1  21
ATOM     21  C   UNL     1      36.806 -17.921 -22.123  0.00  0.00    +0.117 C 
BRANCH  21  23
ATOM     22  N   UNL     1      36.192 -20.637 -19.561  0.00  0.00    -0.240 NA
ATOM     23  C   UNL     1      36.091 -18.944 -21.284  0.00  0.00    +0.017 C 
ATOM     24  C   UNL     1      34.724 -19.158 -21.425  0.00  0.00    +0.000 C 
ATOM     25  C   UNL     1      36.772 -19.702 -20.346  0.00  0.00    +0.096 C 
ATOM     26  C   UNL     1      34.091 -20.112 -20.635  0.00  0.00    +0.023 C 
ATOM     27  C   UNL     1      34.862 -20.818 -19.727  0.00  0.00    +0.153 C 
BRANCH  27  31
ATOM     28  F   UNL     1      34.903 -22.108 -17.713  0.00  0.00    -0.164 F 
ATOM     29  F   UNL     1      32.956 -21.508 -18.456  0.00  0.00    -0.164 F 
ATOM     30  F   UNL     1      34.083 -23.052 -19.492  0.00  0.00    -0.164 F 
ATOM     31  C   UNL     1      34.214 -21.848 -18.863  0.00  0.00    +0.435 C 
ENDBRANCH  27  31
ENDBRANCH  21  23
ENDBRANCH   1  21
TORSDOF 5
ENDMDL
MODEL 4
REMARK VINA RESULT:     -11.3      3.913      6.462
REMARK  Name = 25151352
REMARK  5 active torsions:
REMARK  status: ('A' for Active; 'I' for Inactive)
REMARK    1  A    between atoms: N_1  and  C_21
REMARK    2  A    between atoms: C_3  and  C_9
REMARK    3  A    between atoms: C_9  and  C_13
REMARK    4  A    between atoms: C_21  and  C_23
REMARK    5  A    between atoms: C_27  and  C_31
REMARK                            x       y       z     vdW  Elec       q    Type
REMARK                         _______ _______ _______ _____ _____    ______ ____
ROOT
ATOM      1  N   UNL     1      35.856 -18.092 -23.132  0.00  0.00    -0.314 N 
ATOM      2  N   UNL     1      34.575 -16.610 -24.490  0.00  0.00    -0.230 NA
ATOM      3  C   UNL     1      34.229 -14.331 -23.762  0.00  0.00    +0.002 C 
ATOM      4  C   UNL     1      34.975 -14.577 -22.614  0.00  0.00    +0.000 C 
ATOM      5  C   UNL     1      34.060 -15.372 -24.661  0.00  0.00    +0.096 C 
ATOM      6  C   UNL     1      35.293 -16.812 -23.362  0.00  0.00    +0.129 C 
ATOM      7  C   UNL     1      35.520 -15.838 -22.403  0.00  0.00    +0.034 C 
ATOM      8  H   UNL     1      35.708 -18.800 -23.800  0.00  0.00    +0.149 HD
ENDROOT
BRANCH   3   9
ATOM      9  C   UNL     1      33.621 -12.961 -24.023  0.00  0.00    +0.056 C 
BRANCH   9  13
ATOM     10 CL   UNL     1      33.224  -7.084 -23.268  0.00  0.00    -0.081 Cl
ATOM     11  N   UNL     1      31.773 -12.172 -20.967  0.00  0.00    -0.297 N 
ATOM     12  N   UNL     1      31.669  -9.775 -20.754  0.00  0.00    -0.228 NA
ATOM     13  C   UNL     1      32.921 -12.373 -22.862  0.00  0.00    -0.000 C 
ATOM     14  C   UNL     1      32.766 -10.990 -22.580  0.00  0.00    +0.030 C 
ATOM     15  C   UNL     1      32.045 -10.899 -21.393  0.00  0.00    +0.132 C 
ATOM     16  C   UNL     1      32.301 -13.076 -21.852  0.00  0.00    +0.059 C 
ATOM     17  C   UNL     1      33.152  -9.788 -23.196  0.00  0.00    +0.015 C 
ATOM     18  C   UNL     1      32.788  -8.594 -22.576  0.00  0.00    +0.077 C 
ATOM     19  C   UNL     1      32.068  -8.649 -21.390  0.00  0.00    +0.112 C 
ATOM     20  H   UNL     1      31.275 -12.403 -20.151  0.00  0.00    +0.154 HD
ENDBRANCH   9  13
ENDBRANCH   3   9
BRANCH   1  21
ATOM     21  C   UNL     1      36.628 -18.396 -21.972  0.00  0.00    +0.117 C 
BRANCH  21  23
ATOM     22  N   UNL     1      35.968 -21.070 -19.377  0.00  0.00    -0.240 NA
ATOM     23  C   UNL     1      35.890 -19.362 -21.087  0.00  0.00    +0.017 C 
ATOM     24  C   UNL     1      34.503 -19.462 -21.134  0.00  0.00    +0.000 C 
ATOM     25  C   UNL     1      36.569 -20.181 -20.199  0.00  0.00    +0.096 C 
ATOM     26  C   UNL     1      33.849 -20.365 -20.303  0.00  0.00    +0.023 C 
ATOM     27  C   UNL     1      34.620 -21.138 -19.451  0.00  0.00    +0.153 C 
BRANCH  27  31
ATOM     28  F   UNL     1      34.615 -22.319 -17.370  0.00  0.00    -0.164 F 
ATOM     29  F   UNL     1      32.686 -21.750 -18.182  0.00  0.00    -0.164 F 
ATOM     30  F   UNL     1      33.824 -23.354 -19.111  0.00  0.00    -0.164 F 
ATOM     31  C   UNL     1      33.950 -22.118 -18.545  0.00  0.00    +0.435 C 
ENDBRANCH  27  31
ENDBRANCH  21  23
ENDBRANCH   1  21
TORSDOF 5
ENDMDL
MODEL 5
REMARK VINA RESULT:     -11.2      7.642     11.756
REMARK  Name = 25151352
REMARK  5 active torsions:
REMARK  status: ('A' for Active; 'I' for Inactive)
REMARK    1  A    between atoms: N_1  and  C_21
REMARK    2  A    between atoms: C_3  and  C_9
REMARK    3  A    between atoms: C_9  and  C_13
REMARK    4  A    between atoms: C_21  and  C_23
REMARK    5  A    between atoms: C_27  and  C_31
REMARK                            x       y       z     vdW  Elec       q    Type
REMARK                         _______ _______ _______ _____ _____    ______ ____
ROOT
ATOM      1  N   UNL     1      33.303 -12.260 -24.359  0.00  0.00    -0.314 N 
ATOM      2  N   UNL     1      33.330 -10.161 -23.230  0.00  0.00    -0.230 NA
ATOM      3  C   UNL     1      35.001  -8.516 -23.819  0.00  0.00    +0.002 C 
ATOM      4  C   UNL     1      35.530  -9.383 -24.769  0.00  0.00    +0.000 C 
ATOM      5  C   UNL     1      33.911  -8.949 -23.082  0.00  0.00    +0.096 C 
ATOM      6  C   UNL     1      33.873 -10.976 -24.162  0.00  0.00    +0.129 C 
ATOM      7  C   UNL     1      34.961 -10.639 -24.950  0.00  0.00    +0.034 C 
ATOM      8  H   UNL     1      32.529 -12.521 -23.811  0.00  0.00    +0.149 HD
ENDROOT
BRANCH   3   9
ATOM      9  C   UNL     1      35.601  -7.135 -23.599  0.00  0.00    +0.056 C 
BRANCH   9  13
ATOM     10 CL   UNL     1      30.741  -4.703 -21.205  0.00  0.00    -0.081 Cl
ATOM     11  N   UNL     1      34.286  -4.489 -25.752  0.00  0.00    -0.297 N 
ATOM     12  N   UNL     1      32.325  -3.571 -24.697  0.00  0.00    -0.228 NA
ATOM     13  C   UNL     1      34.871  -6.039 -24.268  0.00  0.00    -0.000 C 
ATOM     14  C   UNL     1      33.704  -5.386 -23.792  0.00  0.00    +0.030 C 
ATOM     15  C   UNL     1      33.366  -4.424 -24.740  0.00  0.00    +0.132 C 
ATOM     16  C   UNL     1      35.206  -5.466 -25.476  0.00  0.00    +0.059 C 
ATOM     17  C   UNL     1      32.883  -5.493 -22.658  0.00  0.00    +0.015 C 
ATOM     18  C   UNL     1      31.791  -4.632 -22.562  0.00  0.00    +0.077 C 
ATOM     19  C   UNL     1      31.568  -3.719 -23.584  0.00  0.00    +0.112 C 
ATOM     20  H   UNL     1      34.287  -3.919 -26.555  0.00  0.00    +0.154 HD
ENDBRANCH   9  13
ENDBRANCH   3   9
BRANCH   1  21
ATOM     21  C   UNL     1      33.807 -13.185 -25.319  0.00  0.00    +0.117 C 
BRANCH  21  23
ATOM     22  N   UNL     1      34.273 -16.884 -24.673  0.00  0.00    -0.240 NA
ATOM     23  C   UNL     1      34.217 -14.467 -24.649  0.00  0.00    +0.017 C 
ATOM     24  C   UNL     1      34.895 -14.457 -23.434  0.00  0.00    +0.000 C 
ATOM     25  C   UNL     1      33.933 -15.697 -25.222  0.00  0.00    +0.096 C 
ATOM     26  C   UNL     1      35.261 -15.659 -22.838  0.00  0.00    +0.023 C 
ATOM     27  C   UNL     1      34.930 -16.834 -23.492  0.00  0.00    +0.153 C 
BRANCH  27  31
ATOM     28  F   UNL     1      35.271 -18.139 -21.517  0.00  0.00    -0.164 F 
ATOM     29  F   UNL     1      34.499 -19.176 -23.258  0.00  0.00    -0.164 F 
ATOM     30  F   UNL     1      36.575 -18.529 -23.212  0.00  0.00    -0.164 F 
ATOM     31  C   UNL     1      35.308 -18.142 -22.882  0.00  0.00    +0.435 C 
ENDBRANCH  27  31
ENDBRANCH  21  23
ENDBRANCH   1  21
TORSDOF 5
ENDMDL
MODEL 6
REMARK VINA RESULT:     -11.1      2.728      3.561
REMARK  Name = 25151352
REMARK  5 active torsions:
REMARK  status: ('A' for Active; 'I' for Inactive)
REMARK    1  A    between atoms: N_1  and  C_21
REMARK    2  A    between atoms: C_3  and  C_9
REMARK    3  A    between atoms: C_9  and  C_13
REMARK    4  A    between atoms: C_21  and  C_23
REMARK    5  A    between atoms: C_27  and  C_31
REMARK                            x       y       z     vdW  Elec       q    Type
REMARK                         _______ _______ _______ _____ _____    ______ ____
ROOT
ATOM      1  N   UNL     1      36.177 -21.112 -19.092  0.00  0.00    -0.314 N 
ATOM      2  N   UNL     1      37.056 -19.388 -20.483  0.00  0.00    -0.230 NA
ATOM      3  C   UNL     1      35.613 -18.311 -22.096  0.00  0.00    +0.002 C 
ATOM      4  C   UNL     1      34.551 -19.113 -21.691  0.00  0.00    +0.000 C 
ATOM      5  C   UNL     1      36.834 -18.486 -21.465  0.00  0.00    +0.096 C 
ATOM      6  C   UNL     1      36.001 -20.150 -20.118  0.00  0.00    +0.129 C 
ATOM      7  C   UNL     1      34.740 -20.053 -20.685  0.00  0.00    +0.034 C 
ATOM      8  H   UNL     1      37.064 -21.200 -18.674  0.00  0.00    +0.149 HD
ENDROOT
BRANCH   3   9
ATOM      9  C   UNL     1      35.437 -17.273 -23.194  0.00  0.00    +0.056 C 
BRANCH   9  13
ATOM     10 CL   UNL     1      33.331 -13.113 -26.873  0.00  0.00    -0.081 Cl
ATOM     11  N   UNL     1      34.674 -14.198 -21.367  0.00  0.00    -0.297 N 
ATOM     12  N   UNL     1      33.831 -12.582 -22.942  0.00  0.00    -0.228 NA
ATOM     13  C   UNL     1      35.049 -15.932 -22.709  0.00  0.00    -0.000 C 
ATOM     14  C   UNL     1      34.537 -14.865 -23.494  0.00  0.00    +0.030 C 
ATOM     15  C   UNL     1      34.313 -13.799 -22.627  0.00  0.00    +0.132 C 
ATOM     16  C   UNL     1      35.122 -15.492 -21.405  0.00  0.00    +0.059 C 
ATOM     17  C   UNL     1      34.232 -14.670 -24.851  0.00  0.00    +0.015 C 
ATOM     18  C   UNL     1      33.728 -13.427 -25.232  0.00  0.00    +0.077 C 
ATOM     19  C   UNL     1      33.555 -12.450 -24.261  0.00  0.00    +0.112 C 
ATOM     20  H   UNL     1      34.619 -13.640 -20.558  0.00  0.00    +0.154 HD
ENDBRANCH   9  13
ENDBRANCH   3   9
BRANCH   1  21
ATOM     21  C   UNL     1      35.122 -21.959 -18.641  0.00  0.00    +0.117 C 
BRANCH  21  23
ATOM     22  N   UNL     1      34.505 -23.408 -15.201  0.00  0.00    -0.240 NA
ATOM     23  C   UNL     1      35.356 -22.380 -17.217  0.00  0.00    +0.017 C 
ATOM     24  C   UNL     1      36.579 -22.154 -16.594  0.00  0.00    +0.000 C 
ATOM     25  C   UNL     1      34.361 -23.005 -16.483  0.00  0.00    +0.096 C 
ATOM     26  C   UNL     1      36.765 -22.554 -15.275  0.00  0.00    +0.023 C 
ATOM     27  C   UNL     1      35.707 -23.172 -14.629  0.00  0.00    +0.153 C 
BRANCH  27  31
ATOM     28  F   UNL     1      36.757 -22.855 -12.503  0.00  0.00    -0.164 F 
ATOM     29  F   UNL     1      34.715 -23.583 -12.491  0.00  0.00    -0.164 F 
ATOM     30  F   UNL     1      36.331 -24.897 -13.115  0.00  0.00    -0.164 F 
ATOM     31  C   UNL     1      35.873 -23.615 -13.214  0.00  0.00    +0.435 C 
ENDBRANCH  27  31
ENDBRANCH  21  23
ENDBRANCH   1  21
TORSDOF 5
ENDMDL
MODEL 7
REMARK VINA RESULT:     -11.0      6.331     11.234
REMARK  Name = 25151352
REMARK  5 active torsions:
REMARK  status: ('A' for Active; 'I' for Inactive)
REMARK    1  A    between atoms: N_1  and  C_21
REMARK    2  A    between atoms: C_3  and  C_9
REMARK    3  A    between atoms: C_9  and  C_13
REMARK    4  A    between atoms: C_21  and  C_23
REMARK    5  A    between atoms: C_27  and  C_31
REMARK                            x       y       z     vdW  Elec       q    Type
REMARK                         _______ _______ _______ _____ _____    ______ ____
ROOT
ATOM      1  N   UNL     1      35.165 -21.353 -19.513  0.00  0.00    -0.314 N 
ATOM      2  N   UNL     1      33.985 -22.751 -17.985  0.00  0.00    -0.230 NA
ATOM      3  C   UNL     1      34.955 -23.236 -15.825  0.00  0.00    +0.002 C 
ATOM      4  C   UNL     1      36.064 -22.458 -16.140  0.00  0.00    +0.000 C 
ATOM      5  C   UNL     1      33.951 -23.350 -16.774  0.00  0.00    +0.096 C 
ATOM      6  C   UNL     1      35.078 -22.004 -18.256  0.00  0.00    +0.129 C 
ATOM      7  C   UNL     1      36.135 -21.827 -17.377  0.00  0.00    +0.034 C 
ATOM      8  H   UNL     1      34.427 -21.465 -20.154  0.00  0.00    +0.149 HD
ENDROOT
BRANCH   3   9
ATOM      9  C   UNL     1      34.848 -23.938 -14.479  0.00  0.00    +0.056 C 
BRANCH   9  13
ATOM     10 CL   UNL     1      39.447 -27.461 -15.788  0.00  0.00    -0.081 Cl
ATOM     11  N   UNL     1      37.594 -23.407 -12.124  0.00  0.00    -0.297 N 
ATOM     12  N   UNL     1      39.402 -24.876 -12.739  0.00  0.00    -0.228 NA
ATOM     13  C   UNL     1      36.091 -23.921 -13.681  0.00  0.00    -0.000 C 
ATOM     14  C   UNL     1      37.247 -24.715 -13.899  0.00  0.00    +0.030 C 
ATOM     15  C   UNL     1      38.166 -24.370 -12.913  0.00  0.00    +0.132 C 
ATOM     16  C   UNL     1      36.333 -23.126 -12.581  0.00  0.00    +0.059 C 
ATOM     17  C   UNL     1      37.633 -25.697 -14.827  0.00  0.00    +0.015 C 
ATOM     18  C   UNL     1      38.903 -26.254 -14.693  0.00  0.00    +0.077 C 
ATOM     19  C   UNL     1      39.719 -25.817 -13.658  0.00  0.00    +0.112 C 
ATOM     20  H   UNL     1      38.023 -22.981 -11.348  0.00  0.00    +0.154 HD
ENDBRANCH   9  13
ENDBRANCH   3   9
BRANCH   1  21
ATOM     21  C   UNL     1      36.279 -20.545 -19.885  0.00  0.00    +0.117 C 
BRANCH  21  23
ATOM     22  N   UNL     1      34.260 -18.883 -22.619  0.00  0.00    -0.240 NA
ATOM     23  C   UNL     1      35.905 -19.616 -21.006  0.00  0.00    +0.017 C 
ATOM     24  C   UNL     1      36.798 -18.656 -21.471  0.00  0.00    +0.000 C 
ATOM     25  C   UNL     1      34.659 -19.687 -21.608  0.00  0.00    +0.096 C 
ATOM     26  C   UNL     1      36.423 -17.811 -22.510  0.00  0.00    +0.023 C 
ATOM     27  C   UNL     1      35.155 -17.963 -23.044  0.00  0.00    +0.153 C 
BRANCH  27  31
ATOM     28  F   UNL     1      35.709 -16.800 -25.060  0.00  0.00    -0.164 F 
ATOM     29  F   UNL     1      33.693 -17.585 -24.901  0.00  0.00    -0.164 F 
ATOM     30  F   UNL     1      34.281 -15.856 -23.719  0.00  0.00    -0.164 F 
ATOM     31  C   UNL     1      34.719 -17.072 -24.159  0.00  0.00    +0.435 C 
ENDBRANCH  27  31
ENDBRANCH  21  23
ENDBRANCH   1  21
TORSDOF 5
ENDMDL
MODEL 8
REMARK VINA RESULT:     -11.0      7.894     12.055
REMARK  Name = 25151352
REMARK  5 active torsions:
REMARK  status: ('A' for Active; 'I' for Inactive)
REMARK    1  A    between atoms: N_1  and  C_21
REMARK    2  A    between atoms: C_3  and  C_9
REMARK    3  A    between atoms: C_9  and  C_13
REMARK    4  A    between atoms: C_21  and  C_23
REMARK    5  A    between atoms: C_27  and  C_31
REMARK                            x       y       z     vdW  Elec       q    Type
REMARK                         _______ _______ _______ _____ _____    ______ ____
ROOT
ATOM      1  N   UNL     1      34.446 -12.112 -25.272  0.00  0.00    -0.314 N 
ATOM      2  N   UNL     1      35.643 -10.053 -25.176  0.00  0.00    -0.230 NA
ATOM      3  C   UNL     1      34.883  -8.305 -23.689  0.00  0.00    +0.002 C 
ATOM      4  C   UNL     1      33.833  -9.112 -23.265  0.00  0.00    +0.000 C 
ATOM      5  C   UNL     1      35.753  -8.818 -24.637  0.00  0.00    +0.096 C 
ATOM      6  C   UNL     1      34.609 -10.808 -24.741  0.00  0.00    +0.129 C 
ATOM      7  C   UNL     1      33.686 -10.388 -23.796  0.00  0.00    +0.034 C 
ATOM      8  H   UNL     1      35.089 -12.431 -25.944  0.00  0.00    +0.149 HD
ENDROOT
BRANCH   3   9
ATOM      9  C   UNL     1      35.072  -6.905 -23.125  0.00  0.00    +0.056 C 
BRANCH   9  13
ATOM     10 CL   UNL     1      36.508  -4.451 -28.339  0.00  0.00    -0.081 Cl
ATOM     11  N   UNL     1      32.568  -4.433 -24.123  0.00  0.00    -0.297 N 
ATOM     12  N   UNL     1      33.240  -3.501 -26.240  0.00  0.00    -0.228 NA
ATOM     13  C   UNL     1      34.224  -5.873 -23.757  0.00  0.00    -0.000 C 
ATOM     14  C   UNL     1      34.468  -5.219 -24.993  0.00  0.00    +0.030 C 
ATOM     15  C   UNL     1      33.417  -4.329 -25.193  0.00  0.00    +0.132 C 
ATOM     16  C   UNL     1      33.049  -5.368 -23.244  0.00  0.00    +0.059 C 
ATOM     17  C   UNL     1      35.464  -5.276 -25.982  0.00  0.00    +0.015 C 
ATOM     18  C   UNL     1      35.330  -4.439 -27.088  0.00  0.00    +0.077 C 
ATOM     19  C   UNL     1      34.229  -3.596 -27.159  0.00  0.00    +0.112 C 
ATOM     20  H   UNL     1      31.739  -3.917 -24.004  0.00  0.00    +0.154 HD
ENDBRANCH   9  13
ENDBRANCH   3   9
BRANCH   1  21
ATOM     21  C   UNL     1      33.387 -12.979 -24.872  0.00  0.00    +0.117 C 
BRANCH  21  23
ATOM     22  N   UNL     1      34.080 -16.698 -24.922  0.00  0.00    -0.240 NA
ATOM     23  C   UNL     1      33.928 -14.326 -24.480  0.00  0.00    +0.017 C 
ATOM     24  C   UNL     1      34.746 -14.474 -23.365  0.00  0.00    +0.000 C 
ATOM     25  C   UNL     1      33.628 -15.459 -25.218  0.00  0.00    +0.096 C 
ATOM     26  C   UNL     1      35.231 -15.733 -23.028  0.00  0.00    +0.023 C 
ATOM     27  C   UNL     1      34.872 -16.802 -23.831  0.00  0.00    +0.153 C 
BRANCH  27  31
ATOM     28  F   UNL     1      34.827 -18.690 -22.363  0.00  0.00    -0.164 F 
ATOM     29  F   UNL     1      35.130 -19.093 -24.472  0.00  0.00    -0.164 F 
ATOM     30  F   UNL     1      36.726 -18.195 -23.299  0.00  0.00    -0.164 F 
ATOM     31  C   UNL     1      35.375 -18.168 -23.499  0.00  0.00    +0.435 C 
ENDBRANCH  27  31
ENDBRANCH  21  23
ENDBRANCH   1  21
TORSDOF 5
ENDMDL
MODEL 9
REMARK VINA RESULT:     -10.7      5.959     10.757
REMARK  Name = 25151352
REMARK  5 active torsions:
REMARK  status: ('A' for Active; 'I' for Inactive)
REMARK    1  A    between atoms: N_1  and  C_21
REMARK    2  A    between atoms: C_3  and  C_9
REMARK    3  A    between atoms: C_9  and  C_13
REMARK    4  A    between atoms: C_21  and  C_23
REMARK    5  A    between atoms: C_27  and  C_31
REMARK                            x       y       z     vdW  Elec       q    Type
REMARK                         _______ _______ _______ _____ _____    ______ ____
ROOT
ATOM      1  N   UNL     1      34.277 -18.950 -21.370  0.00  0.00    -0.314 N 
ATOM      2  N   UNL     1      33.106 -20.662 -20.195  0.00  0.00    -0.230 NA
ATOM      3  C   UNL     1      34.345 -22.234 -18.839  0.00  0.00    +0.002 C 
ATOM      4  C   UNL     1      35.536 -21.601 -19.181  0.00  0.00    +0.000 C 
ATOM      5  C   UNL     1      33.168 -21.730 -19.368  0.00  0.00    +0.096 C 
ATOM      6  C   UNL     1      34.284 -20.075 -20.506  0.00  0.00    +0.129 C 
ATOM      7  C   UNL     1      35.513 -20.501 -20.031  0.00  0.00    +0.034 C 
ATOM      8  H   UNL     1      33.416 -18.630 -21.721  0.00  0.00    +0.149 HD
ENDROOT
BRANCH   3   9
ATOM      9  C   UNL     1      34.337 -23.439 -17.911  0.00  0.00    +0.056 C 
BRANCH   9  13
ATOM     10 CL   UNL     1      28.624 -23.358 -16.289  0.00  0.00    -0.081 Cl
ATOM     11  N   UNL     1      34.013 -22.631 -14.359  0.00  0.00    -0.297 N 
ATOM     12  N   UNL     1      31.669 -22.623 -13.804  0.00  0.00    -0.228 NA
ATOM     13  C   UNL     1      33.928 -23.139 -16.523  0.00  0.00    -0.000 C 
ATOM     14  C   UNL     1      32.599 -23.091 -16.025  0.00  0.00    +0.030 C 
ATOM     15  C   UNL     1      32.687 -22.773 -14.673  0.00  0.00    +0.132 C 
ATOM     16  C   UNL     1      34.777 -22.851 -15.476  0.00  0.00    +0.059 C 
ATOM     17  C   UNL     1      31.316 -23.282 -16.562  0.00  0.00    +0.015 C 
ATOM     18  C   UNL     1      30.225 -23.139 -15.706  0.00  0.00    +0.077 C 
ATOM     19  C   UNL     1      30.457 -22.817 -14.376  0.00  0.00    +0.112 C 
ATOM     20  H   UNL     1      34.364 -22.406 -13.468  0.00  0.00    +0.154 HD
ENDBRANCH   9  13
ENDBRANCH   3   9
BRANCH   1  21
ATOM     21  C   UNL     1      35.469 -18.267 -21.752  0.00  0.00    +0.117 C 
BRANCH  21  23
ATOM     22  N   UNL     1      34.718 -14.566 -21.982  0.00  0.00    -0.240 NA
ATOM     23  C   UNL     1      35.141 -16.920 -22.334  0.00  0.00    +0.017 C 
ATOM     24  C   UNL     1      34.957 -16.756 -23.703  0.00  0.00    +0.000 C 
ATOM     25  C   UNL     1      35.012 -15.803 -21.524  0.00  0.00    +0.096 C 
ATOM     26  C   UNL     1      34.653 -15.498 -24.212  0.00  0.00    +0.023 C 
ATOM     27  C   UNL     1      34.546 -14.445 -23.318  0.00  0.00    +0.153 C 
BRANCH  27  31
ATOM     28  F   UNL     1      35.108 -12.122 -23.429  0.00  0.00    -0.164 F 
ATOM     29  F   UNL     1      34.201 -13.000 -25.193  0.00  0.00    -0.164 F 
ATOM     30  F   UNL     1      32.997 -12.644 -23.418  0.00  0.00    -0.164 F 
ATOM     31  C   UNL     1      34.222 -13.081 -23.830  0.00  0.00    +0.435 C 
ENDBRANCH  27  31
ENDBRANCH  21  23
ENDBRANCH   1  21
TORSDOF 5
ENDMDL
