MODEL 1
REMARK VINA RESULT:     -11.2      0.000      0.000
REMARK  Name = 42627755
REMARK  2 active torsions:
REMARK  status: ('A' for Active; 'I' for Inactive)
REMARK    1  A    between atoms: N_5  and  C_20
REMARK    2  A    between atoms: C_7  and  C_28
REMARK                            x       y       z     vdW  Elec       q    Type
REMARK                         _______ _______ _______ _____ _____    ______ ____
ROOT
ATOM      1  N   UNL     1      35.600 -21.524 -19.052  0.00  0.00    -0.239 N 
ATOM      2  N   UNL     1      34.859 -22.111 -18.097  0.00  0.00    -0.166 NA
ATOM      3  N   UNL     1      32.441 -22.178 -17.767  0.00  0.00    -0.271 N 
ATOM      4  N   UNL     1      33.291 -23.447 -15.940  0.00  0.00    -0.322 NA
ATOM      5  N   UNL     1      34.083 -24.702 -14.128  0.00  0.00    -0.247 N 
ATOM      6  N   UNL     1      31.769 -24.414 -14.341  0.00  0.00    -0.170 NA
ATOM      7  C   UNL     1      34.866 -20.855 -19.986  0.00  0.00    +0.045 C 
ATOM      8  C   UNL     1      33.552 -21.017 -19.617  0.00  0.00    +0.048 C 
ATOM      9  C   UNL     1      33.608 -21.797 -18.448  0.00  0.00    +0.152 C 
ATOM     10  C   UNL     1      32.224 -22.943 -16.595  0.00  0.00    +0.199 C 
ATOM     11  C   UNL     1      30.919 -23.130 -16.190  0.00  0.00    +0.070 C 
ATOM     12  C   UNL     1      32.995 -24.162 -14.837  0.00  0.00    +0.150 C 
ATOM     13  C   UNL     1      30.749 -23.880 -15.045  0.00  0.00    +0.116 C 
ATOM     14  H   UNL     1      36.583 -21.572 -19.075  0.00  0.00    +0.174 HD
ATOM     15  H   UNL     1      31.613 -21.849 -18.184  0.00  0.00    +0.156 HD
ATOM     16  H   UNL     1      33.821 -25.216 -13.331  0.00  0.00    +0.165 HD
ENDROOT
BRANCH   5  20
ATOM     17  N   UNL     1      38.502 -26.628 -15.214  0.00  0.00    -0.315 N 
ATOM     18  N   UNL     1      39.579 -24.697 -14.992  0.00  0.00    -0.315 N 
ATOM     19  C   UNL     1      37.542 -25.711 -14.877  0.00  0.00    +0.060 C 
ATOM     20  C   UNL     1      35.481 -24.651 -14.338  0.00  0.00    +0.059 C 
ATOM     21  C   UNL     1      38.238 -24.513 -14.744  0.00  0.00    +0.059 C 
ATOM     22  C   UNL     1      36.165 -25.822 -14.683  0.00  0.00    +0.031 C 
ATOM     23  C   UNL     1      36.152 -23.435 -14.197  0.00  0.00    +0.017 C 
ATOM     24  C   UNL     1      37.535 -23.347 -14.397  0.00  0.00    +0.017 C 
ATOM     25  C   UNL     1      39.703 -25.975 -15.270  0.00  0.00    +0.182 C 
ATOM     26  H   UNL     1      38.356 -27.587 -15.386  0.00  0.00    +0.148 HD
ATOM     27  H   UNL     1      40.292 -24.018 -14.967  0.00  0.00    +0.148 HD
ENDBRANCH   5  20
BRANCH   7  28
ATOM     28  C   UNL     1      35.401 -20.088 -21.188  0.00  0.00    +0.037 C 
ATOM     29  C   UNL     1      36.572 -19.170 -20.995  0.00  0.00    +0.006 C 
ATOM     30  C   UNL     1      35.205 -18.601 -21.240  0.00  0.00    +0.006 C 
ENDBRANCH   7  28
TORSDOF 2
ENDMDL
MODEL 2
REMARK VINA RESULT:     -11.0      1.373      6.534
REMARK  Name = 42627755
REMARK  2 active torsions:
REMARK  status: ('A' for Active; 'I' for Inactive)
REMARK    1  A    between atoms: N_5  and  C_20
REMARK    2  A    between atoms: C_7  and  C_28
REMARK                            x       y       z     vdW  Elec       q    Type
REMARK                         _______ _______ _______ _____ _____    ______ ____
ROOT
ATOM      1  N   UNL     1      37.610 -23.918 -15.367  0.00  0.00    -0.239 N 
ATOM      2  N   UNL     1      36.277 -23.814 -15.491  0.00  0.00    -0.166 NA
ATOM      3  N   UNL     1      34.468 -24.723 -14.127  0.00  0.00    -0.271 N 
ATOM      4  N   UNL     1      33.328 -23.529 -15.842  0.00  0.00    -0.322 NA
ATOM      5  N   UNL     1      32.166 -22.367 -17.511  0.00  0.00    -0.247 N 
ATOM      6  N   UNL     1      30.919 -23.475 -15.868  0.00  0.00    -0.170 NA
ATOM      7  C   UNL     1      38.008 -24.661 -14.294  0.00  0.00    +0.045 C 
ATOM      8  C   UNL     1      36.852 -25.070 -13.674  0.00  0.00    +0.048 C 
ATOM      9  C   UNL     1      35.819 -24.520 -14.454  0.00  0.00    +0.152 C 
ATOM     10  C   UNL     1      33.263 -24.291 -14.731  0.00  0.00    +0.199 C 
ATOM     11  C   UNL     1      32.079 -24.680 -14.138  0.00  0.00    +0.070 C 
ATOM     12  C   UNL     1      32.136 -23.162 -16.351  0.00  0.00    +0.150 C 
ATOM     13  C   UNL     1      30.927 -24.239 -14.756  0.00  0.00    +0.116 C 
ATOM     14  H   UNL     1      38.243 -23.496 -15.993  0.00  0.00    +0.174 HD
ATOM     15  H   UNL     1      34.334 -25.272 -13.322  0.00  0.00    +0.156 HD
ATOM     16  H   UNL     1      31.274 -22.122 -17.847  0.00  0.00    +0.165 HD
ENDROOT
BRANCH   5  20
ATOM     17  N   UNL     1      34.125 -19.599 -21.106  0.00  0.00    -0.315 N 
ATOM     18  N   UNL     1      36.213 -20.227 -20.673  0.00  0.00    -0.315 N 
ATOM     19  C   UNL     1      34.034 -20.471 -20.053  0.00  0.00    +0.060 C 
ATOM     20  C   UNL     1      33.229 -21.849 -18.288  0.00  0.00    +0.059 C 
ATOM     21  C   UNL     1      35.349 -20.849 -19.801  0.00  0.00    +0.059 C 
ATOM     22  C   UNL     1      32.946 -20.948 -19.320  0.00  0.00    +0.031 C 
ATOM     23  C   UNL     1      34.538 -22.247 -18.011  0.00  0.00    +0.017 C 
ATOM     24  C   UNL     1      35.615 -21.756 -18.760  0.00  0.00    +0.017 C 
ATOM     25  C   UNL     1      35.447 -19.486 -21.441  0.00  0.00    +0.182 C 
ATOM     26  H   UNL     1      33.375 -19.137 -21.544  0.00  0.00    +0.148 HD
ATOM     27  H   UNL     1      37.193 -20.318 -20.713  0.00  0.00    +0.148 HD
ENDBRANCH   5  20
BRANCH   7  28
ATOM     28  C   UNL     1      39.440 -24.968 -13.879  0.00  0.00    +0.037 C 
ATOM     29  C   UNL     1      40.504 -25.009 -14.936  0.00  0.00    +0.006 C 
ATOM     30  C   UNL     1      40.042 -26.281 -14.287  0.00  0.00    +0.006 C 
ENDBRANCH   7  28
TORSDOF 2
ENDMDL
MODEL 3
REMARK VINA RESULT:     -10.8      1.911      7.010
REMARK  Name = 42627755
REMARK  2 active torsions:
REMARK  status: ('A' for Active; 'I' for Inactive)
REMARK    1  A    between atoms: N_5  and  C_20
REMARK    2  A    between atoms: C_7  and  C_28
REMARK                            x       y       z     vdW  Elec       q    Type
REMARK                         _______ _______ _______ _____ _____    ______ ____
ROOT
ATOM      1  N   UNL     1      31.264 -22.725 -16.871  0.00  0.00    -0.239 N 
ATOM      2  N   UNL     1      32.589 -22.710 -16.652  0.00  0.00    -0.166 NA
ATOM      3  N   UNL     1      33.917 -23.627 -14.820  0.00  0.00    -0.271 N 
ATOM      4  N   UNL     1      35.543 -22.629 -16.246  0.00  0.00    -0.322 NA
ATOM      5  N   UNL     1      37.175 -21.662 -17.618  0.00  0.00    -0.247 N 
ATOM      6  N   UNL     1      37.876 -22.724 -15.652  0.00  0.00    -0.170 NA
ATOM      7  C   UNL     1      30.551 -23.363 -15.897  0.00  0.00    +0.045 C 
ATOM      8  C   UNL     1      31.477 -23.795 -14.979  0.00  0.00    +0.048 C 
ATOM      9  C   UNL     1      32.713 -23.365 -15.494  0.00  0.00    +0.152 C 
ATOM     10  C   UNL     1      35.266 -23.312 -15.115  0.00  0.00    +0.199 C 
ATOM     11  C   UNL     1      36.227 -23.729 -14.218  0.00  0.00    +0.070 C 
ATOM     12  C   UNL     1      36.850 -22.373 -16.449  0.00  0.00    +0.150 C 
ATOM     13  C   UNL     1      37.528 -23.404 -14.540  0.00  0.00    +0.116 C 
ATOM     14  H   UNL     1      30.844 -22.314 -17.661  0.00  0.00    +0.174 HD
ATOM     15  H   UNL     1      33.801 -24.126 -13.980  0.00  0.00    +0.156 HD
ATOM     16  H   UNL     1      38.140 -21.497 -17.725  0.00  0.00    +0.165 HD
ENDROOT
BRANCH   5  20
ATOM     17  N   UNL     1      36.346 -18.844 -21.592  0.00  0.00    -0.315 N 
ATOM     18  N   UNL     1      34.232 -19.493 -21.811  0.00  0.00    -0.315 N 
ATOM     19  C   UNL     1      36.129 -19.733 -20.573  0.00  0.00    +0.060 C 
ATOM     20  C   UNL     1      36.387 -21.138 -18.669  0.00  0.00    +0.059 C 
ATOM     21  C   UNL     1      34.803 -20.125 -20.731  0.00  0.00    +0.059 C 
ATOM     22  C   UNL     1      36.954 -20.216 -19.556  0.00  0.00    +0.031 C 
ATOM     23  C   UNL     1      35.060 -21.550 -18.802  0.00  0.00    +0.017 C 
ATOM     24  C   UNL     1      34.250 -21.052 -19.831  0.00  0.00    +0.017 C 
ATOM     25  C   UNL     1      35.183 -18.732 -22.304  0.00  0.00    +0.182 C 
ATOM     26  H   UNL     1      37.188 -18.368 -21.779  0.00  0.00    +0.148 HD
ATOM     27  H   UNL     1      33.310 -19.590 -22.144  0.00  0.00    +0.148 HD
ENDBRANCH   5  20
BRANCH   7  28
ATOM     28  C   UNL     1      29.041 -23.551 -15.849  0.00  0.00    +0.037 C 
ATOM     29  C   UNL     1      28.192 -22.827 -16.850  0.00  0.00    +0.006 C 
ATOM     30  C   UNL     1      28.185 -22.398 -15.412  0.00  0.00    +0.006 C 
ENDBRANCH   7  28
TORSDOF 2
ENDMDL
MODEL 4
REMARK VINA RESULT:     -10.7      2.007      5.453
REMARK  Name = 42627755
REMARK  2 active torsions:
REMARK  status: ('A' for Active; 'I' for Inactive)
REMARK    1  A    between atoms: N_5  and  C_20
REMARK    2  A    between atoms: C_7  and  C_28
REMARK                            x       y       z     vdW  Elec       q    Type
REMARK                         _______ _______ _______ _____ _____    ______ ____
ROOT
ATOM      1  N   UNL     1      34.254 -21.866 -18.605  0.00  0.00    -0.239 N 
ATOM      2  N   UNL     1      34.543 -22.348 -17.385  0.00  0.00    -0.166 NA
ATOM      3  N   UNL     1      36.660 -22.477 -16.177  0.00  0.00    -0.271 N 
ATOM      4  N   UNL     1      35.093 -23.440 -14.665  0.00  0.00    -0.322 NA
ATOM      5  N   UNL     1      33.587 -24.395 -13.147  0.00  0.00    -0.247 N 
ATOM      6  N   UNL     1      35.837 -24.243 -12.518  0.00  0.00    -0.170 NA
ATOM      7  C   UNL     1      35.336 -21.368 -19.271  0.00  0.00    +0.045 C 
ATOM      8  C   UNL     1      36.406 -21.536 -18.426  0.00  0.00    +0.048 C 
ATOM      9  C   UNL     1      35.859 -22.145 -17.281  0.00  0.00    +0.152 C 
ATOM     10  C   UNL     1      36.367 -23.082 -14.930  0.00  0.00    +0.199 C 
ATOM     11  C   UNL     1      37.414 -23.269 -14.052  0.00  0.00    +0.070 C 
ATOM     12  C   UNL     1      34.903 -24.008 -13.457  0.00  0.00    +0.150 C 
ATOM     13  C   UNL     1      37.088 -23.860 -12.850  0.00  0.00    +0.116 C 
ATOM     14  H   UNL     1      33.345 -21.870 -18.985  0.00  0.00    +0.174 HD
ATOM     15  H   UNL     1      37.609 -22.245 -16.292  0.00  0.00    +0.156 HD
ATOM     16  H   UNL     1      33.495 -24.804 -12.256  0.00  0.00    +0.165 HD
ENDROOT
BRANCH   5  20
ATOM     17  N   UNL     1      30.481 -22.415 -16.441  0.00  0.00    -0.315 N 
ATOM     18  N   UNL     1      28.873 -23.901 -16.060  0.00  0.00    -0.315 N 
ATOM     19  C   UNL     1      30.979 -23.254 -15.479  0.00  0.00    +0.060 C 
ATOM     20  C   UNL     1      32.371 -24.310 -13.864  0.00  0.00    +0.059 C 
ATOM     21  C   UNL     1      29.958 -24.173 -15.259  0.00  0.00    +0.059 C 
ATOM     22  C   UNL     1      32.199 -23.288 -14.803  0.00  0.00    +0.031 C 
ATOM     23  C   UNL     1      31.365 -25.247 -13.620  0.00  0.00    +0.017 C 
ATOM     24  C   UNL     1      30.148 -25.194 -14.311  0.00  0.00    +0.017 C 
ATOM     25  C   UNL     1      29.220 -22.842 -16.755  0.00  0.00    +0.182 C 
ATOM     26  H   UNL     1      30.946 -21.642 -16.835  0.00  0.00    +0.148 HD
ATOM     27  H   UNL     1      28.022 -24.394 -16.104  0.00  0.00    +0.148 HD
ENDBRANCH   5  20
BRANCH   7  28
ATOM     28  C   UNL     1      35.344 -20.754 -20.664  0.00  0.00    +0.037 C 
ATOM     29  C   UNL     1      36.047 -19.445 -20.871  0.00  0.00    +0.006 C 
ATOM     30  C   UNL     1      34.547 -19.505 -20.906  0.00  0.00    +0.006 C 
ENDBRANCH   7  28
TORSDOF 2
ENDMDL
MODEL 5
REMARK VINA RESULT:     -10.5      1.886      5.495
REMARK  Name = 42627755
REMARK  2 active torsions:
REMARK  status: ('A' for Active; 'I' for Inactive)
REMARK    1  A    between atoms: N_5  and  C_20
REMARK    2  A    between atoms: C_7  and  C_28
REMARK                            x       y       z     vdW  Elec       q    Type
REMARK                         _______ _______ _______ _____ _____    ______ ____
ROOT
ATOM      1  N   UNL     1      34.461 -20.655 -19.879  0.00  0.00    -0.239 N 
ATOM      2  N   UNL     1      34.842 -21.281 -18.753  0.00  0.00    -0.166 NA
ATOM      3  N   UNL     1      37.060 -21.659 -17.807  0.00  0.00    -0.271 N 
ATOM      4  N   UNL     1      35.598 -22.687 -16.234  0.00  0.00    -0.322 NA
ATOM      5  N   UNL     1      34.197 -23.711 -14.661  0.00  0.00    -0.247 N 
ATOM      6  N   UNL     1      36.506 -23.756 -14.274  0.00  0.00    -0.170 NA
ATOM      7  C   UNL     1      35.498 -20.152 -20.608  0.00  0.00    +0.045 C 
ATOM      8  C   UNL     1      36.636 -20.470 -19.908  0.00  0.00    +0.048 C 
ATOM      9  C   UNL     1      36.173 -21.166 -18.777  0.00  0.00    +0.152 C 
ATOM     10  C   UNL     1      36.858 -22.376 -16.602  0.00  0.00    +0.199 C 
ATOM     11  C   UNL     1      37.976 -22.715 -15.869  0.00  0.00    +0.070 C 
ATOM     12  C   UNL     1      35.496 -23.369 -15.076  0.00  0.00    +0.150 C 
ATOM     13  C   UNL     1      37.739 -23.412 -14.703  0.00  0.00    +0.116 C 
ATOM     14  H   UNL     1      33.519 -20.567 -20.153  0.00  0.00    +0.174 HD
ATOM     15  H   UNL     1      38.006 -21.471 -18.003  0.00  0.00    +0.156 HD
ATOM     16  H   UNL     1      34.171 -24.207 -13.811  0.00  0.00    +0.165 HD
ENDROOT
BRANCH   5  20
ATOM     17  N   UNL     1      29.284 -24.174 -14.916  0.00  0.00    -0.315 N 
ATOM     18  N   UNL     1      29.098 -22.919 -16.741  0.00  0.00    -0.315 N 
ATOM     19  C   UNL     1      30.562 -23.789 -15.226  0.00  0.00    +0.060 C 
ATOM     20  C   UNL     1      32.921 -23.481 -15.226  0.00  0.00    +0.059 C 
ATOM     21  C   UNL     1      30.420 -23.007 -16.369  0.00  0.00    +0.059 C 
ATOM     22  C   UNL     1      31.793 -24.050 -14.625  0.00  0.00    +0.031 C 
ATOM     23  C   UNL     1      32.811 -22.692 -16.372  0.00  0.00    +0.017 C 
ATOM     24  C   UNL     1      31.564 -22.443 -16.959  0.00  0.00    +0.017 C 
ATOM     25  C   UNL     1      28.445 -23.630 -15.849  0.00  0.00    +0.182 C 
ATOM     26  H   UNL     1      29.016 -24.741 -14.157  0.00  0.00    +0.148 HD
ATOM     27  H   UNL     1      28.723 -22.429 -17.508  0.00  0.00    +0.148 HD
ENDBRANCH   5  20
BRANCH   7  28
ATOM     28  C   UNL     1      35.403 -19.394 -21.925  0.00  0.00    +0.037 C 
ATOM     29  C   UNL     1      36.581 -18.583 -22.377  0.00  0.00    +0.006 C 
ATOM     30  C   UNL     1      35.340 -17.894 -21.890  0.00  0.00    +0.006 C 
ENDBRANCH   7  28
TORSDOF 2
ENDMDL
MODEL 6
REMARK VINA RESULT:     -10.4      1.823      5.326
REMARK  Name = 42627755
REMARK  2 active torsions:
REMARK  status: ('A' for Active; 'I' for Inactive)
REMARK    1  A    between atoms: N_5  and  C_20
REMARK    2  A    between atoms: C_7  and  C_28
REMARK                            x       y       z     vdW  Elec       q    Type
REMARK                         _______ _______ _______ _____ _____    ______ ____
ROOT
ATOM      1  N   UNL     1      34.633 -21.534 -18.760  0.00  0.00    -0.239 N 
ATOM      2  N   UNL     1      35.017 -22.113 -17.610  0.00  0.00    -0.166 NA
ATOM      3  N   UNL     1      37.240 -22.472 -16.667  0.00  0.00    -0.271 N 
ATOM      4  N   UNL     1      35.782 -23.413 -15.037  0.00  0.00    -0.322 NA
ATOM      5  N   UNL     1      34.385 -24.350 -13.408  0.00  0.00    -0.247 N 
ATOM      6  N   UNL     1      36.697 -24.403 -13.040  0.00  0.00    -0.170 NA
ATOM      7  C   UNL     1      35.668 -21.075 -19.520  0.00  0.00    +0.045 C 
ATOM      8  C   UNL     1      36.810 -21.374 -18.817  0.00  0.00    +0.048 C 
ATOM      9  C   UNL     1      36.349 -22.013 -17.651  0.00  0.00    +0.152 C 
ATOM     10  C   UNL     1      37.042 -23.132 -15.430  0.00  0.00    +0.199 C 
ATOM     11  C   UNL     1      38.163 -23.450 -14.693  0.00  0.00    +0.070 C 
ATOM     12  C   UNL     1      35.684 -24.040 -13.849  0.00  0.00    +0.150 C 
ATOM     13  C   UNL     1      37.929 -24.092 -13.494  0.00  0.00    +0.116 C 
ATOM     14  H   UNL     1      33.689 -21.448 -19.030  0.00  0.00    +0.174 HD
ATOM     15  H   UNL     1      38.186 -22.303 -16.880  0.00  0.00    +0.156 HD
ATOM     16  H   UNL     1      34.362 -24.806 -12.536  0.00  0.00    +0.165 HD
ENDROOT
BRANCH   5  20
ATOM     17  N   UNL     1      29.635 -25.428 -14.238  0.00  0.00    -0.315 N 
ATOM     18  N   UNL     1      29.292 -23.657 -15.537  0.00  0.00    -0.315 N 
ATOM     19  C   UNL     1      30.836 -24.771 -14.285  0.00  0.00    +0.060 C 
ATOM     20  C   UNL     1      33.107 -24.131 -13.971  0.00  0.00    +0.059 C 
ATOM     21  C   UNL     1      30.597 -23.670 -15.101  0.00  0.00    +0.059 C 
ATOM     22  C   UNL     1      32.076 -25.038 -13.702  0.00  0.00    +0.031 C 
ATOM     23  C   UNL     1      32.898 -23.017 -14.786  0.00  0.00    +0.017 C 
ATOM     24  C   UNL     1      31.645 -22.769 -15.361  0.00  0.00    +0.017 C 
ATOM     25  C   UNL     1      28.744 -24.724 -15.001  0.00  0.00    +0.182 C 
ATOM     26  H   UNL     1      29.445 -26.258 -13.744  0.00  0.00    +0.148 HD
ATOM     27  H   UNL     1      28.862 -22.992 -16.122  0.00  0.00    +0.148 HD
ENDBRANCH   5  20
BRANCH   7  28
ATOM     28  C   UNL     1      35.569 -20.376 -20.869  0.00  0.00    +0.037 C 
ATOM     29  C   UNL     1      36.257 -19.055 -21.049  0.00  0.00    +0.006 C 
ATOM     30  C   UNL     1      34.760 -19.116 -20.969  0.00  0.00    +0.006 C 
ENDBRANCH   7  28
TORSDOF 2
ENDMDL
MODEL 7
REMARK VINA RESULT:      -9.9      1.965      5.453
REMARK  Name = 42627755
REMARK  2 active torsions:
REMARK  status: ('A' for Active; 'I' for Inactive)
REMARK    1  A    between atoms: N_5  and  C_20
REMARK    2  A    between atoms: C_7  and  C_28
REMARK                            x       y       z     vdW  Elec       q    Type
REMARK                         _______ _______ _______ _____ _____    ______ ____
ROOT
ATOM      1  N   UNL     1      31.923 -23.741 -15.080  0.00  0.00    -0.239 N 
ATOM      2  N   UNL     1      33.014 -23.303 -15.729  0.00  0.00    -0.166 NA
ATOM      3  N   UNL     1      33.249 -22.179 -17.884  0.00  0.00    -0.271 N 
ATOM      4  N   UNL     1      35.490 -22.360 -17.099  0.00  0.00    -0.322 NA
ATOM      5  N   UNL     1      37.709 -22.517 -16.366  0.00  0.00    -0.247 N 
ATOM      6  N   UNL     1      37.301 -21.499 -18.436  0.00  0.00    -0.170 NA
ATOM      7  C   UNL     1      30.755 -23.515 -15.749  0.00  0.00    +0.045 C 
ATOM      8  C   UNL     1      31.110 -22.884 -16.917  0.00  0.00    +0.048 C 
ATOM      9  C   UNL     1      32.511 -22.781 -16.852  0.00  0.00    +0.152 C 
ATOM     10  C   UNL     1      34.636 -21.953 -18.061  0.00  0.00    +0.199 C 
ATOM     11  C   UNL     1      35.034 -21.321 -19.221  0.00  0.00    +0.070 C 
ATOM     12  C   UNL     1      36.790 -22.105 -17.348  0.00  0.00    +0.150 C 
ATOM     13  C   UNL     1      36.391 -21.119 -19.357  0.00  0.00    +0.116 C 
ATOM     14  H   UNL     1      31.961 -24.185 -14.202  0.00  0.00    +0.174 HD
ATOM     15  H   UNL     1      32.696 -21.852 -18.628  0.00  0.00    +0.156 HD
ATOM     16  H   UNL     1      38.645 -22.310 -16.590  0.00  0.00    +0.165 HD
ENDROOT
BRANCH   5  20
ATOM     17  N   UNL     1      35.530 -23.335 -12.007  0.00  0.00    -0.315 N 
ATOM     18  N   UNL     1      36.931 -24.960 -11.430  0.00  0.00    -0.315 N 
ATOM     19  C   UNL     1      36.405 -23.453 -13.055  0.00  0.00    +0.060 C 
ATOM     20  C   UNL     1      37.551 -23.168 -15.121  0.00  0.00    +0.059 C 
ATOM     21  C   UNL     1      37.269 -24.474 -12.671  0.00  0.00    +0.059 C 
ATOM     22  C   UNL     1      36.512 -22.775 -14.270  0.00  0.00    +0.031 C 
ATOM     23  C   UNL     1      38.434 -24.188 -14.764  0.00  0.00    +0.017 C 
ATOM     24  C   UNL     1      38.307 -24.855 -13.539  0.00  0.00    +0.017 C 
ATOM     25  C   UNL     1      35.885 -24.255 -11.061  0.00  0.00    +0.182 C 
ATOM     26  H   UNL     1      34.780 -22.700 -11.946  0.00  0.00    +0.148 HD
ATOM     27  H   UNL     1      37.376 -25.681 -10.927  0.00  0.00    +0.148 HD
ENDBRANCH   5  20
BRANCH   7  28
ATOM     28  C   UNL     1      29.354 -23.889 -15.288  0.00  0.00    +0.037 C 
ATOM     29  C   UNL     1      28.251 -23.943 -16.303  0.00  0.00    +0.006 C 
ATOM     30  C   UNL     1      28.287 -22.833 -15.295  0.00  0.00    +0.006 C 
ENDBRANCH   7  28
TORSDOF 2
ENDMDL
MODEL 8
REMARK VINA RESULT:      -9.7      2.265      6.328
REMARK  Name = 42627755
REMARK  2 active torsions:
REMARK  status: ('A' for Active; 'I' for Inactive)
REMARK    1  A    between atoms: N_5  and  C_20
REMARK    2  A    between atoms: C_7  and  C_28
REMARK                            x       y       z     vdW  Elec       q    Type
REMARK                         _______ _______ _______ _____ _____    ______ ____
ROOT
ATOM      1  N   UNL     1      31.487 -23.616 -15.508  0.00  0.00    -0.239 N 
ATOM      2  N   UNL     1      32.704 -23.602 -14.940  0.00  0.00    -0.166 NA
ATOM      3  N   UNL     1      33.461 -24.406 -12.763  0.00  0.00    -0.271 N 
ATOM      4  N   UNL     1      35.441 -23.532 -13.756  0.00  0.00    -0.322 NA
ATOM      5  N   UNL     1      37.412 -22.684 -14.693  0.00  0.00    -0.247 N 
ATOM      6  N   UNL     1      37.524 -23.615 -12.548  0.00  0.00    -0.170 NA
ATOM      7  C   UNL     1      30.519 -24.174 -14.726  0.00  0.00    +0.045 C 
ATOM      8  C   UNL     1      31.149 -24.553 -13.565  0.00  0.00    +0.048 C 
ATOM      9  C   UNL     1      32.491 -24.176 -13.752  0.00  0.00    +0.152 C 
ATOM     10  C   UNL     1      34.848 -24.130 -12.701  0.00  0.00    +0.199 C 
ATOM     11  C   UNL     1      35.519 -24.496 -11.552  0.00  0.00    +0.070 C 
ATOM     12  C   UNL     1      36.761 -23.307 -13.613  0.00  0.00    +0.150 C 
ATOM     13  C   UNL     1      36.868 -24.210 -11.530  0.00  0.00    +0.116 C 
ATOM     14  H   UNL     1      31.309 -23.256 -16.408  0.00  0.00    +0.174 HD
ATOM     15  H   UNL     1      33.107 -24.844 -11.956  0.00  0.00    +0.156 HD
ATOM     16  H   UNL     1      38.374 -22.540 -14.546  0.00  0.00    +0.165 HD
ENDROOT
BRANCH   5  20
ATOM     17  N   UNL     1      34.190 -22.393 -18.429  0.00  0.00    -0.315 N 
ATOM     18  N   UNL     1      35.443 -20.990 -19.613  0.00  0.00    -0.315 N 
ATOM     19  C   UNL     1      35.314 -22.180 -17.674  0.00  0.00    +0.060 C 
ATOM     20  C   UNL     1      36.953 -22.226 -15.950  0.00  0.00    +0.059 C 
ATOM     21  C   UNL     1      36.080 -21.301 -18.434  0.00  0.00    +0.059 C 
ATOM     22  C   UNL     1      35.714 -22.665 -16.429  0.00  0.00    +0.031 C 
ATOM     23  C   UNL     1      37.744 -21.344 -16.689  0.00  0.00    +0.017 C 
ATOM     24  C   UNL     1      37.322 -20.870 -17.937  0.00  0.00    +0.017 C 
ATOM     25  C   UNL     1      34.314 -21.662 -19.578  0.00  0.00    +0.182 C 
ATOM     26  H   UNL     1      33.430 -22.970 -18.189  0.00  0.00    +0.148 HD
ATOM     27  H   UNL     1      35.764 -20.394 -20.328  0.00  0.00    +0.148 HD
ENDBRANCH   5  20
BRANCH   7  28
ATOM     28  C   UNL     1      29.047 -24.339 -15.076  0.00  0.00    +0.037 C 
ATOM     29  C   UNL     1      28.602 -24.049 -16.479  0.00  0.00    +0.006 C 
ATOM     30  C   UNL     1      28.234 -23.111 -15.367  0.00  0.00    +0.006 C 
ENDBRANCH   7  28
TORSDOF 2
ENDMDL
MODEL 9
REMARK VINA RESULT:      -8.7     12.392     16.580
REMARK  Name = 42627755
REMARK  2 active torsions:
REMARK  status: ('A' for Active; 'I' for Inactive)
REMARK    1  A    between atoms: N_5  and  C_20
REMARK    2  A    between atoms: C_7  and  C_28
REMARK                            x       y       z     vdW  Elec       q    Type
REMARK                         _______ _______ _______ _____ _____    ______ ____
ROOT
ATOM      1  N   UNL     1      34.094 -11.736 -24.429  0.00  0.00    -0.239 N 
ATOM      2  N   UNL     1      33.655 -10.945 -23.436  0.00  0.00    -0.166 NA
ATOM      3  N   UNL     1      32.446 -11.480 -21.383  0.00  0.00    -0.271 N 
ATOM      4  N   UNL     1      32.716  -9.116 -21.275  0.00  0.00    -0.322 NA
ATOM      5  N   UNL     1      32.959  -6.792 -21.128  0.00  0.00    -0.247 N 
ATOM      6  N   UNL     1      31.845  -7.896 -19.389  0.00  0.00    -0.170 NA
ATOM      7  C   UNL     1      33.809 -13.058 -24.249  0.00  0.00    +0.045 C 
ATOM      8  C   UNL     1      33.137 -13.136 -23.053  0.00  0.00    +0.048 C 
ATOM      9  C   UNL     1      33.070 -11.806 -22.598  0.00  0.00    +0.152 C 
ATOM     10  C   UNL     1      32.246 -10.249 -20.712  0.00  0.00    +0.199 C 
ATOM     11  C   UNL     1      31.576 -10.284 -19.507  0.00  0.00    +0.070 C 
ATOM     12  C   UNL     1      32.484  -7.992 -20.570  0.00  0.00    +0.150 C 
ATOM     13  C   UNL     1      31.401  -9.066 -18.884  0.00  0.00    +0.116 C 
ATOM     14  H   UNL     1      34.578 -11.393 -25.216  0.00  0.00    +0.174 HD
ATOM     15  H   UNL     1      32.076 -12.256 -20.907  0.00  0.00    +0.156 HD
ATOM     16  H   UNL     1      32.767  -5.997 -20.579  0.00  0.00    +0.165 HD
ENDROOT
BRANCH   5  20
ATOM     17  N   UNL     1      33.843  -4.261 -25.279  0.00  0.00    -0.315 N 
ATOM     18  N   UNL     1      35.588  -5.510 -25.860  0.00  0.00    -0.315 N 
ATOM     19  C   UNL     1      33.968  -5.198 -24.288  0.00  0.00    +0.060 C 
ATOM     20  C   UNL     1      33.659  -6.504 -22.322  0.00  0.00    +0.059 C 
ATOM     21  C   UNL     1      35.064  -5.966 -24.673  0.00  0.00    +0.059 C 
ATOM     22  C   UNL     1      33.240  -5.435 -23.121  0.00  0.00    +0.031 C 
ATOM     23  C   UNL     1      34.754  -7.291 -22.682  0.00  0.00    +0.017 C 
ATOM     24  C   UNL     1      35.471  -7.036 -23.857  0.00  0.00    +0.017 C 
ATOM     25  C   UNL     1      34.832  -4.489 -26.196  0.00  0.00    +0.182 C 
ATOM     26  H   UNL     1      33.162  -3.551 -25.325  0.00  0.00    +0.148 HD
ATOM     27  H   UNL     1      36.361  -5.870 -26.352  0.00  0.00    +0.148 HD
ENDBRANCH   5  20
BRANCH   7  28
ATOM     28  C   UNL     1      34.166 -14.203 -25.186  0.00  0.00    +0.037 C 
ATOM     29  C   UNL     1      33.437 -15.506 -25.044  0.00  0.00    +0.006 C 
ATOM     30  C   UNL     1      34.874 -15.401 -24.623  0.00  0.00    +0.006 C 
ENDBRANCH   7  28
TORSDOF 2
ENDMDL
