MODEL 1
REMARK VINA RESULT:     -11.4      0.000      0.000
REMARK  Name = 24880024
REMARK  5 active torsions:
REMARK  status: ('A' for Active; 'I' for Inactive)
REMARK    1  A    between atoms: N_5  and  C_12
REMARK    2  A    between atoms: C_6  and  C_22
REMARK    3  A    between atoms: C_13  and  C_21
REMARK    4  A    between atoms: C_22  and  C_23
REMARK    5  A    between atoms: C_23  and  N_25
REMARK                            x       y       z     vdW  Elec       q    Type
REMARK                         _______ _______ _______ _____ _____    ______ ____
ROOT
ATOM      1  S   UNL     1      34.943 -14.682 -23.405  0.00  0.00    -0.056 S 
ATOM      2  O   UNL     1      33.448 -10.663 -25.253  0.00  0.00    -0.252 OA
ATOM      3  N   UNL     1      33.574 -13.659 -25.345  0.00  0.00    -0.223 NA
ATOM      4  N   UNL     1      34.543 -12.117 -23.767  0.00  0.00    -0.248 N 
ATOM      5  N   UNL     1      34.629  -9.809 -23.423  0.00  0.00    -0.268 N 
ATOM      6  C   UNL     1      34.238 -15.754 -24.542  0.00  0.00    +0.031 C 
ATOM      7  C   UNL     1      33.554 -15.031 -25.497  0.00  0.00    +0.103 C 
ATOM      8  C   UNL     1      34.278 -13.361 -24.275  0.00  0.00    +0.166 C 
ATOM      9  C   UNL     1      34.136 -10.831 -24.251  0.00  0.00    +0.310 C 
ATOM     10  H   UNL     1      35.093 -12.104 -22.950  0.00  0.00    +0.158 HD
ATOM     11  H   UNL     1      35.167 -10.100 -22.652  0.00  0.00    +0.156 HD
ENDROOT
BRANCH   5  12
ATOM     12  C   UNL     1      34.446  -8.413 -23.562  0.00  0.00    +0.052 C 
ATOM     13  C   UNL     1      33.098  -6.436 -23.230  0.00  0.00    +0.073 C 
ATOM     14  C   UNL     1      33.278  -7.812 -23.095  0.00  0.00    +0.019 C 
ATOM     15  C   UNL     1      35.436  -7.637 -24.165  0.00  0.00    +0.015 C 
ATOM     16  C   UNL     1      34.088  -5.660 -23.833  0.00  0.00    +0.004 C 
ATOM     17  C   UNL     1      35.258  -6.260 -24.300  0.00  0.00    +0.001 C 
BRANCH  13  21
ATOM     18  F   UNL     1      31.119  -5.181 -23.710  0.00  0.00    -0.166 F 
ATOM     19  F   UNL     1      30.984  -6.667 -22.136  0.00  0.00    -0.166 F 
ATOM     20  F   UNL     1      32.092  -4.827 -21.798  0.00  0.00    -0.166 F 
ATOM     21  C   UNL     1      31.849  -5.793 -22.731  0.00  0.00    +0.419 C 
ENDBRANCH  13  21
ENDBRANCH   5  12
BRANCH   6  22
ATOM     22  C   UNL     1      34.417 -17.246 -24.404  0.00  0.00    +0.056 C 
BRANCH  22  23
ATOM     23  C   UNL     1      35.352 -17.634 -23.259  0.00  0.00    +0.093 C 
BRANCH  23  25
ATOM     24  S   UNL     1      33.043 -20.451 -20.385  0.00  0.00    -0.101 S 
ATOM     25  N   UNL     1      34.699 -18.518 -22.342  0.00  0.00    -0.320 N 
ATOM     26  N   UNL     1      36.724 -19.090 -21.229  0.00  0.00    -0.233 NA
ATOM     27  N   UNL     1      36.788 -20.637 -19.369  0.00  0.00    -0.247 NA
ATOM     28  C   UNL     1      35.389 -19.232 -21.344  0.00  0.00    +0.118 C 
ATOM     29  C   UNL     1      34.717 -20.081 -20.472  0.00  0.00    +0.145 C 
ATOM     30  C   UNL     1      35.441 -20.768 -19.498  0.00  0.00    +0.073 C 
ATOM     31  C   UNL     1      34.599 -21.593 -18.692  0.00  0.00    +0.022 C 
ATOM     32  C   UNL     1      33.278 -21.514 -19.067  0.00  0.00    +0.033 C 
ATOM     33  C   UNL     1      37.336 -19.794 -20.258  0.00  0.00    +0.251 C 
ATOM     34  H   UNL     1      33.725 -18.633 -22.413  0.00  0.00    +0.148 HD
ENDBRANCH  23  25
ENDBRANCH  22  23
ENDBRANCH   6  22
TORSDOF 5
ENDMDL
MODEL 2
REMARK VINA RESULT:     -11.4      5.684     11.842
REMARK  Name = 24880024
REMARK  5 active torsions:
REMARK  status: ('A' for Active; 'I' for Inactive)
REMARK    1  A    between atoms: N_5  and  C_12
REMARK    2  A    between atoms: C_6  and  C_22
REMARK    3  A    between atoms: C_13  and  C_21
REMARK    4  A    between atoms: C_22  and  C_23
REMARK    5  A    between atoms: C_23  and  N_25
REMARK                            x       y       z     vdW  Elec       q    Type
REMARK                         _______ _______ _______ _____ _____    ______ ____
ROOT
ATOM      1  S   UNL     1      34.146 -15.163 -24.899  0.00  0.00    -0.056 S 
ATOM      2  O   UNL     1      35.450 -16.711 -20.692  0.00  0.00    -0.252 OA
ATOM      3  N   UNL     1      34.805 -14.417 -22.513  0.00  0.00    -0.223 NA
ATOM      4  N   UNL     1      34.799 -16.787 -22.948  0.00  0.00    -0.248 N 
ATOM      5  N   UNL     1      35.235 -18.766 -21.789  0.00  0.00    -0.268 N 
ATOM      6  C   UNL     1      34.156 -13.482 -24.557  0.00  0.00    +0.031 C 
ATOM      7  C   UNL     1      34.531 -13.279 -23.246  0.00  0.00    +0.103 C 
ATOM      8  C   UNL     1      34.635 -15.469 -23.283  0.00  0.00    +0.166 C 
ATOM      9  C   UNL     1      35.192 -17.365 -21.697  0.00  0.00    +0.310 C 
ATOM     10  H   UNL     1      34.622 -17.431 -23.671  0.00  0.00    +0.158 HD
ATOM     11  H   UNL     1      35.000 -19.149 -22.664  0.00  0.00    +0.156 HD
ENDROOT
BRANCH   5  12
ATOM     12  C   UNL     1      35.575 -19.694 -20.776  0.00  0.00    +0.052 C 
ATOM     13  C   UNL     1      34.912 -21.358 -19.155  0.00  0.00    +0.073 C 
ATOM     14  C   UNL     1      34.577 -20.442 -20.152  0.00  0.00    +0.019 C 
ATOM     15  C   UNL     1      36.908 -19.861 -20.403  0.00  0.00    +0.015 C 
ATOM     16  C   UNL     1      36.245 -21.525 -18.781  0.00  0.00    +0.004 C 
ATOM     17  C   UNL     1      37.244 -20.777 -19.405  0.00  0.00    +0.001 C 
BRANCH  13  21
ATOM     18  F   UNL     1      33.622 -23.370 -19.074  0.00  0.00    -0.166 F 
ATOM     19  F   UNL     1      34.114 -22.441 -17.177  0.00  0.00    -0.166 F 
ATOM     20  F   UNL     1      32.637 -21.524 -18.484  0.00  0.00    -0.166 F 
ATOM     21  C   UNL     1      33.845 -22.158 -18.487  0.00  0.00    +0.419 C 
ENDBRANCH  13  21
ENDBRANCH   5  12
BRANCH   6  22
ATOM     22  C   UNL     1      33.789 -12.480 -25.625  0.00  0.00    +0.056 C 
BRANCH  22  23
ATOM     23  C   UNL     1      34.382 -11.094 -25.375  0.00  0.00    +0.093 C 
BRANCH  23  25
ATOM     24  S   UNL     1      31.929  -9.051 -22.007  0.00  0.00    -0.101 S 
ATOM     25  N   UNL     1      33.670 -10.412 -24.336  0.00  0.00    -0.320 N 
ATOM     26  N   UNL     1      35.210  -8.598 -24.275  0.00  0.00    -0.233 NA
ATOM     27  N   UNL     1      34.952  -6.731 -22.758  0.00  0.00    -0.247 NA
ATOM     28  C   UNL     1      34.091  -9.180 -23.801  0.00  0.00    +0.118 C 
ATOM     29  C   UNL     1      33.371  -8.550 -22.792  0.00  0.00    +0.145 C 
ATOM     30  C   UNL     1      33.825  -7.331 -22.292  0.00  0.00    +0.073 C 
ATOM     31  C   UNL     1      32.972  -6.825 -21.265  0.00  0.00    +0.022 C 
ATOM     32  C   UNL     1      31.908  -7.661 -21.013  0.00  0.00    +0.033 C 
ATOM     33  C   UNL     1      35.570  -7.421 -23.731  0.00  0.00    +0.251 C 
ATOM     34  H   UNL     1      32.851 -10.824 -23.979  0.00  0.00    +0.148 HD
ENDBRANCH  23  25
ENDBRANCH  22  23
ENDBRANCH   6  22
TORSDOF 5
ENDMDL
MODEL 3
REMARK VINA RESULT:     -11.3      8.525     11.553
REMARK  Name = 24880024
REMARK  5 active torsions:
REMARK  status: ('A' for Active; 'I' for Inactive)
REMARK    1  A    between atoms: N_5  and  C_12
REMARK    2  A    between atoms: C_6  and  C_22
REMARK    3  A    between atoms: C_13  and  C_21
REMARK    4  A    between atoms: C_22  and  C_23
REMARK    5  A    between atoms: C_23  and  N_25
REMARK                            x       y       z     vdW  Elec       q    Type
REMARK                         _______ _______ _______ _____ _____    ______ ____
ROOT
ATOM      1  S   UNL     1      33.903 -23.418 -16.074  0.00  0.00    -0.056 S 
ATOM      2  O   UNL     1      33.316 -20.551 -19.713  0.00  0.00    -0.252 OA
ATOM      3  N   UNL     1      32.129 -22.195 -17.503  0.00  0.00    -0.223 NA
ATOM      4  N   UNL     1      34.435 -21.866 -18.119  0.00  0.00    -0.248 N 
ATOM      5  N   UNL     1      35.651 -20.691 -19.728  0.00  0.00    -0.268 N 
ATOM      6  C   UNL     1      32.253 -23.629 -15.658  0.00  0.00    +0.031 C 
ATOM      7  C   UNL     1      31.461 -22.907 -16.526  0.00  0.00    +0.103 C 
ATOM      8  C   UNL     1      33.421 -22.390 -17.361  0.00  0.00    +0.166 C 
ATOM      9  C   UNL     1      34.365 -20.984 -19.245  0.00  0.00    +0.310 C 
ATOM     10  H   UNL     1      35.343 -22.134 -17.850  0.00  0.00    +0.158 HD
ATOM     11  H   UNL     1      36.399 -21.113 -19.247  0.00  0.00    +0.156 HD
ENDROOT
BRANCH   5  12
ATOM     12  C   UNL     1      36.004 -19.862 -20.819  0.00  0.00    +0.052 C 
ATOM     13  C   UNL     1      35.545 -19.008 -23.031  0.00  0.00    +0.073 C 
ATOM     14  C   UNL     1      35.198 -19.825 -21.956  0.00  0.00    +0.019 C 
ATOM     15  C   UNL     1      37.158 -19.082 -20.757  0.00  0.00    +0.015 C 
ATOM     16  C   UNL     1      36.699 -18.227 -22.969  0.00  0.00    +0.004 C 
ATOM     17  C   UNL     1      37.506 -18.264 -21.832  0.00  0.00    +0.001 C 
BRANCH  13  21
ATOM     18  F   UNL     1      33.352 -18.849 -23.973  0.00  0.00    -0.166 F 
ATOM     19  F   UNL     1      34.968 -17.925 -25.085  0.00  0.00    -0.166 F 
ATOM     20  F   UNL     1      34.801 -20.092 -25.012  0.00  0.00    -0.166 F 
ATOM     21  C   UNL     1      34.683 -18.967 -24.248  0.00  0.00    +0.419 C 
ENDBRANCH  13  21
ENDBRANCH   5  12
BRANCH   6  22
ATOM     22  C   UNL     1      31.861 -24.504 -14.492  0.00  0.00    +0.056 C 
BRANCH  22  23
ATOM     23  C   UNL     1      32.788 -24.348 -13.287  0.00  0.00    +0.093 C 
BRANCH  23  25
ATOM     24  S   UNL     1      37.057 -25.643 -14.563  0.00  0.00    -0.101 S 
ATOM     25  N   UNL     1      34.127 -24.732 -13.618  0.00  0.00    -0.320 N 
ATOM     26  N   UNL     1      34.960 -24.230 -11.445  0.00  0.00    -0.233 NA
ATOM     27  N   UNL     1      37.286 -24.532 -10.848  0.00  0.00    -0.247 NA
ATOM     28  C   UNL     1      35.191 -24.669 -12.698  0.00  0.00    +0.118 C 
ATOM     29  C   UNL     1      36.477 -25.052 -13.059  0.00  0.00    +0.145 C 
ATOM     30  C   UNL     1      37.501 -24.973 -12.116  0.00  0.00    +0.073 C 
ATOM     31  C   UNL     1      38.753 -25.403 -12.651  0.00  0.00    +0.022 C 
ATOM     32  C   UNL     1      38.651 -25.792 -13.967  0.00  0.00    +0.033 C 
ATOM     33  C   UNL     1      36.011 -24.189 -10.605  0.00  0.00    +0.251 C 
ATOM     34  H   UNL     1      34.312 -25.054 -14.529  0.00  0.00    +0.148 HD
ENDBRANCH  23  25
ENDBRANCH  22  23
ENDBRANCH   6  22
TORSDOF 5
ENDMDL
MODEL 4
REMARK VINA RESULT:     -11.0      6.768     10.444
REMARK  Name = 24880024
REMARK  5 active torsions:
REMARK  status: ('A' for Active; 'I' for Inactive)
REMARK    1  A    between atoms: N_5  and  C_12
REMARK    2  A    between atoms: C_6  and  C_22
REMARK    3  A    between atoms: C_13  and  C_21
REMARK    4  A    between atoms: C_22  and  C_23
REMARK    5  A    between atoms: C_23  and  N_25
REMARK                            x       y       z     vdW  Elec       q    Type
REMARK                         _______ _______ _______ _____ _____    ______ ____
ROOT
ATOM      1  S   UNL     1      34.412 -22.814 -16.799  0.00  0.00    -0.056 S 
ATOM      2  O   UNL     1      32.694 -20.332 -20.361  0.00  0.00    -0.252 OA
ATOM      3  N   UNL     1      32.225 -22.038 -17.939  0.00  0.00    -0.223 NA
ATOM      4  N   UNL     1      34.291 -21.313 -18.944  0.00  0.00    -0.248 N 
ATOM      5  N   UNL     1      34.977 -20.025 -20.767  0.00  0.00    -0.268 N 
ATOM      6  C   UNL     1      32.925 -23.311 -16.104  0.00  0.00    +0.031 C 
ATOM      7  C   UNL     1      31.877 -22.805 -16.845  0.00  0.00    +0.103 C 
ATOM      8  C   UNL     1      33.536 -21.974 -18.013  0.00  0.00    +0.166 C 
ATOM      9  C   UNL     1      33.868 -20.528 -20.066  0.00  0.00    +0.310 C 
ATOM     10  H   UNL     1      35.266 -21.387 -18.826  0.00  0.00    +0.158 HD
ATOM     11  H   UNL     1      35.861 -20.268 -20.409  0.00  0.00    +0.156 HD
ENDROOT
BRANCH   5  12
ATOM     12  C   UNL     1      34.979 -19.210 -21.924  0.00  0.00    +0.052 C 
ATOM     13  C   UNL     1      35.009 -17.019 -22.940  0.00  0.00    +0.073 C 
ATOM     14  C   UNL     1      35.006 -17.822 -21.800  0.00  0.00    +0.019 C 
ATOM     15  C   UNL     1      34.954 -19.797 -23.189  0.00  0.00    +0.015 C 
ATOM     16  C   UNL     1      34.984 -17.605 -24.205  0.00  0.00    +0.004 C 
ATOM     17  C   UNL     1      34.957 -18.994 -24.330  0.00  0.00    +0.001 C 
BRANCH  13  21
ATOM     18  F   UNL     1      35.213 -15.101 -21.525  0.00  0.00    -0.166 F 
ATOM     19  F   UNL     1      36.039 -14.941 -23.524  0.00  0.00    -0.166 F 
ATOM     20  F   UNL     1      33.883 -14.946 -23.238  0.00  0.00    -0.166 F 
ATOM     21  C   UNL     1      35.037 -15.533 -22.808  0.00  0.00    +0.419 C 
ENDBRANCH  13  21
ENDBRANCH   5  12
BRANCH   6  22
ATOM     22  C   UNL     1      32.906 -24.173 -14.866  0.00  0.00    +0.056 C 
BRANCH  22  23
ATOM     23  C   UNL     1      33.985 -23.792 -13.853  0.00  0.00    +0.093 C 
BRANCH  23  25
ATOM     24  S   UNL     1      37.787 -26.287 -14.774  0.00  0.00    -0.101 S 
ATOM     25  N   UNL     1      35.193 -24.524 -14.092  0.00  0.00    -0.320 N 
ATOM     26  N   UNL     1      36.450 -23.238 -12.533  0.00  0.00    -0.233 NA
ATOM     27  N   UNL     1      38.795 -23.649 -12.107  0.00  0.00    -0.247 NA
ATOM     28  C   UNL     1      36.403 -24.239 -13.433  0.00  0.00    +0.118 C 
ATOM     29  C   UNL     1      37.554 -24.974 -13.693  0.00  0.00    +0.145 C 
ATOM     30  C   UNL     1      38.732 -24.657 -13.017  0.00  0.00    +0.073 C 
ATOM     31  C   UNL     1      39.812 -25.506 -13.402  0.00  0.00    +0.022 C 
ATOM     32  C   UNL     1      39.436 -26.433 -14.347  0.00  0.00    +0.033 C 
ATOM     33  C   UNL     1      37.631 -23.006 -11.930  0.00  0.00    +0.251 C 
ATOM     34  H   UNL     1      35.175 -25.258 -14.747  0.00  0.00    +0.148 HD
ENDBRANCH  23  25
ENDBRANCH  22  23
ENDBRANCH   6  22
TORSDOF 5
ENDMDL
MODEL 5
REMARK VINA RESULT:     -10.9      8.266     14.345
REMARK  Name = 24880024
REMARK  5 active torsions:
REMARK  status: ('A' for Active; 'I' for Inactive)
REMARK    1  A    between atoms: N_5  and  C_12
REMARK    2  A    between atoms: C_6  and  C_22
REMARK    3  A    between atoms: C_13  and  C_21
REMARK    4  A    between atoms: C_22  and  C_23
REMARK    5  A    between atoms: C_23  and  N_25
REMARK                            x       y       z     vdW  Elec       q    Type
REMARK                         _______ _______ _______ _____ _____    ______ ____
ROOT
ATOM      1  S   UNL     1      36.849 -20.525 -19.479  0.00  0.00    -0.056 S 
ATOM      2  O   UNL     1      35.382 -23.319 -16.038  0.00  0.00    -0.252 OA
ATOM      3  N   UNL     1      34.781 -21.744 -18.518  0.00  0.00    -0.223 NA
ATOM      4  N   UNL     1      36.857 -22.023 -17.328  0.00  0.00    -0.248 N 
ATOM      5  N   UNL     1      37.635 -23.143 -15.433  0.00  0.00    -0.268 N 
ATOM      6  C   UNL     1      35.358 -20.349 -20.307  0.00  0.00    +0.031 C 
ATOM      7  C   UNL     1      34.378 -21.064 -19.650  0.00  0.00    +0.103 C 
ATOM      8  C   UNL     1      36.065 -21.532 -18.331  0.00  0.00    +0.166 C 
ATOM      9  C   UNL     1      36.511 -22.881 -16.234  0.00  0.00    +0.310 C 
ATOM     10  H   UNL     1      37.802 -21.747 -17.363  0.00  0.00    +0.158 HD
ATOM     11  H   UNL     1      38.476 -22.720 -15.717  0.00  0.00    +0.156 HD
ENDROOT
BRANCH   5  12
ATOM     12  C   UNL     1      37.705 -23.942 -14.267  0.00  0.00    +0.052 C 
ATOM     13  C   UNL     1      36.954 -24.446 -12.027  0.00  0.00    +0.073 C 
ATOM     14  C   UNL     1      36.884 -23.658 -13.176  0.00  0.00    +0.019 C 
ATOM     15  C   UNL     1      38.595 -25.014 -14.210  0.00  0.00    +0.015 C 
ATOM     16  C   UNL     1      37.844 -25.518 -11.970  0.00  0.00    +0.004 C 
ATOM     17  C   UNL     1      38.665 -25.802 -13.061  0.00  0.00    +0.001 C 
BRANCH  13  21
ATOM     18  F   UNL     1      35.568 -25.255 -10.253  0.00  0.00    -0.166 F 
ATOM     19  F   UNL     1      36.711 -23.453  -9.864  0.00  0.00    -0.166 F 
ATOM     20  F   UNL     1      34.995 -23.383 -11.198  0.00  0.00    -0.166 F 
ATOM     21  C   UNL     1      36.077 -24.143 -10.859  0.00  0.00    +0.419 C 
ENDBRANCH  13  21
ENDBRANCH   5  12
BRANCH   6  22
ATOM     22  C   UNL     1      35.268 -19.507 -21.556  0.00  0.00    +0.056 C 
BRANCH  22  23
ATOM     23  C   UNL     1      36.362 -18.443 -21.642  0.00  0.00    +0.093 C 
BRANCH  23  25
ATOM     24  S   UNL     1      34.575 -14.162 -21.560  0.00  0.00    -0.101 S 
ATOM     25  N   UNL     1      35.797 -17.128 -21.683  0.00  0.00    -0.320 N 
ATOM     26  N   UNL     1      35.293 -17.263 -24.006  0.00  0.00    -0.233 NA
ATOM     27  N   UNL     1      34.238 -15.449 -25.210  0.00  0.00    -0.247 NA
ATOM     28  C   UNL     1      35.273 -16.557 -22.858  0.00  0.00    +0.118 C 
ATOM     29  C   UNL     1      34.732 -15.277 -22.856  0.00  0.00    +0.145 C 
ATOM     30  C   UNL     1      34.225 -14.750 -24.043  0.00  0.00    +0.073 C 
ATOM     31  C   UNL     1      33.711 -13.431 -23.864  0.00  0.00    +0.022 C 
ATOM     32  C   UNL     1      33.839 -12.993 -22.566  0.00  0.00    +0.033 C 
ATOM     33  C   UNL     1      34.780 -16.672 -25.101  0.00  0.00    +0.251 C 
ATOM     34  H   UNL     1      35.775 -16.600 -20.854  0.00  0.00    +0.148 HD
ENDBRANCH  23  25
ENDBRANCH  22  23
ENDBRANCH   6  22
TORSDOF 5
ENDMDL
MODEL 6
REMARK VINA RESULT:     -10.6      7.196     13.189
REMARK  Name = 24880024
REMARK  5 active torsions:
REMARK  status: ('A' for Active; 'I' for Inactive)
REMARK    1  A    between atoms: N_5  and  C_12
REMARK    2  A    between atoms: C_6  and  C_22
REMARK    3  A    between atoms: C_13  and  C_21
REMARK    4  A    between atoms: C_22  and  C_23
REMARK    5  A    between atoms: C_23  and  N_25
REMARK                            x       y       z     vdW  Elec       q    Type
REMARK                         _______ _______ _______ _____ _____    ______ ____
ROOT
ATOM      1  S   UNL     1      36.283 -20.474 -20.148  0.00  0.00    -0.056 S 
ATOM      2  O   UNL     1      32.303 -21.908 -18.173  0.00  0.00    -0.252 OA
ATOM      3  N   UNL     1      33.706 -20.389 -20.345  0.00  0.00    -0.223 NA
ATOM      4  N   UNL     1      34.614 -21.637 -18.495  0.00  0.00    -0.248 N 
ATOM      5  N   UNL     1      33.823 -22.892 -16.692  0.00  0.00    -0.268 N 
ATOM      6  C   UNL     1      35.606 -19.596 -21.457  0.00  0.00    +0.031 C 
ATOM      7  C   UNL     1      34.230 -19.662 -21.396  0.00  0.00    +0.103 C 
ATOM      8  C   UNL     1      34.696 -20.863 -19.622  0.00  0.00    +0.166 C 
ATOM      9  C   UNL     1      33.454 -22.130 -17.813  0.00  0.00    +0.310 C 
ATOM     10  H   UNL     1      35.477 -21.893 -18.096  0.00  0.00    +0.158 HD
ATOM     11  H   UNL     1      34.790 -22.982 -16.530  0.00  0.00    +0.156 HD
ENDROOT
BRANCH   5  12
ATOM     12  C   UNL     1      32.975 -23.546 -15.767  0.00  0.00    +0.052 C 
ATOM     13  C   UNL     1      30.758 -24.173 -15.041  0.00  0.00    +0.073 C 
ATOM     14  C   UNL     1      31.594 -23.528 -15.953  0.00  0.00    +0.019 C 
ATOM     15  C   UNL     1      33.522 -24.210 -14.669  0.00  0.00    +0.015 C 
ATOM     16  C   UNL     1      31.305 -24.837 -13.944  0.00  0.00    +0.004 C 
ATOM     17  C   UNL     1      32.688 -24.856 -13.757  0.00  0.00    +0.001 C 
BRANCH  13  21
ATOM     18  F   UNL     1      28.890 -24.533 -16.491  0.00  0.00    -0.166 F 
ATOM     19  F   UNL     1      28.604 -24.983 -14.389  0.00  0.00    -0.166 F 
ATOM     20  F   UNL     1      28.741 -22.915 -15.047  0.00  0.00    -0.166 F 
ATOM     21  C   UNL     1      29.280 -24.154 -15.239  0.00  0.00    +0.419 C 
ENDBRANCH  13  21
ENDBRANCH   5  12
BRANCH   6  22
ATOM     22  C   UNL     1      36.497 -18.899 -22.456  0.00  0.00    +0.056 C 
BRANCH  22  23
ATOM     23  C   UNL     1      35.725 -18.013 -23.433  0.00  0.00    +0.093 C 
BRANCH  23  25
ATOM     24  S   UNL     1      34.415 -14.173 -21.183  0.00  0.00    -0.101 S 
ATOM     25  N   UNL     1      35.296 -16.804 -22.798  0.00  0.00    -0.320 N 
ATOM     26  N   UNL     1      34.426 -15.884 -24.813  0.00  0.00    -0.233 NA
ATOM     27  N   UNL     1      33.385 -13.702 -24.898  0.00  0.00    -0.247 NA
ATOM     28  C   UNL     1      34.656 -15.760 -23.491  0.00  0.00    +0.118 C 
ATOM     29  C   UNL     1      34.255 -14.601 -22.837  0.00  0.00    +0.145 C 
ATOM     30  C   UNL     1      33.624 -13.592 -23.564  0.00  0.00    +0.073 C 
ATOM     31  C   UNL     1      33.281 -12.477 -22.742  0.00  0.00    +0.022 C 
ATOM     32  C   UNL     1      33.654 -12.663 -21.430  0.00  0.00    +0.033 C 
ATOM     33  C   UNL     1      33.811 -14.858 -25.430  0.00  0.00    +0.251 C 
ATOM     34  H   UNL     1      35.458 -16.697 -21.833  0.00  0.00    +0.148 HD
ENDBRANCH  23  25
ENDBRANCH  22  23
ENDBRANCH   6  22
TORSDOF 5
ENDMDL
MODEL 7
REMARK VINA RESULT:     -10.6      8.041     13.964
REMARK  Name = 24880024
REMARK  5 active torsions:
REMARK  status: ('A' for Active; 'I' for Inactive)
REMARK    1  A    between atoms: N_5  and  C_12
REMARK    2  A    between atoms: C_6  and  C_22
REMARK    3  A    between atoms: C_13  and  C_21
REMARK    4  A    between atoms: C_22  and  C_23
REMARK    5  A    between atoms: C_23  and  N_25
REMARK                            x       y       z     vdW  Elec       q    Type
REMARK                         _______ _______ _______ _____ _____    ______ ____
ROOT
ATOM      1  S   UNL     1      36.591 -20.272 -20.059  0.00  0.00    -0.056 S 
ATOM      2  O   UNL     1      35.493 -22.937 -16.385  0.00  0.00    -0.252 OA
ATOM      3  N   UNL     1      34.638 -21.461 -18.852  0.00  0.00    -0.223 NA
ATOM      4  N   UNL     1      36.823 -21.686 -17.863  0.00  0.00    -0.248 N 
ATOM      5  N   UNL     1      37.793 -22.728 -16.013  0.00  0.00    -0.268 N 
ATOM      6  C   UNL     1      35.024 -20.134 -20.741  0.00  0.00    +0.031 C 
ATOM      7  C   UNL     1      34.119 -20.827 -19.964  0.00  0.00    +0.103 C 
ATOM      8  C   UNL     1      35.932 -21.237 -18.801  0.00  0.00    +0.166 C 
ATOM      9  C   UNL     1      36.593 -22.502 -16.708  0.00  0.00    +0.310 C 
ATOM     10  H   UNL     1      37.757 -21.407 -18.002  0.00  0.00    +0.158 HD
ATOM     11  H   UNL     1      38.599 -22.313 -16.396  0.00  0.00    +0.156 HD
ENDROOT
BRANCH   5  12
ATOM     12  C   UNL     1      37.984 -23.481 -14.830  0.00  0.00    +0.052 C 
ATOM     13  C   UNL     1      37.403 -23.955 -12.534  0.00  0.00    +0.073 C 
ATOM     14  C   UNL     1      37.214 -23.212 -13.699  0.00  0.00    +0.019 C 
ATOM     15  C   UNL     1      38.943 -24.494 -14.796  0.00  0.00    +0.015 C 
ATOM     16  C   UNL     1      38.362 -24.967 -12.500  0.00  0.00    +0.004 C 
ATOM     17  C   UNL     1      39.132 -25.237 -13.631  0.00  0.00    +0.001 C 
BRANCH  13  21
ATOM     18  F   UNL     1      36.444 -24.737 -10.487  0.00  0.00    -0.166 F 
ATOM     19  F   UNL     1      37.088 -22.667 -10.543  0.00  0.00    -0.166 F 
ATOM     20  F   UNL     1      35.309 -23.280 -11.633  0.00  0.00    -0.166 F 
ATOM     21  C   UNL     1      36.580 -23.667 -11.323  0.00  0.00    +0.419 C 
ENDBRANCH  13  21
ENDBRANCH   5  12
BRANCH   6  22
ATOM     22  C   UNL     1      34.804 -19.341 -22.006  0.00  0.00    +0.056 C 
BRANCH  22  23
ATOM     23  C   UNL     1      35.938 -18.359 -22.302  0.00  0.00    +0.093 C 
BRANCH  23  25
ATOM     24  S   UNL     1      34.401 -14.797 -24.846  0.00  0.00    -0.101 S 
ATOM     25  N   UNL     1      35.455 -17.224 -23.029  0.00  0.00    -0.320 N 
ATOM     26  N   UNL     1      35.118 -15.927 -21.062  0.00  0.00    -0.233 NA
ATOM     27  N   UNL     1      34.261 -13.666 -21.133  0.00  0.00    -0.247 NA
ATOM     28  C   UNL     1      35.053 -16.029 -22.404  0.00  0.00    +0.118 C 
ATOM     29  C   UNL     1      34.590 -14.949 -23.147  0.00  0.00    +0.145 C 
ATOM     30  C   UNL     1      34.202 -13.785 -22.486  0.00  0.00    +0.073 C 
ATOM     31  C   UNL     1      33.754 -12.780 -23.396  0.00  0.00    +0.022 C 
ATOM     32  C   UNL     1      33.811 -13.199 -24.705  0.00  0.00    +0.033 C 
ATOM     33  C   UNL     1      34.723 -14.764 -20.514  0.00  0.00    +0.251 C 
ATOM     34  H   UNL     1      35.401 -17.283 -24.010  0.00  0.00    +0.148 HD
ENDBRANCH  23  25
ENDBRANCH  22  23
ENDBRANCH   6  22
TORSDOF 5
ENDMDL
MODEL 8
REMARK VINA RESULT:     -10.4      3.487      6.033
REMARK  Name = 24880024
REMARK  5 active torsions:
REMARK  status: ('A' for Active; 'I' for Inactive)
REMARK    1  A    between atoms: N_5  and  C_12
REMARK    2  A    between atoms: C_6  and  C_22
REMARK    3  A    between atoms: C_13  and  C_21
REMARK    4  A    between atoms: C_22  and  C_23
REMARK    5  A    between atoms: C_23  and  N_25
REMARK                            x       y       z     vdW  Elec       q    Type
REMARK                         _______ _______ _______ _____ _____    ______ ____
ROOT
ATOM      1  S   UNL     1      34.722 -19.358 -21.379  0.00  0.00    -0.056 S 
ATOM      2  O   UNL     1      36.070 -15.419 -23.492  0.00  0.00    -0.252 OA
ATOM      3  N   UNL     1      36.741 -17.795 -21.789  0.00  0.00    -0.223 NA
ATOM      4  N   UNL     1      34.648 -17.154 -22.796  0.00  0.00    -0.248 N 
ATOM      5  N   UNL     1      33.821 -15.428 -24.132  0.00  0.00    -0.268 N 
ATOM      6  C   UNL     1      36.227 -19.790 -20.679  0.00  0.00    +0.031 C 
ATOM      7  C   UNL     1      37.176 -18.843 -21.003  0.00  0.00    +0.103 C 
ATOM      8  C   UNL     1      35.463 -17.962 -22.049  0.00  0.00    +0.166 C 
ATOM      9  C   UNL     1      34.958 -15.935 -23.483  0.00  0.00    +0.310 C 
ATOM     10  H   UNL     1      33.713 -17.454 -22.874  0.00  0.00    +0.158 HD
ATOM     11  H   UNL     1      32.995 -15.955 -24.034  0.00  0.00    +0.156 HD
ENDROOT
BRANCH   5  12
ATOM     12  C   UNL     1      33.716 -14.251 -24.912  0.00  0.00    +0.052 C 
ATOM     13  C   UNL     1      33.958 -11.858 -25.131  0.00  0.00    +0.073 C 
ATOM     14  C   UNL     1      34.061 -13.017 -24.362  0.00  0.00    +0.019 C 
ATOM     15  C   UNL     1      33.269 -14.327 -26.231  0.00  0.00    +0.015 C 
ATOM     16  C   UNL     1      33.511 -11.933 -26.450  0.00  0.00    +0.004 C 
ATOM     17  C   UNL     1      33.167 -13.168 -27.000  0.00  0.00    +0.001 C 
BRANCH  13  21
ATOM     18  F   UNL     1      35.341  -9.907 -25.205  0.00  0.00    -0.166 F 
ATOM     19  F   UNL     1      33.297  -9.638 -24.533  0.00  0.00    -0.166 F 
ATOM     20  F   UNL     1      34.739 -10.636 -23.247  0.00  0.00    -0.166 F 
ATOM     21  C   UNL     1      34.326 -10.537 -24.544  0.00  0.00    +0.419 C 
ENDBRANCH  13  21
ENDBRANCH   5  12
BRANCH   6  22
ATOM     22  C   UNL     1      36.357 -21.045 -19.851  0.00  0.00    +0.056 C 
BRANCH  22  23
ATOM     23  C   UNL     1      35.019 -21.544 -19.306  0.00  0.00    +0.093 C 
BRANCH  23  25
ATOM     24  S   UNL     1      35.758 -23.394 -15.116  0.00  0.00    -0.101 S 
ATOM     25  N   UNL     1      35.179 -22.122 -18.006  0.00  0.00    -0.320 N 
ATOM     26  N   UNL     1      32.836 -22.380 -17.674  0.00  0.00    -0.233 NA
ATOM     27  N   UNL     1      31.912 -23.332 -15.651  0.00  0.00    -0.247 NA
ATOM     28  C   UNL     1      34.093 -22.530 -17.210  0.00  0.00    +0.118 C 
ATOM     29  C   UNL     1      34.291 -23.087 -15.952  0.00  0.00    +0.145 C 
ATOM     30  C   UNL     1      33.185 -23.476 -15.197  0.00  0.00    +0.073 C 
ATOM     31  C   UNL     1      33.567 -24.026 -13.937  0.00  0.00    +0.022 C 
ATOM     32  C   UNL     1      34.932 -24.039 -13.766  0.00  0.00    +0.033 C 
ATOM     33  C   UNL     1      31.832 -22.786 -16.875  0.00  0.00    +0.251 C 
ATOM     34  H   UNL     1      36.090 -22.237 -17.652  0.00  0.00    +0.148 HD
ENDBRANCH  23  25
ENDBRANCH  22  23
ENDBRANCH   6  22
TORSDOF 5
ENDMDL
MODEL 9
REMARK VINA RESULT:     -10.4      1.533      1.980
REMARK  Name = 24880024
REMARK  5 active torsions:
REMARK  status: ('A' for Active; 'I' for Inactive)
REMARK    1  A    between atoms: N_5  and  C_12
REMARK    2  A    between atoms: C_6  and  C_22
REMARK    3  A    between atoms: C_13  and  C_21
REMARK    4  A    between atoms: C_22  and  C_23
REMARK    5  A    between atoms: C_23  and  N_25
REMARK                            x       y       z     vdW  Elec       q    Type
REMARK                         _______ _______ _______ _____ _____    ______ ____
ROOT
ATOM      1  S   UNL     1      34.067 -14.001 -23.035  0.00  0.00    -0.056 S 
ATOM      2  O   UNL     1      33.224  -9.699 -24.643  0.00  0.00    -0.252 OA
ATOM      3  N   UNL     1      33.681 -12.614 -25.183  0.00  0.00    -0.223 NA
ATOM      4  N   UNL     1      33.628 -11.417 -23.092  0.00  0.00    -0.248 N 
ATOM      5  N   UNL     1      33.308  -9.226 -22.353  0.00  0.00    -0.268 N 
ATOM      6  C   UNL     1      34.095 -14.825 -24.539  0.00  0.00    +0.031 C 
ATOM      7  C   UNL     1      33.873 -13.927 -25.562  0.00  0.00    +0.103 C 
ATOM      8  C   UNL     1      33.762 -12.534 -23.873  0.00  0.00    +0.166 C 
ATOM      9  C   UNL     1      33.370 -10.062 -23.480  0.00  0.00    +0.310 C 
ATOM     10  H   UNL     1      33.724 -11.566 -22.123  0.00  0.00    +0.158 HD
ATOM     11  H   UNL     1      33.445  -9.663 -21.482  0.00  0.00    +0.156 HD
ENDROOT
BRANCH   5  12
ATOM     12  C   UNL     1      33.072  -7.831 -22.317  0.00  0.00    +0.052 C 
ATOM     13  C   UNL     1      33.209  -5.657 -23.362  0.00  0.00    +0.073 C 
ATOM     14  C   UNL     1      33.442  -7.032 -23.398  0.00  0.00    +0.019 C 
ATOM     15  C   UNL     1      32.469  -7.256 -21.199  0.00  0.00    +0.015 C 
ATOM     16  C   UNL     1      32.605  -5.082 -22.244  0.00  0.00    +0.004 C 
ATOM     17  C   UNL     1      32.235  -5.881 -21.162  0.00  0.00    +0.001 C 
BRANCH  13  21
ATOM     18  F   UNL     1      32.913  -5.075 -25.663  0.00  0.00    -0.166 F 
ATOM     19  F   UNL     1      33.416  -3.466 -24.299  0.00  0.00    -0.166 F 
ATOM     20  F   UNL     1      34.922  -4.937 -24.844  0.00  0.00    -0.166 F 
ATOM     21  C   UNL     1      33.604  -4.802 -24.518  0.00  0.00    +0.419 C 
ENDBRANCH  13  21
ENDBRANCH   5  12
BRANCH   6  22
ATOM     22  C   UNL     1      34.338 -16.314 -24.594  0.00  0.00    +0.056 C 
BRANCH  22  23
ATOM     23  C   UNL     1      35.325 -16.800 -23.533  0.00  0.00    +0.093 C 
BRANCH  23  25
ATOM     24  S   UNL     1      33.184 -19.956 -20.892  0.00  0.00    -0.101 S 
ATOM     25  N   UNL     1      34.725 -17.788 -22.689  0.00  0.00    -0.320 N 
ATOM     26  N   UNL     1      36.788 -18.361 -21.651  0.00  0.00    -0.233 NA
ATOM     27  N   UNL     1      36.947 -20.058 -19.933  0.00  0.00    -0.247 NA
ATOM     28  C   UNL     1      35.459 -18.553 -21.764  0.00  0.00    +0.118 C 
ATOM     29  C   UNL     1      34.838 -19.504 -20.962  0.00  0.00    +0.145 C 
ATOM     30  C   UNL     1      35.605 -20.239 -20.060  0.00  0.00    +0.073 C 
ATOM     31  C   UNL     1      34.813 -21.167 -19.320  0.00  0.00    +0.022 C 
ATOM     32  C   UNL     1      33.484 -21.117 -19.673  0.00  0.00    +0.033 C 
ATOM     33  C   UNL     1      37.445 -19.117 -20.751  0.00  0.00    +0.251 C 
ATOM     34  H   UNL     1      33.755 -17.941 -22.761  0.00  0.00    +0.148 HD
ENDBRANCH  23  25
ENDBRANCH  22  23
ENDBRANCH   6  22
TORSDOF 5
ENDMDL
