MODEL 1
REMARK VINA RESULT:     -11.7      0.000      0.000
REMARK  Name = 24779724
REMARK  3 active torsions:
REMARK  status: ('A' for Active; 'I' for Inactive)
REMARK    1  A    between atoms: C_5  and  C_12
REMARK    2  A    between atoms: C_7  and  S_16
REMARK    3  A    between atoms: S_16  and  C_19
REMARK                            x       y       z     vdW  Elec       q    Type
REMARK                         _______ _______ _______ _____ _____    ______ ____
ROOT
ATOM      1  N   UNL     1      34.704 -21.299 -18.911  0.00  0.00    -0.186 N 
ATOM      2  N   UNL     1      35.721 -21.669 -18.094  0.00  0.00    -0.162 NA
ATOM      3  N   UNL     1      32.700 -21.072 -19.781  0.00  0.00    -0.126 NA
ATOM      4  N   UNL     1      33.598 -20.372 -20.561  0.00  0.00    -0.120 NA
ATOM      5  C   UNL     1      35.347 -22.412 -17.091  0.00  0.00    +0.104 C 
ATOM      6  C   UNL     1      33.373 -21.624 -18.793  0.00  0.00    +0.187 A 
ATOM      7  C   UNL     1      34.791 -20.520 -20.029  0.00  0.00    +0.217 A 
ATOM      8  C   UNL     1      33.936 -22.859 -16.847  0.00  0.00    +0.024 C 
ATOM      9  C   UNL     1      33.000 -22.443 -17.710  0.00  0.00    +0.042 C 
ENDROOT
BRANCH   5  12
ATOM     10  N   UNL     1      37.378 -23.935 -14.495  0.00  0.00    -0.208 N 
ATOM     11  N   UNL     1      38.332 -23.120 -14.976  0.00  0.00    -0.176 NA
ATOM     12  C   UNL     1      36.369 -22.878 -16.120  0.00  0.00    +0.056 C 
ATOM     13  C   UNL     1      36.183 -23.828 -15.145  0.00  0.00    +0.087 C 
ATOM     14  C   UNL     1      37.711 -22.477 -15.968  0.00  0.00    +0.121 C 
ATOM     15  C   UNL     1      37.675 -24.812 -13.388  0.00  0.00    +0.140 C 
ENDBRANCH   5  12
BRANCH   7  16
ATOM     16  S   UNL     1      36.322 -19.828 -20.633  0.00  0.00    -0.051 S 
BRANCH  16  19
ATOM     17  N   UNL     1      34.359 -16.344 -25.037  0.00  0.00    -0.248 NA
ATOM     18  C   UNL     1      35.160 -16.570 -22.776  0.00  0.00    -0.003 C 
ATOM     19  C   UNL     1      35.737 -18.776 -21.945  0.00  0.00    +0.011 C 
ATOM     20  C   UNL     1      34.806 -17.114 -24.028  0.00  0.00    +0.060 C 
ATOM     21  C   UNL     1      35.622 -17.403 -21.744  0.00  0.00    +0.060 C 
ATOM     22  C   UNL     1      35.389 -19.319 -23.175  0.00  0.00    -0.017 C 
ATOM     23  C   UNL     1      34.930 -18.491 -24.201  0.00  0.00    +0.072 C 
ATOM     24  C   UNL     1      35.035 -15.185 -22.601  0.00  0.00    -0.001 C 
ATOM     25  C   UNL     1      34.576 -14.388 -23.639  0.00  0.00    +0.020 C 
ATOM     26  C   UNL     1      34.254 -15.013 -24.828  0.00  0.00    +0.098 C 
ENDBRANCH  16  19
ENDBRANCH   7  16
TORSDOF 3
ENDMDL
MODEL 2
REMARK VINA RESULT:     -10.7      1.194      1.833
REMARK  Name = 24779724
REMARK  3 active torsions:
REMARK  status: ('A' for Active; 'I' for Inactive)
REMARK    1  A    between atoms: C_5  and  C_12
REMARK    2  A    between atoms: C_7  and  S_16
REMARK    3  A    between atoms: S_16  and  C_19
REMARK                            x       y       z     vdW  Elec       q    Type
REMARK                         _______ _______ _______ _____ _____    ______ ____
ROOT
ATOM      1  N   UNL     1      34.658 -21.986 -18.141  0.00  0.00    -0.186 N 
ATOM      2  N   UNL     1      35.627 -22.414 -17.294  0.00  0.00    -0.162 NA
ATOM      3  N   UNL     1      32.692 -21.586 -19.035  0.00  0.00    -0.126 NA
ATOM      4  N   UNL     1      33.664 -21.053 -19.858  0.00  0.00    -0.120 NA
ATOM      5  C   UNL     1      35.170 -23.037 -16.244  0.00  0.00    +0.104 C 
ATOM      6  C   UNL     1      33.299 -22.144 -18.008  0.00  0.00    +0.187 A 
ATOM      7  C   UNL     1      34.832 -21.302 -19.310  0.00  0.00    +0.217 A 
ATOM      8  C   UNL     1      33.718 -23.297 -15.978  0.00  0.00    +0.024 C 
ATOM      9  C   UNL     1      32.835 -22.836 -16.873  0.00  0.00    +0.042 C 
ENDROOT
BRANCH   5  12
ATOM     10  N   UNL     1      37.187 -24.838 -13.820  0.00  0.00    -0.208 N 
ATOM     11  N   UNL     1      37.871 -23.683 -13.759  0.00  0.00    -0.176 NA
ATOM     12  C   UNL     1      36.134 -23.550 -15.237  0.00  0.00    +0.056 C 
ATOM     13  C   UNL     1      36.136 -24.810 -14.690  0.00  0.00    +0.087 C 
ATOM     14  C   UNL     1      37.224 -22.900 -14.627  0.00  0.00    +0.121 C 
ATOM     15  C   UNL     1      37.594 -25.956 -13.004  0.00  0.00    +0.140 C 
ENDBRANCH   5  12
BRANCH   7  16
ATOM     16  S   UNL     1      36.433 -20.838 -19.952  0.00  0.00    -0.051 S 
BRANCH  16  19
ATOM     17  N   UNL     1      35.014 -16.240 -23.450  0.00  0.00    -0.248 NA
ATOM     18  C   UNL     1      34.956 -18.611 -23.020  0.00  0.00    -0.003 C 
ATOM     19  C   UNL     1      36.002 -19.468 -21.006  0.00  0.00    +0.011 C 
ATOM     20  C   UNL     1      35.324 -17.294 -22.672  0.00  0.00    +0.060 C 
ATOM     21  C   UNL     1      35.297 -19.687 -22.185  0.00  0.00    +0.060 C 
ATOM     22  C   UNL     1      36.369 -18.175 -20.657  0.00  0.00    -0.017 C 
ATOM     23  C   UNL     1      36.030 -17.104 -21.487  0.00  0.00    +0.072 C 
ATOM     24  C   UNL     1      34.246 -18.802 -24.213  0.00  0.00    -0.001 C 
ATOM     25  C   UNL     1      33.924 -17.718 -25.017  0.00  0.00    +0.020 C 
ATOM     26  C   UNL     1      34.328 -16.468 -24.593  0.00  0.00    +0.098 C 
ENDBRANCH  16  19
ENDBRANCH   7  16
TORSDOF 3
ENDMDL
MODEL 3
REMARK VINA RESULT:     -10.6      2.958      4.258
REMARK  Name = 24779724
REMARK  3 active torsions:
REMARK  status: ('A' for Active; 'I' for Inactive)
REMARK    1  A    between atoms: C_5  and  C_12
REMARK    2  A    between atoms: C_7  and  S_16
REMARK    3  A    between atoms: S_16  and  C_19
REMARK                            x       y       z     vdW  Elec       q    Type
REMARK                         _______ _______ _______ _____ _____    ______ ____
ROOT
ATOM      1  N   UNL     1      33.056 -23.250 -15.818  0.00  0.00    -0.186 N 
ATOM      2  N   UNL     1      34.137 -23.771 -15.187  0.00  0.00    -0.162 NA
ATOM      3  N   UNL     1      31.090 -22.346 -16.193  0.00  0.00    -0.126 NA
ATOM      4  N   UNL     1      31.717 -22.549 -17.405  0.00  0.00    -0.120 NA
ATOM      5  C   UNL     1      34.027 -23.795 -13.888  0.00  0.00    +0.104 C 
ATOM      6  C   UNL     1      31.902 -22.770 -15.247  0.00  0.00    +0.187 A 
ATOM      7  C   UNL     1      32.889 -23.091 -17.164  0.00  0.00    +0.217 A 
ATOM      8  C   UNL     1      32.822 -23.323 -13.131  0.00  0.00    +0.024 C 
ATOM      9  C   UNL     1      31.803 -22.825 -13.843  0.00  0.00    +0.042 C 
ENDROOT
BRANCH   5  12
ATOM     10  N   UNL     1      37.045 -25.245 -12.483  0.00  0.00    -0.208 N 
ATOM     11  N   UNL     1      36.444 -24.979 -11.311  0.00  0.00    -0.176 NA
ATOM     12  C   UNL     1      35.149 -24.338 -13.080  0.00  0.00    +0.056 C 
ATOM     13  C   UNL     1      36.310 -24.881 -13.573  0.00  0.00    +0.087 C 
ATOM     14  C   UNL     1      35.287 -24.425 -11.681  0.00  0.00    +0.121 C 
ATOM     15  C   UNL     1      38.349 -25.862 -12.496  0.00  0.00    +0.140 C 
ENDBRANCH   5  12
BRANCH   7  16
ATOM     16  S   UNL     1      34.116 -23.564 -18.373  0.00  0.00    -0.051 S 
BRANCH  16  19
ATOM     17  N   UNL     1      34.914 -18.424 -21.258  0.00  0.00    -0.248 NA
ATOM     18  C   UNL     1      35.857 -20.330 -20.126  0.00  0.00    -0.003 C 
ATOM     19  C   UNL     1      34.366 -22.027 -19.236  0.00  0.00    +0.011 C 
ATOM     20  C   UNL     1      34.756 -19.589 -20.604  0.00  0.00    +0.060 C 
ATOM     21  C   UNL     1      35.654 -21.543 -19.446  0.00  0.00    +0.060 C 
ATOM     22  C   UNL     1      33.277 -21.302 -19.704  0.00  0.00    -0.017 C 
ATOM     23  C   UNL     1      33.478 -20.096 -20.380  0.00  0.00    +0.072 C 
ATOM     24  C   UNL     1      37.142 -19.820 -20.351  0.00  0.00    -0.001 C 
ATOM     25  C   UNL     1      37.309 -18.620 -21.026  0.00  0.00    +0.020 C 
ATOM     26  C   UNL     1      36.171 -17.966 -21.455  0.00  0.00    +0.098 C 
ENDBRANCH  16  19
ENDBRANCH   7  16
TORSDOF 3
ENDMDL
MODEL 4
REMARK VINA RESULT:     -10.4      6.248     11.911
REMARK  Name = 24779724
REMARK  3 active torsions:
REMARK  status: ('A' for Active; 'I' for Inactive)
REMARK    1  A    between atoms: C_5  and  C_12
REMARK    2  A    between atoms: C_7  and  S_16
REMARK    3  A    between atoms: S_16  and  C_19
REMARK                            x       y       z     vdW  Elec       q    Type
REMARK                         _______ _______ _______ _____ _____    ______ ____
ROOT
ATOM      1  N   UNL     1      32.711 -11.240 -22.011  0.00  0.00    -0.186 N 
ATOM      2  N   UNL     1      32.906 -10.018 -22.566  0.00  0.00    -0.162 NA
ATOM      3  N   UNL     1      32.048 -12.839 -20.659  0.00  0.00    -0.126 NA
ATOM      4  N   UNL     1      32.781 -13.406 -21.682  0.00  0.00    -0.120 NA
ATOM      5  C   UNL     1      32.343  -9.046 -21.906  0.00  0.00    +0.104 C 
ATOM      6  C   UNL     1      32.012 -11.540 -20.866  0.00  0.00    +0.187 A 
ATOM      7  C   UNL     1      33.171 -12.438 -22.480  0.00  0.00    +0.217 A 
ATOM      8  C   UNL     1      31.567  -9.221 -20.635  0.00  0.00    +0.024 C 
ATOM      9  C   UNL     1      31.430 -10.466 -20.164  0.00  0.00    +0.042 C 
ENDROOT
BRANCH   5  12
ATOM     10  N   UNL     1      32.067  -5.725 -23.349  0.00  0.00    -0.208 N 
ATOM     11  N   UNL     1      33.338  -5.603 -22.929  0.00  0.00    -0.176 NA
ATOM     12  C   UNL     1      32.479  -7.657 -22.416  0.00  0.00    +0.056 C 
ATOM     13  C   UNL     1      31.507  -6.937 -23.067  0.00  0.00    +0.087 C 
ATOM     14  C   UNL     1      33.584  -6.785 -22.360  0.00  0.00    +0.121 C 
ATOM     15  C   UNL     1      31.428  -4.625 -24.030  0.00  0.00    +0.140 C 
ENDBRANCH   5  12
BRANCH   7  16
ATOM     16  S   UNL     1      34.150 -12.606 -23.964  0.00  0.00    -0.051 S 
BRANCH  16  19
ATOM     17  N   UNL     1      34.472 -18.521 -24.500  0.00  0.00    -0.248 NA
ATOM     18  C   UNL     1      35.171 -16.502 -23.386  0.00  0.00    -0.003 C 
ATOM     19  C   UNL     1      34.253 -14.377 -24.115  0.00  0.00    +0.011 C 
ATOM     20  C   UNL     1      34.413 -17.184 -24.361  0.00  0.00    +0.060 C 
ATOM     21  C   UNL     1      35.086 -15.105 -23.270  0.00  0.00    +0.060 C 
ATOM     22  C   UNL     1      33.505 -15.041 -25.078  0.00  0.00    -0.017 C 
ATOM     23  C   UNL     1      33.589 -16.431 -25.194  0.00  0.00    +0.072 C 
ATOM     24  C   UNL     1      36.000 -17.260 -22.549  0.00  0.00    -0.001 C 
ATOM     25  C   UNL     1      36.063 -18.639 -22.689  0.00  0.00    +0.020 C 
ATOM     26  C   UNL     1      35.284 -19.216 -23.672  0.00  0.00    +0.098 C 
ENDBRANCH  16  19
ENDBRANCH   7  16
TORSDOF 3
ENDMDL
MODEL 5
REMARK VINA RESULT:     -10.3      2.216      9.319
REMARK  Name = 24779724
REMARK  3 active torsions:
REMARK  status: ('A' for Active; 'I' for Inactive)
REMARK    1  A    between atoms: C_5  and  C_12
REMARK    2  A    between atoms: C_7  and  S_16
REMARK    3  A    between atoms: S_16  and  C_19
REMARK                            x       y       z     vdW  Elec       q    Type
REMARK                         _______ _______ _______ _____ _____    ______ ____
ROOT
ATOM      1  N   UNL     1      35.527 -20.061 -20.418  0.00  0.00    -0.186 N 
ATOM      2  N   UNL     1      34.838 -19.476 -21.429  0.00  0.00    -0.162 NA
ATOM      3  N   UNL     1      37.139 -20.606 -19.030  0.00  0.00    -0.126 NA
ATOM      4  N   UNL     1      36.008 -21.319 -18.689  0.00  0.00    -0.120 NA
ATOM      5  C   UNL     1      35.541 -18.622 -22.119  0.00  0.00    +0.104 C 
ATOM      6  C   UNL     1      36.840 -19.854 -20.069  0.00  0.00    +0.187 A 
ATOM      7  C   UNL     1      35.055 -20.983 -19.529  0.00  0.00    +0.217 A 
ATOM      8  C   UNL     1      36.985 -18.310 -21.864  0.00  0.00    +0.024 C 
ATOM      9  C   UNL     1      37.580 -18.939 -20.843  0.00  0.00    +0.042 C 
ENDROOT
BRANCH   5  12
ATOM     10  N   UNL     1      34.172 -16.345 -24.595  0.00  0.00    -0.208 N 
ATOM     11  N   UNL     1      33.753 -17.479 -25.183  0.00  0.00    -0.176 NA
ATOM     12  C   UNL     1      34.896 -17.910 -23.252  0.00  0.00    +0.056 C 
ATOM     13  C   UNL     1      34.861 -16.549 -23.435  0.00  0.00    +0.087 C 
ATOM     14  C   UNL     1      34.199 -18.431 -24.359  0.00  0.00    +0.121 C 
ATOM     15  C   UNL     1      33.875 -15.070 -25.203  0.00  0.00    +0.140 C 
ENDBRANCH   5  12
BRANCH   7  16
ATOM     16  S   UNL     1      33.381 -21.605 -19.547  0.00  0.00    -0.051 S 
BRANCH  16  19
ATOM     17  N   UNL     1      32.965 -23.901 -14.075  0.00  0.00    -0.248 NA
ATOM     18  C   UNL     1      31.905 -22.840 -15.962  0.00  0.00    -0.003 C 
ATOM     19  C   UNL     1      33.245 -22.290 -17.909  0.00  0.00    +0.011 C 
ATOM     20  C   UNL     1      33.037 -23.377 -15.313  0.00  0.00    +0.060 C 
ATOM     21  C   UNL     1      32.017 -22.301 -17.254  0.00  0.00    +0.060 C 
ATOM     22  C   UNL     1      34.364 -22.817 -17.276  0.00  0.00    -0.017 C 
ATOM     23  C   UNL     1      34.253 -23.353 -15.991  0.00  0.00    +0.072 C 
ATOM     24  C   UNL     1      30.682 -22.864 -15.279  0.00  0.00    -0.001 C 
ATOM     25  C   UNL     1      30.603 -23.403 -14.003  0.00  0.00    +0.020 C 
ATOM     26  C   UNL     1      31.765 -23.904 -13.451  0.00  0.00    +0.098 C 
ENDBRANCH  16  19
ENDBRANCH   7  16
TORSDOF 3
ENDMDL
MODEL 6
REMARK VINA RESULT:     -10.3      2.878      4.269
REMARK  Name = 24779724
REMARK  3 active torsions:
REMARK  status: ('A' for Active; 'I' for Inactive)
REMARK    1  A    between atoms: C_5  and  C_12
REMARK    2  A    between atoms: C_7  and  S_16
REMARK    3  A    between atoms: S_16  and  C_19
REMARK                            x       y       z     vdW  Elec       q    Type
REMARK                         _______ _______ _______ _____ _____    ______ ____
ROOT
ATOM      1  N   UNL     1      34.060 -23.610 -15.908  0.00  0.00    -0.186 N 
ATOM      2  N   UNL     1      35.254 -24.246 -15.813  0.00  0.00    -0.162 NA
ATOM      3  N   UNL     1      32.205 -22.559 -15.379  0.00  0.00    -0.126 NA
ATOM      4  N   UNL     1      32.253 -22.701 -16.751  0.00  0.00    -0.120 NA
ATOM      5  C   UNL     1      35.690 -24.368 -14.591  0.00  0.00    +0.104 C 
ATOM      6  C   UNL     1      33.294 -23.108 -14.882  0.00  0.00    +0.187 A 
ATOM      7  C   UNL     1      33.366 -23.332 -17.050  0.00  0.00    +0.217 A 
ATOM      8  C   UNL     1      34.954 -23.886 -13.376  0.00  0.00    +0.024 C 
ATOM      9  C   UNL     1      33.782 -23.270 -13.571  0.00  0.00    +0.042 C 
ENDROOT
BRANCH   5  12
ATOM     10  N   UNL     1      39.130 -25.482 -14.261  0.00  0.00    -0.208 N 
ATOM     11  N   UNL     1      38.562 -26.589 -13.754  0.00  0.00    -0.176 NA
ATOM     12  C   UNL     1      36.992 -25.043 -14.355  0.00  0.00    +0.056 C 
ATOM     13  C   UNL     1      38.232 -24.526 -14.637  0.00  0.00    +0.087 C 
ATOM     14  C   UNL     1      37.257 -26.316 -13.813  0.00  0.00    +0.121 C 
ATOM     15  C   UNL     1      40.567 -25.395 -14.363  0.00  0.00    +0.140 C 
ENDBRANCH   5  12
BRANCH   7  16
ATOM     16  S   UNL     1      33.934 -23.780 -18.683  0.00  0.00    -0.051 S 
BRANCH  16  19
ATOM     17  N   UNL     1      34.921 -18.423 -21.071  0.00  0.00    -0.248 NA
ATOM     18  C   UNL     1      35.793 -20.462 -20.129  0.00  0.00    -0.003 C 
ATOM     19  C   UNL     1      34.240 -22.178 -19.398  0.00  0.00    +0.011 C 
ATOM     20  C   UNL     1      34.720 -19.638 -20.529  0.00  0.00    +0.060 C 
ATOM     21  C   UNL     1      35.546 -21.725 -19.567  0.00  0.00    +0.060 C 
ATOM     22  C   UNL     1      33.179 -21.372 -19.789  0.00  0.00    -0.017 C 
ATOM     23  C   UNL     1      33.425 -20.116 -20.348  0.00  0.00    +0.072 C 
ATOM     24  C   UNL     1      37.096 -19.981 -20.311  0.00  0.00    -0.001 C 
ATOM     25  C   UNL     1      37.307 -18.729 -20.869  0.00  0.00    +0.020 C 
ATOM     26  C   UNL     1      36.195 -17.996 -21.230  0.00  0.00    +0.098 C 
ENDBRANCH  16  19
ENDBRANCH   7  16
TORSDOF 3
ENDMDL
MODEL 7
REMARK VINA RESULT:     -10.0      5.395      9.990
REMARK  Name = 24779724
REMARK  3 active torsions:
REMARK  status: ('A' for Active; 'I' for Inactive)
REMARK    1  A    between atoms: C_5  and  C_12
REMARK    2  A    between atoms: C_7  and  S_16
REMARK    3  A    between atoms: S_16  and  C_19
REMARK                            x       y       z     vdW  Elec       q    Type
REMARK                         _______ _______ _______ _____ _____    ______ ____
ROOT
ATOM      1  N   UNL     1      34.667 -23.006 -16.051  0.00  0.00    -0.186 N 
ATOM      2  N   UNL     1      33.432 -23.301 -15.576  0.00  0.00    -0.162 NA
ATOM      3  N   UNL     1      36.293 -22.298 -17.347  0.00  0.00    -0.126 NA
ATOM      4  N   UNL     1      36.846 -22.811 -16.191  0.00  0.00    -0.120 NA
ATOM      5  C   UNL     1      32.465 -22.966 -16.383  0.00  0.00    +0.104 C 
ATOM      6  C   UNL     1      34.986 -22.419 -17.253  0.00  0.00    +0.187 A 
ATOM      7  C   UNL     1      35.862 -23.231 -15.429  0.00  0.00    +0.217 A 
ATOM      8  C   UNL     1      32.663 -22.337 -17.729  0.00  0.00    +0.024 C 
ATOM      9  C   UNL     1      33.921 -22.085 -18.113  0.00  0.00    +0.042 C 
ENDROOT
BRANCH   5  12
ATOM     10  N   UNL     1      28.914 -23.031 -15.625  0.00  0.00    -0.208 N 
ATOM     11  N   UNL     1      29.199 -24.246 -15.124  0.00  0.00    -0.176 NA
ATOM     12  C   UNL     1      31.062 -23.232 -15.974  0.00  0.00    +0.056 C 
ATOM     13  C   UNL     1      29.996 -22.383 -16.145  0.00  0.00    +0.087 C 
ATOM     14  C   UNL     1      30.511 -24.363 -15.341  0.00  0.00    +0.121 C 
ATOM     15  C   UNL     1      27.560 -22.535 -15.575  0.00  0.00    +0.140 C 
ENDBRANCH   5  12
BRANCH   7  16
ATOM     16  S   UNL     1      36.007 -23.986 -13.817  0.00  0.00    -0.051 S 
BRANCH  16  19
ATOM     17  N   UNL     1      41.177 -26.884 -14.327  0.00  0.00    -0.248 NA
ATOM     18  C   UNL     1      38.905 -26.559 -15.060  0.00  0.00    -0.003 C 
ATOM     19  C   UNL     1      37.551 -24.860 -13.979  0.00  0.00    +0.011 C 
ATOM     20  C   UNL     1      39.999 -26.241 -14.229  0.00  0.00    +0.060 C 
ATOM     21  C   UNL     1      37.690 -25.866 -14.930  0.00  0.00    +0.060 C 
ATOM     22  C   UNL     1      38.624 -24.541 -13.156  0.00  0.00    -0.017 C 
ATOM     23  C   UNL     1      39.832 -25.229 -13.286  0.00  0.00    +0.072 C 
ATOM     24  C   UNL     1      39.072 -27.576 -16.009  0.00  0.00    -0.001 C 
ATOM     25  C   UNL     1      40.285 -28.242 -16.113  0.00  0.00    +0.020 C 
ATOM     26  C   UNL     1      41.297 -27.860 -15.256  0.00  0.00    +0.098 C 
ENDBRANCH  16  19
ENDBRANCH   7  16
TORSDOF 3
ENDMDL
MODEL 8
REMARK VINA RESULT:      -9.9      2.058      9.530
REMARK  Name = 24779724
REMARK  3 active torsions:
REMARK  status: ('A' for Active; 'I' for Inactive)
REMARK    1  A    between atoms: C_5  and  C_12
REMARK    2  A    between atoms: C_7  and  S_16
REMARK    3  A    between atoms: S_16  and  C_19
REMARK                            x       y       z     vdW  Elec       q    Type
REMARK                         _______ _______ _______ _____ _____    ______ ____
ROOT
ATOM      1  N   UNL     1      35.200 -21.547 -18.386  0.00  0.00    -0.186 N 
ATOM      2  N   UNL     1      35.774 -20.689 -19.266  0.00  0.00    -0.162 NA
ATOM      3  N   UNL     1      33.732 -22.827 -17.372  0.00  0.00    -0.126 NA
ATOM      4  N   UNL     1      34.929 -22.909 -16.690  0.00  0.00    -0.120 NA
ATOM      5  C   UNL     1      34.969 -20.285 -20.207  0.00  0.00    +0.104 C 
ATOM      6  C   UNL     1      33.905 -22.008 -18.387  0.00  0.00    +0.187 A 
ATOM      7  C   UNL     1      35.794 -22.137 -17.308  0.00  0.00    +0.217 A 
ATOM      8  C   UNL     1      33.530 -20.690 -20.324  0.00  0.00    +0.024 C 
ATOM      9  C   UNL     1      33.052 -21.540 -19.407  0.00  0.00    +0.042 C 
ENDROOT
BRANCH   5  12
ATOM     10  N   UNL     1      35.633 -18.044 -22.986  0.00  0.00    -0.208 N 
ATOM     11  N   UNL     1      36.851 -17.953 -22.423  0.00  0.00    -0.176 NA
ATOM     12  C   UNL     1      35.481 -19.346 -21.238  0.00  0.00    +0.056 C 
ATOM     13  C   UNL     1      34.776 -18.866 -22.315  0.00  0.00    +0.087 C 
ATOM     14  C   UNL     1      36.751 -18.750 -21.356  0.00  0.00    +0.121 C 
ATOM     15  C   UNL     1      35.344 -17.304 -24.191  0.00  0.00    +0.140 C 
ENDBRANCH   5  12
BRANCH   7  16
ATOM     16  S   UNL     1      37.500 -21.867 -16.851  0.00  0.00    -0.051 S 
BRANCH  16  19
ATOM     17  N   UNL     1      38.027 -25.392 -12.088  0.00  0.00    -0.248 NA
ATOM     18  C   UNL     1      36.917 -23.564 -13.199  0.00  0.00    -0.003 C 
ATOM     19  C   UNL     1      37.649 -22.918 -15.421  0.00  0.00    +0.011 C 
ATOM     20  C   UNL     1      37.891 -24.584 -13.156  0.00  0.00    +0.060 C 
ATOM     21  C   UNL     1      36.803 -22.739 -14.330  0.00  0.00    +0.060 C 
ATOM     22  C   UNL     1      38.610 -23.919 -15.385  0.00  0.00    -0.017 C 
ATOM     23  C   UNL     1      38.724 -24.740 -14.261  0.00  0.00    +0.072 C 
ATOM     24  C   UNL     1      36.079 -23.407 -12.087  0.00  0.00    -0.001 C 
ATOM     25  C   UNL     1      36.217 -24.238 -10.985  0.00  0.00    +0.020 C 
ATOM     26  C   UNL     1      37.198 -25.207 -11.036  0.00  0.00    +0.098 C 
ENDBRANCH  16  19
ENDBRANCH   7  16
TORSDOF 3
ENDMDL
MODEL 9
REMARK VINA RESULT:      -9.9      4.161      7.074
REMARK  Name = 24779724
REMARK  3 active torsions:
REMARK  status: ('A' for Active; 'I' for Inactive)
REMARK    1  A    between atoms: C_5  and  C_12
REMARK    2  A    between atoms: C_7  and  S_16
REMARK    3  A    between atoms: S_16  and  C_19
REMARK                            x       y       z     vdW  Elec       q    Type
REMARK                         _______ _______ _______ _____ _____    ______ ____
ROOT
ATOM      1  N   UNL     1      35.971 -24.541 -13.131  0.00  0.00    -0.186 N 
ATOM      2  N   UNL     1      36.775 -25.131 -14.050  0.00  0.00    -0.162 NA
ATOM      3  N   UNL     1      35.239 -23.643 -11.266  0.00  0.00    -0.126 NA
ATOM      4  N   UNL     1      34.217 -23.620 -12.193  0.00  0.00    -0.120 NA
ATOM      5  C   UNL     1      37.979 -25.376 -13.615  0.00  0.00    +0.104 C 
ATOM      6  C   UNL     1      36.286 -24.197 -11.838  0.00  0.00    +0.187 A 
ATOM      7  C   UNL     1      34.670 -24.162 -13.301  0.00  0.00    +0.217 A 
ATOM      8  C   UNL     1      38.457 -25.073 -12.227  0.00  0.00    +0.024 C 
ATOM      9  C   UNL     1      37.589 -24.491 -11.389  0.00  0.00    +0.042 C 
ENDROOT
BRANCH   5  12
ATOM     10  N   UNL     1      39.938 -27.413 -15.895  0.00  0.00    -0.208 N 
ATOM     11  N   UNL     1      40.827 -26.411 -15.784  0.00  0.00    -0.176 NA
ATOM     12  C   UNL     1      38.958 -26.016 -14.530  0.00  0.00    +0.056 C 
ATOM     13  C   UNL     1      38.802 -27.225 -15.163  0.00  0.00    +0.087 C 
ATOM     14  C   UNL     1      40.223 -25.561 -14.950  0.00  0.00    +0.121 C 
ATOM     15  C   UNL     1      40.238 -28.549 -16.733  0.00  0.00    +0.140 C 
ENDBRANCH   5  12
BRANCH   7  16
ATOM     16  S   UNL     1      33.768 -24.390 -14.825  0.00  0.00    -0.051 S 
BRANCH  16  19
ATOM     17  N   UNL     1      36.829 -20.846 -18.493  0.00  0.00    -0.248 NA
ATOM     18  C   UNL     1      34.823 -22.091 -18.013  0.00  0.00    -0.003 C 
ATOM     19  C   UNL     1      34.675 -23.328 -15.930  0.00  0.00    +0.011 C 
ATOM     20  C   UNL     1      36.119 -21.647 -17.678  0.00  0.00    +0.060 C 
ATOM     21  C   UNL     1      34.111 -22.927 -17.138  0.00  0.00    +0.060 C 
ATOM     22  C   UNL     1      35.952 -22.896 -15.594  0.00  0.00    -0.017 C 
ATOM     23  C   UNL     1      36.660 -22.064 -16.464  0.00  0.00    +0.072 C 
ATOM     24  C   UNL     1      34.279 -21.672 -19.234  0.00  0.00    -0.001 C 
ATOM     25  C   UNL     1      35.007 -20.846 -20.077  0.00  0.00    +0.020 C 
ATOM     26  C   UNL     1      36.268 -20.464 -19.663  0.00  0.00    +0.098 C 
ENDBRANCH  16  19
ENDBRANCH   7  16
TORSDOF 3
ENDMDL
