MODEL 1
REMARK VINA RESULT:     -11.2      0.000      0.000
REMARK  Name = 10050566
REMARK  9 active torsions:
REMARK  status: ('A' for Active; 'I' for Inactive)
REMARK    1  A    between atoms: C_2  and  N_11
REMARK    2  A    between atoms: C_3  and  O_22
REMARK    3  A    between atoms: C_12  and  C_14
REMARK    4  A    between atoms: C_19  and  O_20
REMARK    5  A    between atoms: O_22  and  C_24
REMARK    6  A    between atoms: C_24  and  C_25
REMARK    7  A    between atoms: C_30  and  C_32
REMARK    8  A    between atoms: C_32  and  C_33
REMARK    9  A    between atoms: C_34  and  O_39
REMARK                            x       y       z     vdW  Elec       q    Type
REMARK                         _______ _______ _______ _____ _____    ______ ____
ROOT
ATOM      1  N   UNL     1      32.532 -21.984 -14.203  0.00  0.00    +0.385 N 
ATOM      2  C   UNL     1      34.616 -22.948 -15.195  0.00  0.00    +0.091 C 
ATOM      3  C   UNL     1      33.886 -23.648 -16.355  0.00  0.00    +0.185 C 
ATOM      4  C   UNL     1      32.660 -24.488 -15.982  0.00  0.00    +0.043 C 
ATOM      5  C   UNL     1      33.792 -22.675 -13.932  0.00  0.00    -0.058 C 
ATOM      6  C   UNL     1      31.393 -23.693 -15.656  0.00  0.00    -0.020 C 
ATOM      7  C   UNL     1      31.422 -22.928 -14.337  0.00  0.00    -0.082 C 
ATOM      8  H   UNL     1      32.623 -21.454 -15.070  0.00  0.00    -0.084 HD
ATOM      9  H   UNL     1      32.331 -21.364 -13.418  0.00  0.00    -0.084 HD
ENDROOT
BRANCH   2  11
ATOM     10  O   UNL     1      37.350 -22.145 -15.533  0.00  0.00    -0.270 OA
ATOM     11  N   UNL     1      35.794 -23.711 -14.827  0.00  0.00    -0.301 N 
ATOM     12  C   UNL     1      37.074 -23.232 -15.033  0.00  0.00    +0.246 C 
ATOM     13  H   UNL     1      35.678 -24.599 -14.418  0.00  0.00    +0.150 HD
BRANCH  12  14
ATOM     14  C   UNL     1      38.173 -24.145 -14.627  0.00  0.00    +0.054 C 
ATOM     15  C   UNL     1      39.300 -24.223 -15.420  0.00  0.00    +0.008 C 
ATOM     16  C   UNL     1      38.033 -24.886 -13.472  0.00  0.00    +0.008 C 
ATOM     17  C   UNL     1      40.332 -25.080 -15.040  0.00  0.00    +0.037 C 
ATOM     18  C   UNL     1      39.066 -25.742 -13.092  0.00  0.00    +0.037 C 
ATOM     19  C   UNL     1      40.216 -25.839 -13.876  0.00  0.00    +0.134 C 
BRANCH  19  20
ATOM     20  O   UNL     1      41.224 -26.674 -13.503  0.00  0.00    -0.506 OA
ATOM     21  H   UNL     1      41.490 -26.714 -12.605  0.00  0.00    +0.292 HD
ENDBRANCH  19  20
ENDBRANCH  12  14
ENDBRANCH   2  11
BRANCH   3  22
ATOM     22  O   UNL     1      33.531 -22.677 -17.345  0.00  0.00    -0.448 OA
BRANCH  22  24
ATOM     23  O   UNL     1      33.700 -24.077 -19.164  0.00  0.00    -0.245 OA
ATOM     24  C   UNL     1      33.862 -22.995 -18.622  0.00  0.00    +0.341 C 
BRANCH  24  25
ATOM     25  C   UNL     1      34.469 -21.824 -19.303  0.00  0.00    +0.076 C 
ATOM     26  C   UNL     1      35.839 -21.666 -19.263  0.00  0.00    +0.007 C 
ATOM     27  C   UNL     1      33.645 -20.930 -19.955  0.00  0.00    +0.007 C 
ATOM     28  C   UNL     1      36.410 -20.565 -19.903  0.00  0.00    +0.003 C 
ATOM     29  C   UNL     1      34.214 -19.830 -20.595  0.00  0.00    +0.003 C 
ATOM     30  C   UNL     1      35.598 -19.647 -20.569  0.00  0.00    +0.039 C 
BRANCH  30  32
ATOM     31  O   UNL     1      37.226 -17.983 -20.787  0.00  0.00    -0.286 OA
ATOM     32  C   UNL     1      36.192 -18.500 -21.235  0.00  0.00    +0.198 C 
BRANCH  32  33
ATOM     33  C   UNL     1      35.601 -17.895 -22.468  0.00  0.00    +0.073 C 
ATOM     34  C   UNL     1      35.225 -16.572 -22.461  0.00  0.00    +0.137 C 
ATOM     35  C   UNL     1      35.459 -18.704 -23.573  0.00  0.00    +0.006 C 
ATOM     36  C   UNL     1      34.676 -16.027 -23.621  0.00  0.00    +0.037 C 
ATOM     37  C   UNL     1      34.910 -18.159 -24.734  0.00  0.00    +0.000 C 
ATOM     38  C   UNL     1      34.518 -16.821 -24.757  0.00  0.00    +0.003 C 
BRANCH  34  39
ATOM     39  O   UNL     1      35.370 -15.781 -21.361  0.00  0.00    -0.505 OA
ATOM     40  H   UNL     1      35.172 -16.119 -20.510  0.00  0.00    +0.292 HD
ENDBRANCH  34  39
ENDBRANCH  32  33
ENDBRANCH  30  32
ENDBRANCH  24  25
ENDBRANCH  22  24
ENDBRANCH   3  22
TORSDOF 9
ENDMDL
MODEL 2
REMARK VINA RESULT:     -11.1      2.174      9.087
REMARK  Name = 10050566
REMARK  9 active torsions:
REMARK  status: ('A' for Active; 'I' for Inactive)
REMARK    1  A    between atoms: C_2  and  N_11
REMARK    2  A    between atoms: C_3  and  O_22
REMARK    3  A    between atoms: C_12  and  C_14
REMARK    4  A    between atoms: C_19  and  O_20
REMARK    5  A    between atoms: O_22  and  C_24
REMARK    6  A    between atoms: C_24  and  C_25
REMARK    7  A    between atoms: C_30  and  C_32
REMARK    8  A    between atoms: C_32  and  C_33
REMARK    9  A    between atoms: C_34  and  O_39
REMARK                            x       y       z     vdW  Elec       q    Type
REMARK                         _______ _______ _______ _____ _____    ______ ____
ROOT
ATOM      1  N   UNL     1      30.880 -24.456 -15.383  0.00  0.00    +0.385 N 
ATOM      2  C   UNL     1      33.058 -23.471 -16.121  0.00  0.00    +0.091 C 
ATOM      3  C   UNL     1      33.538 -23.153 -14.694  0.00  0.00    +0.185 C 
ATOM      4  C   UNL     1      32.542 -22.420 -13.787  0.00  0.00    +0.043 C 
ATOM      5  C   UNL     1      31.543 -23.561 -16.331  0.00  0.00    -0.058 C 
ATOM      6  C   UNL     1      31.411 -23.283 -13.222  0.00  0.00    -0.020 C 
ATOM      7  C   UNL     1      30.356 -23.722 -14.231  0.00  0.00    -0.082 C 
ATOM      8  H   UNL     1      31.553 -25.150 -15.055  0.00  0.00    -0.084 HD
ATOM      9  H   UNL     1      30.098 -24.905 -15.859  0.00  0.00    -0.084 HD
ENDROOT
BRANCH   2  11
ATOM     10  O   UNL     1      33.776 -23.929 -18.861  0.00  0.00    -0.270 OA
ATOM     11  N   UNL     1      33.601 -22.496 -17.048  0.00  0.00    -0.301 N 
ATOM     12  C   UNL     1      33.915 -22.819 -18.354  0.00  0.00    +0.246 C 
ATOM     13  H   UNL     1      33.750 -21.574 -16.736  0.00  0.00    +0.150 HD
BRANCH  12  14
ATOM     14  C   UNL     1      34.486 -21.715 -19.168  0.00  0.00    +0.054 C 
ATOM     15  C   UNL     1      35.854 -21.538 -19.182  0.00  0.00    +0.008 C 
ATOM     16  C   UNL     1      33.632 -20.902 -19.883  0.00  0.00    +0.008 C 
ATOM     17  C   UNL     1      36.392 -20.503 -19.946  0.00  0.00    +0.037 C 
ATOM     18  C   UNL     1      34.169 -19.867 -20.647  0.00  0.00    +0.037 C 
ATOM     19  C   UNL     1      35.549 -19.667 -20.678  0.00  0.00    +0.134 C 
BRANCH  19  20
ATOM     20  O   UNL     1      36.073 -18.657 -21.426  0.00  0.00    -0.506 OA
ATOM     21  H   UNL     1      35.690 -18.440 -22.253  0.00  0.00    +0.292 HD
ENDBRANCH  19  20
ENDBRANCH  12  14
ENDBRANCH   2  11
BRANCH   3  22
ATOM     22  O   UNL     1      33.978 -24.358 -14.062  0.00  0.00    -0.448 OA
BRANCH  22  24
ATOM     23  O   UNL     1      34.562 -23.812 -11.904  0.00  0.00    -0.245 OA
ATOM     24  C   UNL     1      34.842 -24.196 -13.029  0.00  0.00    +0.341 C 
BRANCH  24  25
ATOM     25  C   UNL     1      36.221 -24.553 -13.448  0.00  0.00    +0.076 C 
ATOM     26  C   UNL     1      36.924 -25.481 -12.707  0.00  0.00    +0.007 C 
ATOM     27  C   UNL     1      36.757 -23.945 -14.565  0.00  0.00    +0.007 C 
ATOM     28  C   UNL     1      38.220 -25.815 -13.101  0.00  0.00    +0.003 C 
ATOM     29  C   UNL     1      38.052 -24.279 -14.959  0.00  0.00    +0.003 C 
ATOM     30  C   UNL     1      38.784 -25.215 -14.226  0.00  0.00    +0.039 C 
BRANCH  30  32
ATOM     31  O   UNL     1      41.061 -24.751 -14.494  0.00  0.00    -0.286 OA
ATOM     32  C   UNL     1      40.135 -25.563 -14.636  0.00  0.00    +0.198 C 
BRANCH  32  33
ATOM     33  C   UNL     1      40.472 -26.888 -15.240  0.00  0.00    +0.073 C 
ATOM     34  C   UNL     1      41.397 -27.700 -14.623  0.00  0.00    +0.137 C 
ATOM     35  C   UNL     1      39.829 -27.244 -16.404  0.00  0.00    +0.006 C 
ATOM     36  C   UNL     1      41.696 -28.932 -15.202  0.00  0.00    +0.037 C 
ATOM     37  C   UNL     1      40.128 -28.477 -16.983  0.00  0.00    +0.000 C 
ATOM     38  C   UNL     1      41.062 -29.321 -16.382  0.00  0.00    +0.003 C 
BRANCH  34  39
ATOM     39  O   UNL     1      42.027 -27.337 -13.471  0.00  0.00    -0.505 OA
ATOM     40  H   UNL     1      42.500 -27.976 -12.973  0.00  0.00    +0.292 HD
ENDBRANCH  34  39
ENDBRANCH  32  33
ENDBRANCH  30  32
ENDBRANCH  24  25
ENDBRANCH  22  24
ENDBRANCH   3  22
TORSDOF 9
ENDMDL
MODEL 3
REMARK VINA RESULT:     -11.0      2.275      5.874
REMARK  Name = 10050566
REMARK  9 active torsions:
REMARK  status: ('A' for Active; 'I' for Inactive)
REMARK    1  A    between atoms: C_2  and  N_11
REMARK    2  A    between atoms: C_3  and  O_22
REMARK    3  A    between atoms: C_12  and  C_14
REMARK    4  A    between atoms: C_19  and  O_20
REMARK    5  A    between atoms: O_22  and  C_24
REMARK    6  A    between atoms: C_24  and  C_25
REMARK    7  A    between atoms: C_30  and  C_32
REMARK    8  A    between atoms: C_32  and  C_33
REMARK    9  A    between atoms: C_34  and  O_39
REMARK                            x       y       z     vdW  Elec       q    Type
REMARK                         _______ _______ _______ _____ _____    ______ ____
ROOT
ATOM      1  N   UNL     1      35.190 -25.022 -14.294  0.00  0.00    +0.385 N 
ATOM      2  C   UNL     1      33.258 -24.082 -15.575  0.00  0.00    +0.091 C 
ATOM      3  C   UNL     1      34.024 -22.835 -16.053  0.00  0.00    +0.185 C 
ATOM      4  C   UNL     1      34.790 -22.053 -14.980  0.00  0.00    +0.043 C 
ATOM      5  C   UNL     1      33.756 -24.738 -14.283  0.00  0.00    -0.058 C 
ATOM      6  C   UNL     1      36.102 -22.689 -14.515  0.00  0.00    -0.020 C 
ATOM      7  C   UNL     1      35.954 -23.945 -13.664  0.00  0.00    -0.082 C 
ATOM      8  H   UNL     1      35.500 -25.127 -15.261  0.00  0.00    -0.084 HD
ATOM      9  H   UNL     1      35.351 -25.880 -13.766  0.00  0.00    -0.084 HD
ENDROOT
BRANCH   2  11
ATOM     10  O   UNL     1      31.715 -22.322 -17.234  0.00  0.00    -0.270 OA
ATOM     11  N   UNL     1      31.851 -23.762 -15.424  0.00  0.00    -0.301 N 
ATOM     12  C   UNL     1      31.198 -22.898 -16.281  0.00  0.00    +0.246 C 
ATOM     13  H   UNL     1      31.345 -24.174 -14.686  0.00  0.00    +0.150 HD
BRANCH  12  14
ATOM     14  C   UNL     1      29.764 -22.654 -15.976  0.00  0.00    +0.054 C 
ATOM     15  C   UNL     1      28.834 -22.807 -16.983  0.00  0.00    +0.008 C 
ATOM     16  C   UNL     1      29.408 -22.281 -14.697  0.00  0.00    +0.008 C 
ATOM     17  C   UNL     1      27.488 -22.578 -16.698  0.00  0.00    +0.037 C 
ATOM     18  C   UNL     1      28.063 -22.053 -14.411  0.00  0.00    +0.037 C 
ATOM     19  C   UNL     1      27.103 -22.201 -15.412  0.00  0.00    +0.134 C 
BRANCH  19  20
ATOM     20  O   UNL     1      25.789 -21.980 -15.132  0.00  0.00    -0.506 OA
ATOM     21  H   UNL     1      25.162 -22.666 -15.257  0.00  0.00    +0.292 HD
ENDBRANCH  19  20
ENDBRANCH  12  14
ENDBRANCH   2  11
BRANCH   3  22
ATOM     22  O   UNL     1      34.909 -23.202 -17.116  0.00  0.00    -0.448 OA
BRANCH  22  24
ATOM     23  O   UNL     1      33.623 -24.054 -18.824  0.00  0.00    -0.245 OA
ATOM     24  C   UNL     1      34.364 -23.203 -18.358  0.00  0.00    +0.341 C 
BRANCH  24  25
ATOM     25  C   UNL     1      34.796 -21.999 -19.111  0.00  0.00    +0.076 C 
ATOM     26  C   UNL     1      36.141 -21.691 -19.162  0.00  0.00    +0.007 C 
ATOM     27  C   UNL     1      33.840 -21.223 -19.734  0.00  0.00    +0.007 C 
ATOM     28  C   UNL     1      36.546 -20.559 -19.869  0.00  0.00    +0.003 C 
ATOM     29  C   UNL     1      34.246 -20.091 -20.441  0.00  0.00    +0.003 C 
ATOM     30  C   UNL     1      35.600 -19.759 -20.509  0.00  0.00    +0.039 C 
BRANCH  30  32
ATOM     31  O   UNL     1      36.923 -17.853 -20.799  0.00  0.00    -0.286 OA
ATOM     32  C   UNL     1      36.022 -18.579 -21.245  0.00  0.00    +0.198 C 
BRANCH  32  33
ATOM     33  C   UNL     1      35.407 -18.186 -22.549  0.00  0.00    +0.073 C 
ATOM     34  C   UNL     1      35.157 -16.858 -22.809  0.00  0.00    +0.137 C 
ATOM     35  C   UNL     1      35.114 -19.187 -23.447  0.00  0.00    +0.006 C 
ATOM     36  C   UNL     1      34.583 -16.513 -24.031  0.00  0.00    +0.037 C 
ATOM     37  C   UNL     1      34.541 -18.842 -24.670  0.00  0.00    +0.000 C 
ATOM     38  C   UNL     1      34.274 -17.505 -24.962  0.00  0.00    +0.003 C 
BRANCH  34  39
ATOM     39  O   UNL     1      35.451 -15.874 -21.912  0.00  0.00    -0.505 OA
ATOM     40  H   UNL     1      35.930 -15.117 -22.187  0.00  0.00    +0.292 HD
ENDBRANCH  34  39
ENDBRANCH  32  33
ENDBRANCH  30  32
ENDBRANCH  24  25
ENDBRANCH  22  24
ENDBRANCH   3  22
TORSDOF 9
ENDMDL
MODEL 4
REMARK VINA RESULT:     -10.4      7.443     14.556
REMARK  Name = 10050566
REMARK  9 active torsions:
REMARK  status: ('A' for Active; 'I' for Inactive)
REMARK    1  A    between atoms: C_2  and  N_11
REMARK    2  A    between atoms: C_3  and  O_22
REMARK    3  A    between atoms: C_12  and  C_14
REMARK    4  A    between atoms: C_19  and  O_20
REMARK    5  A    between atoms: O_22  and  C_24
REMARK    6  A    between atoms: C_24  and  C_25
REMARK    7  A    between atoms: C_30  and  C_32
REMARK    8  A    between atoms: C_32  and  C_33
REMARK    9  A    between atoms: C_34  and  O_39
REMARK                            x       y       z     vdW  Elec       q    Type
REMARK                         _______ _______ _______ _____ _____    ______ ____
ROOT
ATOM      1  N   UNL     1      36.401 -10.140 -25.534  0.00  0.00    +0.385 N 
ATOM      2  C   UNL     1      34.713  -9.496 -23.803  0.00  0.00    +0.091 C 
ATOM      3  C   UNL     1      33.866 -10.770 -23.980  0.00  0.00    +0.185 C 
ATOM      4  C   UNL     1      33.501 -11.151 -25.419  0.00  0.00    +0.043 C 
ATOM      5  C   UNL     1      35.562  -9.066 -25.004  0.00  0.00    -0.058 C 
ATOM      6  C   UNL     1      34.629 -11.780 -26.239  0.00  0.00    -0.020 C 
ATOM      7  C   UNL     1      35.749 -10.829 -26.648  0.00  0.00    -0.082 C 
ATOM      8  H   UNL     1      36.587 -10.813 -24.790  0.00  0.00    -0.084 HD
ATOM      9  H   UNL     1      37.270  -9.729 -25.876  0.00  0.00    -0.084 HD
ENDROOT
BRANCH   2  11
ATOM     10  O   UNL     1      35.564  -6.915 -22.885  0.00  0.00    -0.270 OA
ATOM     11  N   UNL     1      33.857  -8.391 -23.416  0.00  0.00    -0.301 N 
ATOM     12  C   UNL     1      34.370  -7.182 -22.986  0.00  0.00    +0.246 C 
ATOM     13  H   UNL     1      32.881  -8.505 -23.461  0.00  0.00    +0.150 HD
BRANCH  12  14
ATOM     14  C   UNL     1      33.362  -6.160 -22.600  0.00  0.00    +0.054 C 
ATOM     15  C   UNL     1      33.215  -5.039 -23.391  0.00  0.00    +0.008 C 
ATOM     16  C   UNL     1      32.607  -6.363 -21.464  0.00  0.00    +0.008 C 
ATOM     17  C   UNL     1      32.270  -4.079 -23.029  0.00  0.00    +0.037 C 
ATOM     18  C   UNL     1      31.661  -5.404 -21.103  0.00  0.00    +0.037 C 
ATOM     19  C   UNL     1      31.493  -4.262 -21.886  0.00  0.00    +0.134 C 
BRANCH  19  20
ATOM     20  O   UNL     1      30.568  -3.327 -21.534  0.00  0.00    -0.506 OA
ATOM     21  H   UNL     1      30.833  -2.563 -21.060  0.00  0.00    +0.292 HD
ENDBRANCH  19  20
ENDBRANCH  12  14
ENDBRANCH   2  11
BRANCH   3  22
ATOM     22  O   UNL     1      34.520 -11.867 -23.335  0.00  0.00    -0.448 OA
BRANCH  22  24
ATOM     23  O   UNL     1      32.672 -12.375 -22.062  0.00  0.00    -0.245 OA
ATOM     24  C   UNL     1      33.716 -12.687 -22.615  0.00  0.00    +0.341 C 
BRANCH  24  25
ATOM     25  C   UNL     1      34.280 -14.059 -22.575  0.00  0.00    +0.076 C 
ATOM     26  C   UNL     1      34.615 -14.607 -21.353  0.00  0.00    +0.007 C 
ATOM     27  C   UNL     1      34.453 -14.744 -23.760  0.00  0.00    +0.007 C 
ATOM     28  C   UNL     1      35.147 -15.896 -21.316  0.00  0.00    +0.003 C 
ATOM     29  C   UNL     1      34.984 -16.033 -23.723  0.00  0.00    +0.003 C 
ATOM     30  C   UNL     1      35.331 -16.610 -22.500  0.00  0.00    +0.039 C 
BRANCH  30  32
ATOM     31  O   UNL     1      36.771 -18.288 -23.262  0.00  0.00    -0.286 OA
ATOM     32  C   UNL     1      35.885 -17.953 -22.461  0.00  0.00    +0.198 C 
BRANCH  32  33
ATOM     33  C   UNL     1      35.426 -18.980 -21.478  0.00  0.00    +0.073 C 
ATOM     34  C   UNL     1      36.345 -19.590 -20.654  0.00  0.00    +0.137 C 
ATOM     35  C   UNL     1      34.082 -19.274 -21.438  0.00  0.00    +0.006 C 
ATOM     36  C   UNL     1      35.896 -20.545 -19.744  0.00  0.00    +0.037 C 
ATOM     37  C   UNL     1      33.632 -20.229 -20.527  0.00  0.00    +0.000 C 
ATOM     38  C   UNL     1      34.539 -20.865 -19.680  0.00  0.00    +0.003 C 
BRANCH  34  39
ATOM     39  O   UNL     1      37.673 -19.291 -20.702  0.00  0.00    -0.505 OA
ATOM     40  H   UNL     1      37.993 -18.670 -21.327  0.00  0.00    +0.292 HD
ENDBRANCH  34  39
ENDBRANCH  32  33
ENDBRANCH  30  32
ENDBRANCH  24  25
ENDBRANCH  22  24
ENDBRANCH   3  22
TORSDOF 9
ENDMDL
MODEL 5
REMARK VINA RESULT:      -9.6      6.567     13.652
REMARK  Name = 10050566
REMARK  9 active torsions:
REMARK  status: ('A' for Active; 'I' for Inactive)
REMARK    1  A    between atoms: C_2  and  N_11
REMARK    2  A    between atoms: C_3  and  O_22
REMARK    3  A    between atoms: C_12  and  C_14
REMARK    4  A    between atoms: C_19  and  O_20
REMARK    5  A    between atoms: O_22  and  C_24
REMARK    6  A    between atoms: C_24  and  C_25
REMARK    7  A    between atoms: C_30  and  C_32
REMARK    8  A    between atoms: C_32  and  C_33
REMARK    9  A    between atoms: C_34  and  O_39
REMARK                            x       y       z     vdW  Elec       q    Type
REMARK                         _______ _______ _______ _____ _____    ______ ____
ROOT
ATOM      1  N   UNL     1      34.536 -12.341 -26.508  0.00  0.00    +0.385 N 
ATOM      2  C   UNL     1      34.376 -11.068 -24.361  0.00  0.00    +0.091 C 
ATOM      3  C   UNL     1      33.866 -12.269 -23.545  0.00  0.00    +0.185 C 
ATOM      4  C   UNL     1      32.700 -13.059 -24.149  0.00  0.00    +0.043 C 
ATOM      5  C   UNL     1      34.104 -11.099 -25.868  0.00  0.00    -0.058 C 
ATOM      6  C   UNL     1      33.068 -13.992 -25.305  0.00  0.00    -0.020 C 
ATOM      7  C   UNL     1      33.436 -13.300 -26.613  0.00  0.00    -0.082 C 
ATOM      8  H   UNL     1      35.286 -12.756 -25.954  0.00  0.00    -0.084 HD
ATOM      9  H   UNL     1      34.860 -12.120 -27.450  0.00  0.00    -0.084 HD
ENDROOT
BRANCH   2  11
ATOM     10  O   UNL     1      35.792  -8.609 -23.935  0.00  0.00    -0.270 OA
ATOM     11  N   UNL     1      33.831  -9.839 -23.813  0.00  0.00    -0.301 N 
ATOM     12  C   UNL     1      34.601  -8.704 -23.648  0.00  0.00    +0.246 C 
ATOM     13  H   UNL     1      32.882  -9.814 -23.551  0.00  0.00    +0.150 HD
BRANCH  12  14
ATOM     14  C   UNL     1      33.902  -7.537 -23.050  0.00  0.00    +0.054 C 
ATOM     15  C   UNL     1      33.169  -7.720 -21.896  0.00  0.00    +0.008 C 
ATOM     16  C   UNL     1      34.007  -6.308 -23.668  0.00  0.00    +0.008 C 
ATOM     17  C   UNL     1      32.513  -6.626 -21.334  0.00  0.00    +0.037 C 
ATOM     18  C   UNL     1      33.352  -5.213 -23.105  0.00  0.00    +0.037 C 
ATOM     19  C   UNL     1      32.604  -5.372 -21.938  0.00  0.00    +0.134 C 
BRANCH  19  20
ATOM     20  O   UNL     1      31.966  -4.303 -21.389  0.00  0.00    -0.506 OA
ATOM     21  H   UNL     1      31.248  -4.438 -20.801  0.00  0.00    +0.292 HD
ENDBRANCH  19  20
ENDBRANCH  12  14
ENDBRANCH   2  11
BRANCH   3  22
ATOM     22  O   UNL     1      34.960 -13.149 -23.265  0.00  0.00    -0.448 OA
BRANCH  22  24
ATOM     23  O   UNL     1      34.989 -12.999 -20.968  0.00  0.00    -0.245 OA
ATOM     24  C   UNL     1      35.003 -13.646 -22.003  0.00  0.00    +0.341 C 
BRANCH  24  25
ATOM     25  C   UNL     1      35.075 -15.129 -22.036  0.00  0.00    +0.076 C 
ATOM     26  C   UNL     1      35.236 -15.762 -23.251  0.00  0.00    +0.007 C 
ATOM     27  C   UNL     1      34.977 -15.827 -20.850  0.00  0.00    +0.007 C 
ATOM     28  C   UNL     1      35.302 -17.155 -23.282  0.00  0.00    +0.003 C 
ATOM     29  C   UNL     1      35.044 -17.220 -20.880  0.00  0.00    +0.003 C 
ATOM     30  C   UNL     1      35.207 -17.885 -22.097  0.00  0.00    +0.039 C 
BRANCH  30  32
ATOM     31  O   UNL     1      35.368 -19.935 -23.211  0.00  0.00    -0.286 OA
ATOM     32  C   UNL     1      35.276 -19.336 -22.128  0.00  0.00    +0.198 C 
BRANCH  32  33
ATOM     33  C   UNL     1      35.238 -20.167 -20.886  0.00  0.00    +0.073 C 
ATOM     34  C   UNL     1      34.024 -20.536 -20.353  0.00  0.00    +0.137 C 
ATOM     35  C   UNL     1      36.440 -20.532 -20.323  0.00  0.00    +0.006 C 
ATOM     36  C   UNL     1      34.011 -21.311 -19.195  0.00  0.00    +0.037 C 
ATOM     37  C   UNL     1      36.427 -21.308 -19.164  0.00  0.00    +0.000 C 
ATOM     38  C   UNL     1      35.213 -21.697 -18.600  0.00  0.00    +0.003 C 
BRANCH  34  39
ATOM     39  O   UNL     1      32.840 -20.169 -20.920  0.00  0.00    -0.505 OA
ATOM     40  H   UNL     1      32.713 -19.287 -21.211  0.00  0.00    +0.292 HD
ENDBRANCH  34  39
ENDBRANCH  32  33
ENDBRANCH  30  32
ENDBRANCH  24  25
ENDBRANCH  22  24
ENDBRANCH   3  22
TORSDOF 9
ENDMDL
MODEL 6
REMARK VINA RESULT:      -9.5      8.201     13.111
REMARK  Name = 10050566
REMARK  9 active torsions:
REMARK  status: ('A' for Active; 'I' for Inactive)
REMARK    1  A    between atoms: C_2  and  N_11
REMARK    2  A    between atoms: C_3  and  O_22
REMARK    3  A    between atoms: C_12  and  C_14
REMARK    4  A    between atoms: C_19  and  O_20
REMARK    5  A    between atoms: O_22  and  C_24
REMARK    6  A    between atoms: C_24  and  C_25
REMARK    7  A    between atoms: C_30  and  C_32
REMARK    8  A    between atoms: C_32  and  C_33
REMARK    9  A    between atoms: C_34  and  O_39
REMARK                            x       y       z     vdW  Elec       q    Type
REMARK                         _______ _______ _______ _____ _____    ______ ____
ROOT
ATOM      1  N   UNL     1      33.479 -12.283 -25.985  0.00  0.00    +0.385 N 
ATOM      2  C   UNL     1      33.397 -13.633 -23.880  0.00  0.00    +0.091 C 
ATOM      3  C   UNL     1      33.532 -12.414 -22.949  0.00  0.00    +0.185 C 
ATOM      4  C   UNL     1      34.657 -11.426 -23.278  0.00  0.00    +0.043 C 
ATOM      5  C   UNL     1      33.963 -13.479 -25.296  0.00  0.00    -0.058 C 
ATOM      6  C   UNL     1      34.390 -10.498 -24.465  0.00  0.00    -0.020 C 
ATOM      7  C   UNL     1      34.412 -11.166 -25.835  0.00  0.00    -0.082 C 
ATOM      8  H   UNL     1      32.576 -12.016 -25.593  0.00  0.00    -0.084 HD
ATOM      9  H   UNL     1      33.394 -12.498 -26.978  0.00  0.00    -0.084 HD
ENDROOT
BRANCH   2  11
ATOM     10  O   UNL     1      34.129 -16.084 -25.179  0.00  0.00    -0.270 OA
ATOM     11  N   UNL     1      34.006 -14.793 -23.258  0.00  0.00    -0.301 N 
ATOM     12  C   UNL     1      34.322 -15.931 -23.976  0.00  0.00    +0.246 C 
ATOM     13  H   UNL     1      34.200 -14.770 -22.293  0.00  0.00    +0.150 HD
BRANCH  12  14
ATOM     14  C   UNL     1      34.915 -17.042 -23.187  0.00  0.00    +0.054 C 
ATOM     15  C   UNL     1      35.648 -16.739 -22.058  0.00  0.00    +0.008 C 
ATOM     16  C   UNL     1      34.715 -18.340 -23.609  0.00  0.00    +0.008 C 
ATOM     17  C   UNL     1      36.205 -17.781 -21.318  0.00  0.00    +0.037 C 
ATOM     18  C   UNL     1      35.272 -19.382 -22.868  0.00  0.00    +0.037 C 
ATOM     19  C   UNL     1      36.017 -19.103 -21.722  0.00  0.00    +0.134 C 
BRANCH  19  20
ATOM     20  O   UNL     1      36.559 -20.120 -20.999  0.00  0.00    -0.506 OA
ATOM     21  H   UNL     1      37.379 -19.999 -20.562  0.00  0.00    +0.292 HD
ENDBRANCH  19  20
ENDBRANCH  12  14
ENDBRANCH   2  11
BRANCH   3  22
ATOM     22  O   UNL     1      32.279 -11.726 -22.886  0.00  0.00    -0.448 OA
BRANCH  22  24
ATOM     23  O   UNL     1      31.582 -11.967 -20.706  0.00  0.00    -0.245 OA
ATOM     24  C   UNL     1      31.918 -11.279 -21.658  0.00  0.00    +0.341 C 
BRANCH  24  25
ATOM     25  C   UNL     1      31.978  -9.797 -21.610  0.00  0.00    +0.076 C 
ATOM     26  C   UNL     1      31.569  -9.076 -22.713  0.00  0.00    +0.007 C 
ATOM     27  C   UNL     1      32.444  -9.185 -20.464  0.00  0.00    +0.007 C 
ATOM     28  C   UNL     1      31.627  -7.683 -22.668  0.00  0.00    +0.003 C 
ATOM     29  C   UNL     1      32.502  -7.792 -20.418  0.00  0.00    +0.003 C 
ATOM     30  C   UNL     1      32.093  -7.040 -21.521  0.00  0.00    +0.039 C 
BRANCH  30  32
ATOM     31  O   UNL     1      31.947  -4.988 -20.409  0.00  0.00    -0.286 OA
ATOM     32  C   UNL     1      32.154  -5.589 -21.474  0.00  0.00    +0.198 C 
BRANCH  32  33
ATOM     33  C   UNL     1      32.461  -4.761 -22.680  0.00  0.00    +0.073 C 
ATOM     34  C   UNL     1      31.776  -3.587 -22.890  0.00  0.00    +0.137 C 
ATOM     35  C   UNL     1      33.434  -5.219 -23.541  0.00  0.00    +0.006 C 
ATOM     36  C   UNL     1      32.078  -2.829 -24.021  0.00  0.00    +0.037 C 
ATOM     37  C   UNL     1      33.736  -4.461 -24.672  0.00  0.00    +0.000 C 
ATOM     38  C   UNL     1      33.057  -3.267 -24.912  0.00  0.00    +0.003 C 
BRANCH  34  39
ATOM     39  O   UNL     1      30.815  -3.143 -22.031  0.00  0.00    -0.505 OA
ATOM     40  H   UNL     1      30.164  -3.735 -21.709  0.00  0.00    +0.292 HD
ENDBRANCH  34  39
ENDBRANCH  32  33
ENDBRANCH  30  32
ENDBRANCH  24  25
ENDBRANCH  22  24
ENDBRANCH   3  22
TORSDOF 9
ENDMDL
MODEL 7
REMARK VINA RESULT:      -9.4      2.362      5.765
REMARK  Name = 10050566
REMARK  9 active torsions:
REMARK  status: ('A' for Active; 'I' for Inactive)
REMARK    1  A    between atoms: C_2  and  N_11
REMARK    2  A    between atoms: C_3  and  O_22
REMARK    3  A    between atoms: C_12  and  C_14
REMARK    4  A    between atoms: C_19  and  O_20
REMARK    5  A    between atoms: O_22  and  C_24
REMARK    6  A    between atoms: C_24  and  C_25
REMARK    7  A    between atoms: C_30  and  C_32
REMARK    8  A    between atoms: C_32  and  C_33
REMARK    9  A    between atoms: C_34  and  O_39
REMARK                            x       y       z     vdW  Elec       q    Type
REMARK                         _______ _______ _______ _____ _____    ______ ____
ROOT
ATOM      1  N   UNL     1      36.600 -25.065 -15.272  0.00  0.00    +0.385 N 
ATOM      2  C   UNL     1      34.770 -23.808 -16.425  0.00  0.00    +0.091 C 
ATOM      3  C   UNL     1      35.495 -22.451 -16.359  0.00  0.00    +0.185 C 
ATOM      4  C   UNL     1      36.068 -22.050 -14.995  0.00  0.00    +0.043 C 
ATOM      5  C   UNL     1      35.157 -24.844 -15.364  0.00  0.00    -0.058 C 
ATOM      6  C   UNL     1      37.359 -22.766 -14.589  0.00  0.00    -0.020 C 
ATOM      7  C   UNL     1      37.203 -24.239 -14.226  0.00  0.00    -0.082 C 
ATOM      8  H   UNL     1      37.030 -24.832 -16.167  0.00  0.00    -0.084 HD
ATOM      9  H   UNL     1      36.759 -26.045 -15.037  0.00  0.00    -0.084 HD
ENDROOT
BRANCH   2  11
ATOM     10  O   UNL     1      33.138 -23.739 -14.066  0.00  0.00    -0.270 OA
ATOM     11  N   UNL     1      33.336 -23.599 -16.371  0.00  0.00    -0.301 N 
ATOM     12  C   UNL     1      32.640 -23.583 -15.178  0.00  0.00    +0.246 C 
ATOM     13  H   UNL     1      32.842 -23.464 -17.212  0.00  0.00    +0.150 HD
BRANCH  12  14
ATOM     14  C   UNL     1      31.172 -23.384 -15.294  0.00  0.00    +0.054 C 
ATOM     15  C   UNL     1      30.340 -24.040 -14.410  0.00  0.00    +0.008 C 
ATOM     16  C   UNL     1      30.687 -22.552 -16.282  0.00  0.00    +0.008 C 
ATOM     17  C   UNL     1      28.962 -23.854 -14.519  0.00  0.00    +0.037 C 
ATOM     18  C   UNL     1      29.310 -22.365 -16.390  0.00  0.00    +0.037 C 
ATOM     19  C   UNL     1      28.447 -23.017 -15.508  0.00  0.00    +0.134 C 
BRANCH  19  20
ATOM     20  O   UNL     1      27.102 -22.833 -15.613  0.00  0.00    -0.506 OA
ATOM     21  H   UNL     1      26.765 -22.135 -16.140  0.00  0.00    +0.292 HD
ENDBRANCH  19  20
ENDBRANCH  12  14
ENDBRANCH   2  11
BRANCH   3  22
ATOM     22  O   UNL     1      36.524 -22.416 -17.352  0.00  0.00    -0.448 OA
BRANCH  22  24
ATOM     23  O   UNL     1      37.876 -20.632 -16.817  0.00  0.00    -0.245 OA
ATOM     24  C   UNL     1      37.095 -21.203 -17.561  0.00  0.00    +0.341 C 
BRANCH  24  25
ATOM     25  C   UNL     1      36.634 -20.632 -18.851  0.00  0.00    +0.076 C 
ATOM     26  C   UNL     1      35.382 -20.975 -19.323  0.00  0.00    +0.007 C 
ATOM     27  C   UNL     1      37.470 -19.778 -19.540  0.00  0.00    +0.007 C 
ATOM     28  C   UNL     1      34.950 -20.439 -20.536  0.00  0.00    +0.003 C 
ATOM     29  C   UNL     1      37.037 -19.242 -20.752  0.00  0.00    +0.003 C 
ATOM     30  C   UNL     1      35.776 -19.572 -21.251  0.00  0.00    +0.039 C 
BRANCH  30  32
ATOM     31  O   UNL     1      35.048 -19.762 -23.465  0.00  0.00    -0.286 OA
ATOM     32  C   UNL     1      35.326 -19.014 -22.516  0.00  0.00    +0.198 C 
BRANCH  32  33
ATOM     33  C   UNL     1      35.178 -17.543 -22.734  0.00  0.00    +0.073 C 
ATOM     34  C   UNL     1      35.010 -17.060 -24.011  0.00  0.00    +0.137 C 
ATOM     35  C   UNL     1      35.216 -16.724 -21.628  0.00  0.00    +0.006 C 
ATOM     36  C   UNL     1      34.873 -15.685 -24.193  0.00  0.00    +0.037 C 
ATOM     37  C   UNL     1      35.078 -15.348 -21.809  0.00  0.00    +0.000 C 
ATOM     38  C   UNL     1      34.908 -14.829 -23.092  0.00  0.00    +0.003 C 
BRANCH  34  39
ATOM     39  O   UNL     1      34.973 -17.880 -25.099  0.00  0.00    -0.505 OA
ATOM     40  H   UNL     1      34.669 -18.763 -25.012  0.00  0.00    +0.292 HD
ENDBRANCH  34  39
ENDBRANCH  32  33
ENDBRANCH  30  32
ENDBRANCH  24  25
ENDBRANCH  22  24
ENDBRANCH   3  22
TORSDOF 9
ENDMDL
MODEL 8
REMARK VINA RESULT:      -9.4     11.878     16.937
REMARK  Name = 10050566
REMARK  9 active torsions:
REMARK  status: ('A' for Active; 'I' for Inactive)
REMARK    1  A    between atoms: C_2  and  N_11
REMARK    2  A    between atoms: C_3  and  O_22
REMARK    3  A    between atoms: C_12  and  C_14
REMARK    4  A    between atoms: C_19  and  O_20
REMARK    5  A    between atoms: O_22  and  C_24
REMARK    6  A    between atoms: C_24  and  C_25
REMARK    7  A    between atoms: C_30  and  C_32
REMARK    8  A    between atoms: C_32  and  C_33
REMARK    9  A    between atoms: C_34  and  O_39
REMARK                            x       y       z     vdW  Elec       q    Type
REMARK                         _______ _______ _______ _____ _____    ______ ____
ROOT
ATOM      1  N   UNL     1      33.334  -6.797 -20.498  0.00  0.00    +0.385 N 
ATOM      2  C   UNL     1      33.476  -7.995 -22.690  0.00  0.00    +0.091 C 
ATOM      3  C   UNL     1      32.536  -7.020 -23.422  0.00  0.00    +0.185 C 
ATOM      4  C   UNL     1      31.213  -6.692 -22.721  0.00  0.00    +0.043 C 
ATOM      5  C   UNL     1      33.309  -8.096 -21.170  0.00  0.00    -0.058 C 
ATOM      6  C   UNL     1      31.317  -5.719 -21.544  0.00  0.00    -0.020 C 
ATOM      7  C   UNL     1      31.982  -6.276 -20.291  0.00  0.00    -0.082 C 
ATOM      8  H   UNL     1      33.860  -6.137 -21.071  0.00  0.00    -0.084 HD
ATOM      9  H   UNL     1      33.774  -6.917 -19.586  0.00  0.00    -0.084 HD
ENDROOT
BRANCH   2  11
ATOM     10  O   UNL     1      35.456  -9.397 -24.222  0.00  0.00    -0.270 OA
ATOM     11  N   UNL     1      33.347  -9.321 -23.263  0.00  0.00    -0.301 N 
ATOM     12  C   UNL     1      34.365  -9.910 -23.988  0.00  0.00    +0.246 C 
ATOM     13  H   UNL     1      32.507  -9.818 -23.131  0.00  0.00    +0.150 HD
BRANCH  12  14
ATOM     14  C   UNL     1      34.066 -11.261 -24.531  0.00  0.00    +0.054 C 
ATOM     15  C   UNL     1      33.926 -12.315 -23.652  0.00  0.00    +0.008 C 
ATOM     16  C   UNL     1      33.940 -11.419 -25.895  0.00  0.00    +0.008 C 
ATOM     17  C   UNL     1      33.646 -13.584 -24.161  0.00  0.00    +0.037 C 
ATOM     18  C   UNL     1      33.659 -12.687 -26.404  0.00  0.00    +0.037 C 
ATOM     19  C   UNL     1      33.512 -13.769 -25.536  0.00  0.00    +0.134 C 
BRANCH  19  20
ATOM     20  O   UNL     1      33.236 -15.006 -26.033  0.00  0.00    -0.506 OA
ATOM     21  H   UNL     1      33.772 -15.368 -26.711  0.00  0.00    +0.292 HD
ENDBRANCH  19  20
ENDBRANCH  12  14
ENDBRANCH   2  11
BRANCH   3  22
ATOM     22  O   UNL     1      33.244  -5.813 -23.719  0.00  0.00    -0.448 OA
BRANCH  22  24
ATOM     23  O   UNL     1      31.579  -4.714 -24.867  0.00  0.00    -0.245 OA
ATOM     24  C   UNL     1      32.739  -5.073 -24.738  0.00  0.00    +0.341 C 
BRANCH  24  25
ATOM     25  C   UNL     1      33.808  -4.743 -25.714  0.00  0.00    +0.076 C 
ATOM     26  C   UNL     1      33.495  -3.953 -26.802  0.00  0.00    +0.007 C 
ATOM     27  C   UNL     1      35.079  -5.237 -25.505  0.00  0.00    +0.007 C 
ATOM     28  C   UNL     1      34.499  -3.644 -27.720  0.00  0.00    +0.003 C 
ATOM     29  C   UNL     1      36.082  -4.928 -26.422  0.00  0.00    +0.003 C 
ATOM     30  C   UNL     1      35.793  -4.130 -27.531  0.00  0.00    +0.039 C 
BRANCH  30  32
ATOM     31  O   UNL     1      36.855  -2.702 -29.047  0.00  0.00    -0.286 OA
ATOM     32  C   UNL     1      36.838  -3.808 -28.488  0.00  0.00    +0.198 C 
BRANCH  32  33
ATOM     33  C   UNL     1      37.924  -4.772 -28.842  0.00  0.00    +0.073 C 
ATOM     34  C   UNL     1      39.195  -4.573 -28.354  0.00  0.00    +0.137 C 
ATOM     35  C   UNL     1      37.597  -5.835 -29.654  0.00  0.00    +0.006 C 
ATOM     36  C   UNL     1      40.193  -5.484 -28.695  0.00  0.00    +0.037 C 
ATOM     37  C   UNL     1      38.595  -6.747 -29.995  0.00  0.00    +0.000 C 
ATOM     38  C   UNL     1      39.893  -6.571 -29.517  0.00  0.00    +0.003 C 
BRANCH  34  39
ATOM     39  O   UNL     1      39.507  -3.517 -27.550  0.00  0.00    -0.505 OA
ATOM     40  H   UNL     1      39.300  -3.546 -26.636  0.00  0.00    +0.292 HD
ENDBRANCH  34  39
ENDBRANCH  32  33
ENDBRANCH  30  32
ENDBRANCH  24  25
ENDBRANCH  22  24
ENDBRANCH   3  22
TORSDOF 9
ENDMDL
MODEL 9
REMARK VINA RESULT:      -9.4      6.541     13.638
REMARK  Name = 10050566
REMARK  9 active torsions:
REMARK  status: ('A' for Active; 'I' for Inactive)
REMARK    1  A    between atoms: C_2  and  N_11
REMARK    2  A    between atoms: C_3  and  O_22
REMARK    3  A    between atoms: C_12  and  C_14
REMARK    4  A    between atoms: C_19  and  O_20
REMARK    5  A    between atoms: O_22  and  C_24
REMARK    6  A    between atoms: C_24  and  C_25
REMARK    7  A    between atoms: C_30  and  C_32
REMARK    8  A    between atoms: C_32  and  C_33
REMARK    9  A    between atoms: C_34  and  O_39
REMARK                            x       y       z     vdW  Elec       q    Type
REMARK                         _______ _______ _______ _____ _____    ______ ____
ROOT
ATOM      1  N   UNL     1      31.602 -12.272 -20.924  0.00  0.00    +0.385 N 
ATOM      2  C   UNL     1      32.472 -11.072 -22.940  0.00  0.00    +0.091 C 
ATOM      3  C   UNL     1      33.544 -12.129 -23.258  0.00  0.00    +0.185 C 
ATOM      4  C   UNL     1      34.431 -12.574 -22.089  0.00  0.00    +0.043 C 
ATOM      5  C   UNL     1      32.009 -10.982 -21.482  0.00  0.00    -0.058 C 
ATOM      6  C   UNL     1      33.773 -13.531 -21.093  0.00  0.00    -0.020 C 
ATOM      7  C   UNL     1      32.702 -12.912 -20.202  0.00  0.00    -0.082 C 
ATOM      8  H   UNL     1      31.304 -12.883 -21.685  0.00  0.00    -0.084 HD
ATOM      9  H   UNL     1      30.838 -12.111 -20.268  0.00  0.00    -0.084 HD
ENDROOT
BRANCH   2  11
ATOM     10  O   UNL     1      31.088  -8.579 -22.615  0.00  0.00    -0.270 OA
ATOM     11  N   UNL     1      32.934  -9.764 -23.363  0.00  0.00    -0.301 N 
ATOM     12  C   UNL     1      32.188  -8.619 -23.159  0.00  0.00    +0.246 C 
ATOM     13  H   UNL     1      33.808  -9.689 -23.811  0.00  0.00    +0.150 HD
BRANCH  12  14
ATOM     14  C   UNL     1      32.789  -7.361 -23.675  0.00  0.00    +0.054 C 
ATOM     15  C   UNL     1      31.960  -6.402 -24.218  0.00  0.00    +0.008 C 
ATOM     16  C   UNL     1      34.155  -7.193 -23.596  0.00  0.00    +0.008 C 
ATOM     17  C   UNL     1      32.522  -5.221 -24.703  0.00  0.00    +0.037 C 
ATOM     18  C   UNL     1      34.718  -6.013 -24.079  0.00  0.00    +0.037 C 
ATOM     19  C   UNL     1      33.901  -5.027 -24.633  0.00  0.00    +0.134 C 
BRANCH  19  20
ATOM     20  O   UNL     1      34.451  -3.874 -25.104  0.00  0.00    -0.506 OA
ATOM     21  H   UNL     1      35.334  -3.652 -24.881  0.00  0.00    +0.292 HD
ENDBRANCH  19  20
ENDBRANCH  12  14
ENDBRANCH   2  11
BRANCH   3  22
ATOM     22  O   UNL     1      32.922 -13.268 -23.860  0.00  0.00    -0.448 OA
BRANCH  22  24
ATOM     23  O   UNL     1      33.815 -13.304 -25.980  0.00  0.00    -0.245 OA
ATOM     24  C   UNL     1      33.596 -13.824 -24.897  0.00  0.00    +0.341 C 
BRANCH  24  25
ATOM     25  C   UNL     1      34.051 -15.192 -24.543  0.00  0.00    +0.076 C 
ATOM     26  C   UNL     1      33.449 -16.273 -25.154  0.00  0.00    +0.007 C 
ATOM     27  C   UNL     1      35.059 -15.341 -23.613  0.00  0.00    +0.007 C 
ATOM     28  C   UNL     1      33.875 -17.559 -24.821  0.00  0.00    +0.003 C 
ATOM     29  C   UNL     1      35.485 -16.626 -23.280  0.00  0.00    +0.003 C 
ATOM     30  C   UNL     1      34.893 -17.736 -23.884  0.00  0.00    +0.039 C 
BRANCH  30  32
ATOM     31  O   UNL     1      35.389 -19.962 -24.402  0.00  0.00    -0.286 OA
ATOM     32  C   UNL     1      35.337 -19.076 -23.536  0.00  0.00    +0.198 C 
BRANCH  32  33
ATOM     33  C   UNL     1      35.744 -19.449 -22.148  0.00  0.00    +0.073 C 
ATOM     34  C   UNL     1      36.997 -19.107 -21.692  0.00  0.00    +0.137 C 
ATOM     35  C   UNL     1      34.831 -20.128 -21.373  0.00  0.00    +0.006 C 
ATOM     36  C   UNL     1      37.357 -19.464 -20.394  0.00  0.00    +0.037 C 
ATOM     37  C   UNL     1      35.191 -20.485 -20.074  0.00  0.00    +0.000 C 
ATOM     38  C   UNL     1      36.454 -20.154 -19.584  0.00  0.00    +0.003 C 
BRANCH  34  39
ATOM     39  O   UNL     1      37.893 -18.434 -22.468  0.00  0.00    -0.505 OA
ATOM     40  H   UNL     1      38.477 -17.813 -22.079  0.00  0.00    +0.292 HD
ENDBRANCH  34  39
ENDBRANCH  32  33
ENDBRANCH  30  32
ENDBRANCH  24  25
ENDBRANCH  22  24
ENDBRANCH   3  22
TORSDOF 9
ENDMDL
