MODEL 1
REMARK VINA RESULT:     -12.3      0.000      0.000
REMARK  Name = 66571548
REMARK  8 active torsions:
REMARK  status: ('A' for Active; 'I' for Inactive)
REMARK    1  A    between atoms: C_2  and  C_10
REMARK    2  A    between atoms: C_2  and  C_22
REMARK    3  A    between atoms: N_3  and  C_15
REMARK    4  A    between atoms: C_15  and  C_18
REMARK    5  A    between atoms: C_18  and  O_19
REMARK    6  A    between atoms: C_25  and  N_28
REMARK    7  A    between atoms: C_29  and  C_31
REMARK    8  A    between atoms: C_31  and  C_34
REMARK                            x       y       z     vdW  Elec       q    Type
REMARK                         _______ _______ _______ _____ _____    ______ ____
ROOT
ATOM      1  O   UNL     1      32.329 -22.023 -18.884  0.00  0.00    -0.286 OA
ATOM      2  C   UNL     1      33.477 -22.004 -18.390  0.00  0.00    +0.199 C 
ENDROOT
BRANCH   2  10
ATOM      3  N   UNL     1      34.917 -23.562 -15.470  0.00  0.00    -0.261 N 
ATOM      4  N   UNL     1      33.119 -24.375 -14.084  0.00  0.00    -0.322 NA
ATOM      5  N   UNL     1      30.918 -23.927 -15.025  0.00  0.00    -0.170 NA
ATOM      6  N   UNL     1      31.168 -25.039 -12.980  0.00  0.00    -0.293 N 
ATOM      7  C   UNL     1      33.593 -23.760 -15.182  0.00  0.00    +0.201 C 
ATOM      8  C   UNL     1      35.031 -22.901 -16.666  0.00  0.00    +0.071 C 
ATOM      9  C   UNL     1      32.843 -23.215 -16.217  0.00  0.00    +0.069 C 
ATOM     10  C   UNL     1      33.761 -22.674 -17.153  0.00  0.00    +0.059 C 
ATOM     11  C   UNL     1      31.457 -23.319 -16.107  0.00  0.00    +0.116 C 
ATOM     12  C   UNL     1      31.772 -24.410 -14.093  0.00  0.00    +0.143 C 
ATOM     13  H   UNL     1      31.729 -25.413 -12.263  0.00  0.00    +0.155 HD
ATOM     14  H   UNL     1      30.188 -25.101 -12.921  0.00  0.00    +0.155 HD
BRANCH   3  15
ATOM     15  C   UNL     1      36.105 -24.008 -14.596  0.00  0.00    +0.091 C 
ATOM     16  C   UNL     1      36.410 -25.523 -14.691  0.00  0.00    +0.023 C 
ATOM     17  C   UNL     1      37.378 -23.263 -15.058  0.00  0.00    +0.023 C 
BRANCH  15  18
ATOM     18  C   UNL     1      35.838 -23.660 -13.109  0.00  0.00    +0.155 C 
BRANCH  18  19
ATOM     19  O   UNL     1      35.461 -24.824 -12.380  0.00  0.00    -0.380 OA
ATOM     20  H   UNL     1      34.496 -24.924 -12.408  0.00  0.00    +0.211 HD
ENDBRANCH  18  19
ENDBRANCH  15  18
ENDBRANCH   3  15
ENDBRANCH   2  10
BRANCH   2  22
ATOM     21  N   UNL     1      36.814 -20.526 -19.390  0.00  0.00    -0.241 NA
ATOM     22  C   UNL     1      34.516 -21.245 -19.169  0.00  0.00    +0.059 C 
ATOM     23  C   UNL     1      34.186 -20.573 -20.342  0.00  0.00    +0.021 C 
ATOM     24  C   UNL     1      35.832 -21.190 -18.739  0.00  0.00    +0.102 C 
ATOM     25  C   UNL     1      35.169 -19.878 -21.039  0.00  0.00    +0.070 C 
ATOM     26  C   UNL     1      36.456 -19.886 -20.526  0.00  0.00    +0.113 C 
BRANCH  25  28
ATOM     27  O   UNL     1      36.950 -18.342 -22.905  0.00  0.00    -0.274 OA
ATOM     28  N   UNL     1      34.868 -19.196 -22.215  0.00  0.00    -0.282 N 
ATOM     29  C   UNL     1      35.741 -18.489 -23.060  0.00  0.00    +0.232 C 
ATOM     30  H   UNL     1      33.923 -19.212 -22.489  0.00  0.00    +0.155 HD
BRANCH  29  31
ATOM     31  C   UNL     1      34.996 -17.891 -24.243  0.00  0.00    +0.131 C 
BRANCH  31  34
ATOM     32 CL   UNL     1      33.878 -12.065 -23.798  0.00  0.00    -0.081 Cl
ATOM     33  N   UNL     1      34.096 -15.812 -25.132  0.00  0.00    -0.247 NA
ATOM     34  C   UNL     1      34.727 -16.416 -24.100  0.00  0.00    +0.068 C 
ATOM     35  C   UNL     1      35.129 -15.761 -22.947  0.00  0.00    +0.016 C 
ATOM     36  C   UNL     1      34.866 -14.399 -22.846  0.00  0.00    +0.014 C 
ATOM     37  C   UNL     1      33.857 -14.489 -24.999  0.00  0.00    +0.110 C 
ATOM     38  C   UNL     1      34.219 -13.743 -23.887  0.00  0.00    +0.077 C 
ENDBRANCH  31  34
ENDBRANCH  29  31
ENDBRANCH  25  28
ENDBRANCH   2  22
TORSDOF 8
ENDMDL
MODEL 2
REMARK VINA RESULT:     -12.2      1.878      3.300
REMARK  Name = 66571548
REMARK  8 active torsions:
REMARK  status: ('A' for Active; 'I' for Inactive)
REMARK    1  A    between atoms: C_2  and  C_10
REMARK    2  A    between atoms: C_2  and  C_22
REMARK    3  A    between atoms: N_3  and  C_15
REMARK    4  A    between atoms: C_15  and  C_18
REMARK    5  A    between atoms: C_18  and  O_19
REMARK    6  A    between atoms: C_25  and  N_28
REMARK    7  A    between atoms: C_29  and  C_31
REMARK    8  A    between atoms: C_31  and  C_34
REMARK                            x       y       z     vdW  Elec       q    Type
REMARK                         _______ _______ _______ _____ _____    ______ ____
ROOT
ATOM      1  O   UNL     1      36.906 -22.029 -18.643  0.00  0.00    -0.286 OA
ATOM      2  C   UNL     1      35.715 -21.863 -18.300  0.00  0.00    +0.199 C 
ENDROOT
BRANCH   2  10
ATOM      3  N   UNL     1      33.826 -23.122 -15.495  0.00  0.00    -0.261 N 
ATOM      4  N   UNL     1      35.339 -23.429 -13.643  0.00  0.00    -0.322 NA
ATOM      5  N   UNL     1      37.634 -22.818 -14.180  0.00  0.00    -0.170 NA
ATOM      6  N   UNL     1      37.047 -23.612 -12.057  0.00  0.00    -0.293 N 
ATOM      7  C   UNL     1      35.063 -23.074 -14.910  0.00  0.00    +0.201 C 
ATOM      8  C   UNL     1      33.916 -22.690 -16.793  0.00  0.00    +0.071 C 
ATOM      9  C   UNL     1      35.965 -22.599 -15.854  0.00  0.00    +0.069 C 
ATOM     10  C   UNL     1      35.232 -22.358 -17.043  0.00  0.00    +0.059 C 
ATOM     11  C   UNL     1      37.292 -22.477 -15.444  0.00  0.00    +0.116 C 
ATOM     12  C   UNL     1      36.649 -23.267 -13.369  0.00  0.00    +0.143 C 
ATOM     13  H   UNL     1      36.382 -23.946 -11.413  0.00  0.00    +0.155 HD
ATOM     14  H   UNL     1      37.989 -23.519 -11.788  0.00  0.00    +0.155 HD
BRANCH   3  15
ATOM     15  C   UNL     1      32.525 -23.586 -14.812  0.00  0.00    +0.091 C 
ATOM     16  C   UNL     1      32.031 -22.626 -13.702  0.00  0.00    +0.023 C 
ATOM     17  C   UNL     1      31.400 -23.665 -15.871  0.00  0.00    +0.023 C 
BRANCH  15  18
ATOM     18  C   UNL     1      32.717 -24.991 -14.187  0.00  0.00    +0.155 C 
BRANCH  18  19
ATOM     19  O   UNL     1      32.826 -24.900 -12.770  0.00  0.00    -0.380 OA
ATOM     20  H   UNL     1      32.194 -25.510 -12.358  0.00  0.00    +0.211 HD
ENDBRANCH  18  19
ENDBRANCH  15  18
ENDBRANCH   3  15
ENDBRANCH   2  10
BRANCH   2  22
ATOM     21  N   UNL     1      32.644 -20.728 -20.197  0.00  0.00    -0.241 NA
ATOM     22  C   UNL     1      34.846 -21.124 -19.281  0.00  0.00    +0.059 C 
ATOM     23  C   UNL     1      35.386 -20.188 -20.156  0.00  0.00    +0.021 C 
ATOM     24  C   UNL     1      33.481 -21.356 -19.341  0.00  0.00    +0.102 C 
ATOM     25  C   UNL     1      34.557 -19.522 -21.052  0.00  0.00    +0.070 C 
ATOM     26  C   UNL     1      33.205 -19.825 -21.032  0.00  0.00    +0.113 C 
BRANCH  25  28
ATOM     27  O   UNL     1      34.423 -19.403 -24.049  0.00  0.00    -0.274 OA
ATOM     28  N   UNL     1      35.070 -18.580 -21.941  0.00  0.00    -0.282 N 
ATOM     29  C   UNL     1      34.980 -18.566 -23.344  0.00  0.00    +0.232 C 
ATOM     30  H   UNL     1      35.557 -17.828 -21.534  0.00  0.00    +0.155 HD
BRANCH  29  31
ATOM     31  C   UNL     1      35.682 -17.350 -23.927  0.00  0.00    +0.131 C 
BRANCH  31  34
ATOM     32 CL   UNL     1      33.023 -12.219 -22.517  0.00  0.00    -0.081 Cl
ATOM     33  N   UNL     1      35.155 -15.580 -22.344  0.00  0.00    -0.247 NA
ATOM     34  C   UNL     1      34.996 -16.049 -23.602  0.00  0.00    +0.068 C 
ATOM     35  C   UNL     1      34.253 -15.409 -24.581  0.00  0.00    +0.016 C 
ATOM     36  C   UNL     1      33.633 -14.210 -24.248  0.00  0.00    +0.014 C 
ATOM     37  C   UNL     1      34.538 -14.411 -22.057  0.00  0.00    +0.110 C 
ATOM     38  C   UNL     1      33.773 -13.695 -22.964  0.00  0.00    +0.077 C 
ENDBRANCH  31  34
ENDBRANCH  29  31
ENDBRANCH  25  28
ENDBRANCH   2  22
TORSDOF 8
ENDMDL
MODEL 3
REMARK VINA RESULT:     -12.0      1.312      2.838
REMARK  Name = 66571548
REMARK  8 active torsions:
REMARK  status: ('A' for Active; 'I' for Inactive)
REMARK    1  A    between atoms: C_2  and  C_10
REMARK    2  A    between atoms: C_2  and  C_22
REMARK    3  A    between atoms: N_3  and  C_15
REMARK    4  A    between atoms: C_15  and  C_18
REMARK    5  A    between atoms: C_18  and  O_19
REMARK    6  A    between atoms: C_25  and  N_28
REMARK    7  A    between atoms: C_29  and  C_31
REMARK    8  A    between atoms: C_31  and  C_34
REMARK                            x       y       z     vdW  Elec       q    Type
REMARK                         _______ _______ _______ _____ _____    ______ ____
ROOT
ATOM      1  O   UNL     1      33.864 -23.710 -19.577  0.00  0.00    -0.286 OA
ATOM      2  C   UNL     1      34.229 -22.845 -18.751  0.00  0.00    +0.199 C 
ENDROOT
BRANCH   2  10
ATOM      3  N   UNL     1      32.733 -23.228 -15.489  0.00  0.00    -0.261 N 
ATOM      4  N   UNL     1      34.494 -23.184 -13.841  0.00  0.00    -0.322 NA
ATOM      5  N   UNL     1      36.704 -22.901 -14.821  0.00  0.00    -0.170 NA
ATOM      6  N   UNL     1      36.412 -23.101 -12.508  0.00  0.00    -0.293 N 
ATOM      7  C   UNL     1      34.045 -23.132 -15.108  0.00  0.00    +0.201 C 
ATOM      8  C   UNL     1      32.645 -23.137 -16.854  0.00  0.00    +0.071 C 
ATOM      9  C   UNL     1      34.813 -22.974 -16.255  0.00  0.00    +0.069 C 
ATOM     10  C   UNL     1      33.920 -22.978 -17.356  0.00  0.00    +0.059 C 
ATOM     11  C   UNL     1      36.191 -22.856 -16.073  0.00  0.00    +0.116 C 
ATOM     12  C   UNL     1      35.835 -23.060 -13.798  0.00  0.00    +0.143 C 
ATOM     13  H   UNL     1      35.838 -23.215 -11.716  0.00  0.00    +0.155 HD
ATOM     14  H   UNL     1      37.387 -23.017 -12.401  0.00  0.00    +0.155 HD
BRANCH   3  15
ATOM     15  C   UNL     1      31.532 -23.410 -14.541  0.00  0.00    +0.091 C 
ATOM     16  C   UNL     1      31.707 -22.701 -13.176  0.00  0.00    +0.023 C 
ATOM     17  C   UNL     1      30.272 -22.806 -15.204  0.00  0.00    +0.023 C 
BRANCH  15  18
ATOM     18  C   UNL     1      31.280 -24.916 -14.275  0.00  0.00    +0.155 C 
BRANCH  18  19
ATOM     19  O   UNL     1      32.361 -25.485 -13.544  0.00  0.00    -0.380 OA
ATOM     20  H   UNL     1      32.065 -26.302 -13.113  0.00  0.00    +0.211 HD
ENDBRANCH  18  19
ENDBRANCH  15  18
ENDBRANCH   3  15
ENDBRANCH   2  10
BRANCH   2  22
ATOM     21  N   UNL     1      36.892 -20.187 -19.155  0.00  0.00    -0.241 NA
ATOM     22  C   UNL     1      34.998 -21.681 -19.314  0.00  0.00    +0.059 C 
ATOM     23  C   UNL     1      34.568 -21.025 -20.463  0.00  0.00    +0.021 C 
ATOM     24  C   UNL     1      36.155 -21.226 -18.703  0.00  0.00    +0.102 C 
ATOM     25  C   UNL     1      35.299 -19.951 -20.959  0.00  0.00    +0.070 C 
ATOM     26  C   UNL     1      36.444 -19.575 -20.274  0.00  0.00    +0.113 C 
BRANCH  25  28
ATOM     27  O   UNL     1      36.902 -18.415 -22.980  0.00  0.00    -0.274 OA
ATOM     28  N   UNL     1      34.893 -19.275 -22.107  0.00  0.00    -0.282 N 
ATOM     29  C   UNL     1      35.685 -18.567 -23.027  0.00  0.00    +0.232 C 
ATOM     30  H   UNL     1      33.928 -19.295 -22.297  0.00  0.00    +0.155 HD
BRANCH  29  31
ATOM     31  C   UNL     1      34.836 -17.977 -24.143  0.00  0.00    +0.131 C 
BRANCH  31  34
ATOM     32 CL   UNL     1      34.050 -12.089 -23.825  0.00  0.00    -0.081 Cl
ATOM     33  N   UNL     1      34.076 -15.867 -25.087  0.00  0.00    -0.247 NA
ATOM     34  C   UNL     1      34.651 -16.486 -24.032  0.00  0.00    +0.068 C 
ATOM     35  C   UNL     1      35.069 -15.834 -22.883  0.00  0.00    +0.016 C 
ATOM     36  C   UNL     1      34.884 -14.458 -22.812  0.00  0.00    +0.014 C 
ATOM     37  C   UNL     1      33.911 -14.530 -24.982  0.00  0.00    +0.110 C 
ATOM     38  C   UNL     1      34.295 -13.785 -23.877  0.00  0.00    +0.077 C 
ENDBRANCH  31  34
ENDBRANCH  29  31
ENDBRANCH  25  28
ENDBRANCH   2  22
TORSDOF 8
ENDMDL
MODEL 4
REMARK VINA RESULT:     -11.0      5.478     12.675
REMARK  Name = 66571548
REMARK  8 active torsions:
REMARK  status: ('A' for Active; 'I' for Inactive)
REMARK    1  A    between atoms: C_2  and  C_10
REMARK    2  A    between atoms: C_2  and  C_22
REMARK    3  A    between atoms: N_3  and  C_15
REMARK    4  A    between atoms: C_15  and  C_18
REMARK    5  A    between atoms: C_18  and  O_19
REMARK    6  A    between atoms: C_25  and  N_28
REMARK    7  A    between atoms: C_29  and  C_31
REMARK    8  A    between atoms: C_31  and  C_34
REMARK                            x       y       z     vdW  Elec       q    Type
REMARK                         _______ _______ _______ _____ _____    ______ ____
ROOT
ATOM      1  O   UNL     1      35.062 -11.123 -26.034  0.00  0.00    -0.286 OA
ATOM      2  C   UNL     1      34.403 -11.508 -25.044  0.00  0.00    +0.199 C 
ENDROOT
BRANCH   2  10
ATOM      3  N   UNL     1      33.422  -8.628 -23.103  0.00  0.00    -0.261 N 
ATOM      4  N   UNL     1      32.093  -9.390 -21.240  0.00  0.00    -0.322 NA
ATOM      5  N   UNL     1      31.807 -11.808 -21.204  0.00  0.00    -0.170 NA
ATOM      6  N   UNL     1      30.855 -10.442 -19.559  0.00  0.00    -0.293 N 
ATOM      7  C   UNL     1      32.815  -9.602 -22.354  0.00  0.00    +0.201 C 
ATOM      8  C   UNL     1      34.068  -9.204 -24.166  0.00  0.00    +0.071 C 
ATOM      9  C   UNL     1      33.081 -10.828 -22.952  0.00  0.00    +0.069 C 
ATOM     10  C   UNL     1      33.874 -10.568 -24.098  0.00  0.00    +0.059 C 
ATOM     11  C   UNL     1      32.544 -11.955 -22.330  0.00  0.00    +0.116 C 
ATOM     12  C   UNL     1      31.630 -10.552 -20.737  0.00  0.00    +0.143 C 
ATOM     13  H   UNL     1      30.685  -9.557 -19.162  0.00  0.00    +0.155 HD
ATOM     14  H   UNL     1      30.484 -11.250 -19.136  0.00  0.00    +0.155 HD
BRANCH   3  15
ATOM     15  C   UNL     1      33.392  -7.116 -22.806  0.00  0.00    +0.091 C 
ATOM     16  C   UNL     1      33.650  -6.771 -21.319  0.00  0.00    +0.023 C 
ATOM     17  C   UNL     1      34.501  -6.420 -23.629  0.00  0.00    +0.023 C 
BRANCH  15  18
ATOM     18  C   UNL     1      32.022  -6.516 -23.211  0.00  0.00    +0.155 C 
BRANCH  18  19
ATOM     19  O   UNL     1      31.161  -6.418 -22.081  0.00  0.00    -0.380 OA
ATOM     20  H   UNL     1      30.702  -7.263 -21.951  0.00  0.00    +0.211 HD
ENDBRANCH  18  19
ENDBRANCH  15  18
ENDBRANCH   3  15
ENDBRANCH   2  10
BRANCH   2  22
ATOM     21  N   UNL     1      33.161 -15.016 -25.730  0.00  0.00    -0.241 NA
ATOM     22  C   UNL     1      34.211 -12.995 -24.919  0.00  0.00    +0.059 C 
ATOM     23  C   UNL     1      34.860 -13.722 -23.926  0.00  0.00    +0.021 C 
ATOM     24  C   UNL     1      33.379 -13.682 -25.787  0.00  0.00    +0.102 C 
ATOM     25  C   UNL     1      34.660 -15.095 -23.835  0.00  0.00    +0.070 C 
ATOM     26  C   UNL     1      33.809 -15.689 -24.753  0.00  0.00    +0.113 C 
BRANCH  25  28
ATOM     27  O   UNL     1      35.592 -17.949 -23.872  0.00  0.00    -0.274 OA
ATOM     28  N   UNL     1      35.296 -15.849 -22.852  0.00  0.00    -0.282 N 
ATOM     29  C   UNL     1      35.716 -17.189 -22.916  0.00  0.00    +0.232 C 
ATOM     30  H   UNL     1      35.474 -15.384 -22.003  0.00  0.00    +0.155 HD
BRANCH  29  31
ATOM     31  C   UNL     1      36.371 -17.623 -21.614  0.00  0.00    +0.131 C 
BRANCH  31  34
ATOM     32 CL   UNL     1      33.894 -22.398 -19.074  0.00  0.00    -0.081 Cl
ATOM     33  N   UNL     1      36.519 -19.661 -20.293  0.00  0.00    -0.247 NA
ATOM     34  C   UNL     1      35.714 -18.823 -20.983  0.00  0.00    +0.068 C 
ATOM     35  C   UNL     1      34.349 -19.008 -21.135  0.00  0.00    +0.016 C 
ATOM     36  C   UNL     1      33.773 -20.125 -20.540  0.00  0.00    +0.014 C 
ATOM     37  C   UNL     1      35.924 -20.735 -19.728  0.00  0.00    +0.110 C 
ATOM     38  C   UNL     1      34.569 -21.011 -19.822  0.00  0.00    +0.077 C 
ENDBRANCH  31  34
ENDBRANCH  29  31
ENDBRANCH  25  28
ENDBRANCH   2  22
TORSDOF 8
ENDMDL
MODEL 5
REMARK VINA RESULT:     -10.7      3.955     10.216
REMARK  Name = 66571548
REMARK  8 active torsions:
REMARK  status: ('A' for Active; 'I' for Inactive)
REMARK    1  A    between atoms: C_2  and  C_10
REMARK    2  A    between atoms: C_2  and  C_22
REMARK    3  A    between atoms: N_3  and  C_15
REMARK    4  A    between atoms: C_15  and  C_18
REMARK    5  A    between atoms: C_18  and  O_19
REMARK    6  A    between atoms: C_25  and  N_28
REMARK    7  A    between atoms: C_29  and  C_31
REMARK    8  A    between atoms: C_31  and  C_34
REMARK                            x       y       z     vdW  Elec       q    Type
REMARK                         _______ _______ _______ _____ _____    ______ ____
ROOT
ATOM      1  O   UNL     1      34.247 -23.577 -19.629  0.00  0.00    -0.286 OA
ATOM      2  C   UNL     1      34.417 -22.613 -18.851  0.00  0.00    +0.199 C 
ENDROOT
BRANCH   2  10
ATOM      3  N   UNL     1      36.029 -19.791 -20.420  0.00  0.00    -0.261 N 
ATOM      4  N   UNL     1      37.801 -19.033 -18.971  0.00  0.00    -0.322 NA
ATOM      5  N   UNL     1      37.989 -20.349 -16.931  0.00  0.00    -0.170 NA
ATOM      6  N   UNL     1      39.424 -18.551 -17.359  0.00  0.00    -0.293 N 
ATOM      7  C   UNL     1      36.784 -19.856 -19.279  0.00  0.00    +0.201 C 
ATOM      8  C   UNL     1      35.082 -20.782 -20.399  0.00  0.00    +0.071 C 
ATOM      9  C   UNL     1      36.309 -20.913 -18.512  0.00  0.00    +0.069 C 
ATOM     10  C   UNL     1      35.232 -21.494 -19.227  0.00  0.00    +0.059 C 
ATOM     11  C   UNL     1      36.957 -21.144 -17.298  0.00  0.00    +0.116 C 
ATOM     12  C   UNL     1      38.341 -19.356 -17.779  0.00  0.00    +0.143 C 
ATOM     13  H   UNL     1      39.735 -17.809 -17.927  0.00  0.00    +0.155 HD
ATOM     14  H   UNL     1      39.867 -18.730 -16.498  0.00  0.00    +0.155 HD
BRANCH   3  15
ATOM     15  C   UNL     1      36.207 -18.769 -21.559  0.00  0.00    +0.091 C 
ATOM     16  C   UNL     1      37.681 -18.568 -21.987  0.00  0.00    +0.023 C 
ATOM     17  C   UNL     1      35.440 -19.266 -22.806  0.00  0.00    +0.023 C 
BRANCH  15  18
ATOM     18  C   UNL     1      35.633 -17.391 -21.140  0.00  0.00    +0.155 C 
BRANCH  18  19
ATOM     19  O   UNL     1      35.408 -16.571 -22.282  0.00  0.00    -0.380 OA
ATOM     20  H   UNL     1      36.250 -16.191 -22.578  0.00  0.00    +0.211 HD
ENDBRANCH  18  19
ENDBRANCH  15  18
ENDBRANCH   3  15
ENDBRANCH   2  10
BRANCH   2  22
ATOM     21  N   UNL     1      31.663 -22.598 -16.255  0.00  0.00    -0.241 NA
ATOM     22  C   UNL     1      33.720 -22.711 -17.521  0.00  0.00    +0.059 C 
ATOM     23  C   UNL     1      34.430 -22.988 -16.358  0.00  0.00    +0.021 C 
ATOM     24  C   UNL     1      32.351 -22.525 -17.417  0.00  0.00    +0.102 C 
ATOM     25  C   UNL     1      33.757 -23.070 -15.143  0.00  0.00    +0.070 C 
ATOM     26  C   UNL     1      32.386 -22.869 -15.146  0.00  0.00    +0.113 C 
BRANCH  25  28
ATOM     27  O   UNL     1      32.939 -24.700 -12.758  0.00  0.00    -0.274 OA
ATOM     28  N   UNL     1      34.442 -23.345 -13.961  0.00  0.00    -0.282 N 
ATOM     29  C   UNL     1      34.015 -24.118 -12.867  0.00  0.00    +0.232 C 
ATOM     30  H   UNL     1      35.338 -22.947 -13.882  0.00  0.00    +0.155 HD
BRANCH  29  31
ATOM     31  C   UNL     1      35.076 -24.162 -11.778  0.00  0.00    +0.131 C 
BRANCH  31  34
ATOM     32 CL   UNL     1      40.437 -25.630 -13.898  0.00  0.00    -0.081 Cl
ATOM     33  N   UNL     1      36.501 -25.343 -13.358  0.00  0.00    -0.247 NA
ATOM     34  C   UNL     1      36.448 -24.514 -12.291  0.00  0.00    +0.068 C 
ATOM     35  C   UNL     1      37.564 -23.987 -11.662  0.00  0.00    +0.016 C 
ATOM     36  C   UNL     1      38.816 -24.332 -12.160  0.00  0.00    +0.014 C 
ATOM     37  C   UNL     1      37.734 -25.656 -13.814  0.00  0.00    +0.110 C 
ATOM     38  C   UNL     1      38.911 -25.183 -13.256  0.00  0.00    +0.077 C 
ENDBRANCH  31  34
ENDBRANCH  29  31
ENDBRANCH  25  28
ENDBRANCH   2  22
TORSDOF 8
ENDMDL
MODEL 6
REMARK VINA RESULT:     -10.7      2.525      4.819
REMARK  Name = 66571548
REMARK  8 active torsions:
REMARK  status: ('A' for Active; 'I' for Inactive)
REMARK    1  A    between atoms: C_2  and  C_10
REMARK    2  A    between atoms: C_2  and  C_22
REMARK    3  A    between atoms: N_3  and  C_15
REMARK    4  A    between atoms: C_15  and  C_18
REMARK    5  A    between atoms: C_18  and  O_19
REMARK    6  A    between atoms: C_25  and  N_28
REMARK    7  A    between atoms: C_29  and  C_31
REMARK    8  A    between atoms: C_31  and  C_34
REMARK                            x       y       z     vdW  Elec       q    Type
REMARK                         _______ _______ _______ _____ _____    ______ ____
ROOT
ATOM      1  O   UNL     1      32.095 -24.983 -13.842  0.00  0.00    -0.286 OA
ATOM      2  C   UNL     1      33.044 -24.385 -14.394  0.00  0.00    +0.199 C 
ENDROOT
BRANCH   2  10
ATOM      3  N   UNL     1      36.178 -24.269 -12.607  0.00  0.00    -0.261 N 
ATOM      4  N   UNL     1      37.780 -25.616 -13.805  0.00  0.00    -0.322 NA
ATOM      5  N   UNL     1      36.852 -26.633 -15.813  0.00  0.00    -0.170 NA
ATOM      6  N   UNL     1      39.081 -26.982 -15.187  0.00  0.00    -0.293 N 
ATOM      7  C   UNL     1      36.556 -25.086 -13.640  0.00  0.00    +0.201 C 
ATOM      8  C   UNL     1      34.861 -23.920 -12.758  0.00  0.00    +0.071 C 
ATOM      9  C   UNL     1      35.456 -25.261 -14.471  0.00  0.00    +0.069 C 
ATOM     10  C   UNL     1      34.387 -24.520 -13.906  0.00  0.00    +0.059 C 
ATOM     11  C   UNL     1      35.642 -26.070 -15.591  0.00  0.00    +0.116 C 
ATOM     12  C   UNL     1      37.832 -26.375 -14.918  0.00  0.00    +0.143 C 
ATOM     13  H   UNL     1      39.839 -26.837 -14.577  0.00  0.00    +0.155 HD
ATOM     14  H   UNL     1      39.191 -27.549 -15.983  0.00  0.00    +0.155 HD
BRANCH   3  15
ATOM     15  C   UNL     1      37.083 -23.806 -11.450  0.00  0.00    +0.091 C 
ATOM     16  C   UNL     1      38.296 -24.735 -11.201  0.00  0.00    +0.023 C 
ATOM     17  C   UNL     1      37.651 -22.406 -11.783  0.00  0.00    +0.023 C 
BRANCH  15  18
ATOM     18  C   UNL     1      36.269 -23.711 -10.135  0.00  0.00    +0.155 C 
BRANCH  18  19
ATOM     19  O   UNL     1      35.658 -24.960  -9.830  0.00  0.00    -0.380 OA
ATOM     20  H   UNL     1      35.940 -25.252  -8.949  0.00  0.00    +0.211 HD
ENDBRANCH  18  19
ENDBRANCH  15  18
ENDBRANCH   3  15
ENDBRANCH   2  10
BRANCH   2  22
ATOM     21  N   UNL     1      30.980 -22.390 -16.859  0.00  0.00    -0.241 NA
ATOM     22  C   UNL     1      32.684 -23.531 -15.579  0.00  0.00    +0.059 C 
ATOM     23  C   UNL     1      33.657 -23.099 -16.475  0.00  0.00    +0.021 C 
ATOM     24  C   UNL     1      31.372 -23.154 -15.814  0.00  0.00    +0.102 C 
ATOM     25  C   UNL     1      33.292 -22.312 -17.562  0.00  0.00    +0.070 C 
ATOM     26  C   UNL     1      31.953 -21.988 -17.708  0.00  0.00    +0.113 C 
BRANCH  25  28
ATOM     27  O   UNL     1      33.022 -20.431 -19.887  0.00  0.00    -0.274 OA
ATOM     28  N   UNL     1      34.244 -21.865 -18.476  0.00  0.00    -0.282 N 
ATOM     29  C   UNL     1      34.069 -20.979 -19.553  0.00  0.00    +0.232 C 
ATOM     30  H   UNL     1      35.155 -22.215 -18.351  0.00  0.00    +0.155 HD
BRANCH  29  31
ATOM     31  C   UNL     1      35.374 -20.759 -20.301  0.00  0.00    +0.131 C 
BRANCH  31  34
ATOM     32 CL   UNL     1      35.305 -15.967 -23.826  0.00  0.00    -0.081 Cl
ATOM     33  N   UNL     1      35.738 -18.385 -20.689  0.00  0.00    -0.247 NA
ATOM     34  C   UNL     1      35.345 -19.565 -21.219  0.00  0.00    +0.068 C 
ATOM     35  C   UNL     1      34.928 -19.726 -22.530  0.00  0.00    +0.016 C 
ATOM     36  C   UNL     1      34.913 -18.604 -23.351  0.00  0.00    +0.014 C 
ATOM     37  C   UNL     1      35.711 -17.316 -21.517  0.00  0.00    +0.110 C 
ATOM     38  C   UNL     1      35.310 -17.372 -22.843  0.00  0.00    +0.077 C 
ENDBRANCH  31  34
ENDBRANCH  29  31
ENDBRANCH  25  28
ENDBRANCH   2  22
TORSDOF 8
ENDMDL
MODEL 7
REMARK VINA RESULT:     -10.6      8.575     16.767
REMARK  Name = 66571548
REMARK  8 active torsions:
REMARK  status: ('A' for Active; 'I' for Inactive)
REMARK    1  A    between atoms: C_2  and  C_10
REMARK    2  A    between atoms: C_2  and  C_22
REMARK    3  A    between atoms: N_3  and  C_15
REMARK    4  A    between atoms: C_15  and  C_18
REMARK    5  A    between atoms: C_18  and  O_19
REMARK    6  A    between atoms: C_25  and  N_28
REMARK    7  A    between atoms: C_29  and  C_31
REMARK    8  A    between atoms: C_31  and  C_34
REMARK                            x       y       z     vdW  Elec       q    Type
REMARK                         _______ _______ _______ _____ _____    ______ ____
ROOT
ATOM      1  O   UNL     1      36.040  -6.897 -22.876  0.00  0.00    -0.286 OA
ATOM      2  C   UNL     1      34.943  -6.939 -23.472  0.00  0.00    +0.199 C 
ENDROOT
BRANCH   2  10
ATOM      3  N   UNL     1      34.479  -4.333 -25.926  0.00  0.00    -0.261 N 
ATOM      4  N   UNL     1      32.421  -3.181 -25.424  0.00  0.00    -0.322 NA
ATOM      5  N   UNL     1      31.285  -4.077 -23.466  0.00  0.00    -0.170 NA
ATOM      6  N   UNL     1      30.398  -2.279 -24.675  0.00  0.00    -0.293 N 
ATOM      7  C   UNL     1      33.347  -4.125 -25.183  0.00  0.00    +0.201 C 
ATOM      8  C   UNL     1      35.190  -5.378 -25.394  0.00  0.00    +0.071 C 
ATOM      9  C   UNL     1      33.335  -5.057 -24.152  0.00  0.00    +0.069 C 
ATOM     10  C   UNL     1      34.504  -5.846 -24.293  0.00  0.00    +0.059 C 
ATOM     11  C   UNL     1      32.251  -5.006 -23.277  0.00  0.00    +0.116 C 
ATOM     12  C   UNL     1      31.428  -3.234 -24.514  0.00  0.00    +0.143 C 
ATOM     13  H   UNL     1      30.437  -1.634 -25.417  0.00  0.00    +0.155 HD
ATOM     14  H   UNL     1      29.641  -2.261 -24.046  0.00  0.00    +0.155 HD
BRANCH   3  15
ATOM     15  C   UNL     1      34.901  -3.525 -27.168  0.00  0.00    +0.091 C 
ATOM     16  C   UNL     1      35.071  -2.011 -26.894  0.00  0.00    +0.023 C 
ATOM     17  C   UNL     1      36.267  -4.048 -27.670  0.00  0.00    +0.023 C 
BRANCH  15  18
ATOM     18  C   UNL     1      33.857  -3.697 -28.301  0.00  0.00    +0.155 C 
BRANCH  18  19
ATOM     19  O   UNL     1      32.990  -2.569 -28.362  0.00  0.00    -0.380 OA
ATOM     20  H   UNL     1      32.162  -2.773 -27.900  0.00  0.00    +0.211 HD
ENDBRANCH  18  19
ENDBRANCH  15  18
ENDBRANCH   3  15
ENDBRANCH   2  10
BRANCH   2  22
ATOM     21  N   UNL     1      32.305  -9.310 -22.153  0.00  0.00    -0.241 NA
ATOM     22  C   UNL     1      34.133  -8.191 -23.272  0.00  0.00    +0.059 C 
ATOM     23  C   UNL     1      34.426  -9.356 -23.973  0.00  0.00    +0.021 C 
ATOM     24  C   UNL     1      33.072  -8.220 -22.381  0.00  0.00    +0.102 C 
ATOM     25  C   UNL     1      33.660 -10.498 -23.764  0.00  0.00    +0.070 C 
ATOM     26  C   UNL     1      32.620 -10.423 -22.852  0.00  0.00    +0.113 C 
BRANCH  25  28
ATOM     27  O   UNL     1      33.024 -13.346 -23.059  0.00  0.00    -0.274 OA
ATOM     28  N   UNL     1      33.931 -11.679 -24.451  0.00  0.00    -0.282 N 
ATOM     29  C   UNL     1      33.611 -12.996 -24.079  0.00  0.00    +0.232 C 
ATOM     30  H   UNL     1      34.408 -11.578 -25.306  0.00  0.00    +0.155 HD
BRANCH  29  31
ATOM     31  C   UNL     1      34.092 -13.994 -25.121  0.00  0.00    +0.131 C 
BRANCH  31  34
ATOM     32 CL   UNL     1      35.398 -19.373 -22.942  0.00  0.00    -0.081 Cl
ATOM     33  N   UNL     1      33.921 -16.420 -25.171  0.00  0.00    -0.247 NA
ATOM     34  C   UNL     1      34.442 -15.341 -24.545  0.00  0.00    +0.068 C 
ATOM     35  C   UNL     1      35.258 -15.411 -23.428  0.00  0.00    +0.016 C 
ATOM     36  C   UNL     1      35.562 -16.670 -22.922  0.00  0.00    +0.014 C 
ATOM     37  C   UNL     1      34.238 -17.627 -24.651  0.00  0.00    +0.110 C 
ATOM     38  C   UNL     1      35.045 -17.805 -23.538  0.00  0.00    +0.077 C 
ENDBRANCH  31  34
ENDBRANCH  29  31
ENDBRANCH  25  28
ENDBRANCH   2  22
TORSDOF 8
ENDMDL
MODEL 8
REMARK VINA RESULT:     -10.5      1.625      2.040
REMARK  Name = 66571548
REMARK  8 active torsions:
REMARK  status: ('A' for Active; 'I' for Inactive)
REMARK    1  A    between atoms: C_2  and  C_10
REMARK    2  A    between atoms: C_2  and  C_22
REMARK    3  A    between atoms: N_3  and  C_15
REMARK    4  A    between atoms: C_15  and  C_18
REMARK    5  A    between atoms: C_18  and  O_19
REMARK    6  A    between atoms: C_25  and  N_28
REMARK    7  A    between atoms: C_29  and  C_31
REMARK    8  A    between atoms: C_31  and  C_34
REMARK                            x       y       z     vdW  Elec       q    Type
REMARK                         _______ _______ _______ _____ _____    ______ ____
ROOT
ATOM      1  O   UNL     1      37.170 -22.035 -17.905  0.00  0.00    -0.286 OA
ATOM      2  C   UNL     1      35.968 -22.082 -17.563  0.00  0.00    +0.199 C 
ENDROOT
BRANCH   2  10
ATOM      3  N   UNL     1      35.718 -23.441 -14.230  0.00  0.00    -0.261 N 
ATOM      4  N   UNL     1      33.438 -24.137 -13.867  0.00  0.00    -0.322 NA
ATOM      5  N   UNL     1      32.006 -23.739 -15.795  0.00  0.00    -0.170 NA
ATOM      6  N   UNL     1      31.170 -24.705 -13.834  0.00  0.00    -0.293 N 
ATOM      7  C   UNL     1      34.416 -23.606 -14.621  0.00  0.00    +0.201 C 
ATOM      8  C   UNL     1      36.434 -22.868 -15.249  0.00  0.00    +0.071 C 
ATOM      9  C   UNL     1      34.297 -23.130 -15.921  0.00  0.00    +0.069 C 
ATOM     10  C   UNL     1      35.578 -22.665 -16.311  0.00  0.00    +0.059 C 
ATOM     11  C   UNL     1      33.033 -23.214 -16.503  0.00  0.00    +0.116 C 
ATOM     12  C   UNL     1      32.270 -24.162 -14.538  0.00  0.00    +0.143 C 
ATOM     13  H   UNL     1      31.290 -25.032 -12.913  0.00  0.00    +0.155 HD
ATOM     14  H   UNL     1      30.286 -24.753 -14.263  0.00  0.00    +0.155 HD
BRANCH   3  15
ATOM     15  C   UNL     1      36.302 -23.834 -12.859  0.00  0.00    +0.091 C 
ATOM     16  C   UNL     1      35.250 -23.869 -11.724  0.00  0.00    +0.023 C 
ATOM     17  C   UNL     1      36.905 -25.255 -12.957  0.00  0.00    +0.023 C 
BRANCH  15  18
ATOM     18  C   UNL     1      37.424 -22.847 -12.448  0.00  0.00    +0.155 C 
BRANCH  18  19
ATOM     19  O   UNL     1      38.576 -23.552 -11.999  0.00  0.00    -0.380 OA
ATOM     20  H   UNL     1      38.314 -24.210 -11.336  0.00  0.00    +0.211 HD
ENDBRANCH  18  19
ENDBRANCH  15  18
ENDBRANCH   3  15
ENDBRANCH   2  10
BRANCH   2  22
ATOM     21  N   UNL     1      32.681 -21.119 -19.171  0.00  0.00    -0.241 NA
ATOM     22  C   UNL     1      34.984 -21.498 -18.539  0.00  0.00    +0.059 C 
ATOM     23  C   UNL     1      35.414 -20.822 -19.676  0.00  0.00    +0.021 C 
ATOM     24  C   UNL     1      33.619 -21.619 -18.334  0.00  0.00    +0.102 C 
ATOM     25  C   UNL     1      34.479 -20.295 -20.560  0.00  0.00    +0.070 C 
ATOM     26  C   UNL     1      33.137 -20.468 -20.264  0.00  0.00    +0.113 C 
BRANCH  25  28
ATOM     27  O   UNL     1      36.225 -17.872 -20.871  0.00  0.00    -0.274 OA
ATOM     28  N   UNL     1      34.881 -19.613 -21.707  0.00  0.00    -0.282 N 
ATOM     29  C   UNL     1      35.704 -18.478 -21.803  0.00  0.00    +0.232 C 
ATOM     30  H   UNL     1      34.544 -19.973 -22.559  0.00  0.00    +0.155 HD
BRANCH  29  31
ATOM     31  C   UNL     1      35.891 -18.055 -23.252  0.00  0.00    +0.131 C 
BRANCH  31  34
ATOM     32 CL   UNL     1      33.427 -12.820 -24.631  0.00  0.00    -0.081 Cl
ATOM     33  N   UNL     1      34.724 -16.582 -24.797  0.00  0.00    -0.247 NA
ATOM     34  C   UNL     1      35.275 -16.718 -23.570  0.00  0.00    +0.068 C 
ATOM     35  C   UNL     1      35.302 -15.713 -22.616  0.00  0.00    +0.016 C 
ATOM     36  C   UNL     1      34.725 -14.491 -22.942  0.00  0.00    +0.014 C 
ATOM     37  C   UNL     1      34.172 -15.381 -25.078  0.00  0.00    +0.110 C 
ATOM     38  C   UNL     1      34.148 -14.313 -24.195  0.00  0.00    +0.077 C 
ENDBRANCH  31  34
ENDBRANCH  29  31
ENDBRANCH  25  28
ENDBRANCH   2  22
TORSDOF 8
ENDMDL
MODEL 9
REMARK VINA RESULT:     -10.3      5.356     12.974
REMARK  Name = 66571548
REMARK  8 active torsions:
REMARK  status: ('A' for Active; 'I' for Inactive)
REMARK    1  A    between atoms: C_2  and  C_10
REMARK    2  A    between atoms: C_2  and  C_22
REMARK    3  A    between atoms: N_3  and  C_15
REMARK    4  A    between atoms: C_15  and  C_18
REMARK    5  A    between atoms: C_18  and  O_19
REMARK    6  A    between atoms: C_25  and  N_28
REMARK    7  A    between atoms: C_29  and  C_31
REMARK    8  A    between atoms: C_31  and  C_34
REMARK                            x       y       z     vdW  Elec       q    Type
REMARK                         _______ _______ _______ _____ _____    ______ ____
ROOT
ATOM      1  O   UNL     1      31.917 -12.731 -21.438  0.00  0.00    -0.286 OA
ATOM      2  C   UNL     1      32.749 -12.359 -22.293  0.00  0.00    +0.199 C 
ENDROOT
BRANCH   2  10
ATOM      3  N   UNL     1      32.877  -8.752 -22.307  0.00  0.00    -0.261 N 
ATOM      4  N   UNL     1      34.491  -8.060 -23.959  0.00  0.00    -0.322 NA
ATOM      5  N   UNL     1      35.536  -9.935 -25.109  0.00  0.00    -0.170 NA
ATOM      6  N   UNL     1      36.100  -7.722 -25.621  0.00  0.00    -0.293 N 
ATOM      7  C   UNL     1      33.807  -8.998 -23.282  0.00  0.00    +0.201 C 
ATOM      8  C   UNL     1      32.385  -9.941 -21.833  0.00  0.00    +0.071 C 
ATOM      9  C   UNL     1      33.911 -10.376 -23.435  0.00  0.00    +0.069 C 
ATOM     10  C   UNL     1      33.008 -10.965 -22.515  0.00  0.00    +0.059 C 
ATOM     11  C   UNL     1      34.817 -10.830 -24.393  0.00  0.00    +0.116 C 
ATOM     12  C   UNL     1      35.330  -8.623 -24.851  0.00  0.00    +0.143 C 
ATOM     13  H   UNL     1      36.002  -6.751 -25.486  0.00  0.00    +0.155 HD
ATOM     14  H   UNL     1      36.734  -8.063 -26.291  0.00  0.00    +0.155 HD
BRANCH   3  15
ATOM     15  C   UNL     1      32.440  -7.360 -21.811  0.00  0.00    +0.091 C 
ATOM     16  C   UNL     1      33.486  -6.251 -22.079  0.00  0.00    +0.023 C 
ATOM     17  C   UNL     1      31.146  -6.946 -22.548  0.00  0.00    +0.023 C 
BRANCH  15  18
ATOM     18  C   UNL     1      32.154  -7.397 -20.288  0.00  0.00    +0.155 C 
BRANCH  18  19
ATOM     19  O   UNL     1      33.369  -7.387 -19.547  0.00  0.00    -0.380 OA
ATOM     20  H   UNL     1      33.908  -8.154 -19.799  0.00  0.00    +0.211 HD
ENDBRANCH  18  19
ENDBRANCH  15  18
ENDBRANCH   3  15
ENDBRANCH   2  10
BRANCH   2  22
ATOM     21  N   UNL     1      33.968 -14.479 -25.181  0.00  0.00    -0.241 NA
ATOM     22  C   UNL     1      33.445 -13.454 -23.054  0.00  0.00    +0.059 C 
ATOM     23  C   UNL     1      34.183 -14.431 -22.394  0.00  0.00    +0.021 C 
ATOM     24  C   UNL     1      33.368 -13.523 -24.436  0.00  0.00    +0.102 C 
ATOM     25  C   UNL     1      34.813 -15.432 -23.126  0.00  0.00    +0.070 C 
ATOM     26  C   UNL     1      34.677 -15.411 -24.504  0.00  0.00    +0.113 C 
BRANCH  25  28
ATOM     27  O   UNL     1      35.433 -18.242 -23.980  0.00  0.00    -0.274 OA
ATOM     28  N   UNL     1      35.558 -16.423 -22.492  0.00  0.00    -0.282 N 
ATOM     29  C   UNL     1      35.823 -17.731 -22.934  0.00  0.00    +0.232 C 
ATOM     30  H   UNL     1      35.949 -16.177 -21.623  0.00  0.00    +0.155 HD
BRANCH  29  31
ATOM     31  C   UNL     1      36.682 -18.487 -21.932  0.00  0.00    +0.131 C 
BRANCH  31  34
ATOM     32 CL   UNL     1      33.457 -22.124 -18.502  0.00  0.00    -0.081 Cl
ATOM     33  N   UNL     1      34.548 -19.369 -21.165  0.00  0.00    -0.247 NA
ATOM     34  C   UNL     1      35.894 -19.420 -21.050  0.00  0.00    +0.068 C 
ATOM     35  C   UNL     1      36.567 -20.266 -20.184  0.00  0.00    +0.016 C 
ATOM     36  C   UNL     1      35.810 -21.115 -19.384  0.00  0.00    +0.014 C 
ATOM     37  C   UNL     1      33.845 -20.208 -20.372  0.00  0.00    +0.110 C 
ATOM     38  C   UNL     1      34.423 -21.092 -19.473  0.00  0.00    +0.077 C 
ENDBRANCH  31  34
ENDBRANCH  29  31
ENDBRANCH  25  28
ENDBRANCH   2  22
TORSDOF 8
ENDMDL
