MODEL 1
REMARK VINA RESULT:     -12.2      0.000      0.000
REMARK  Name = 16750097
REMARK  3 active torsions:
REMARK  status: ('A' for Active; 'I' for Inactive)
REMARK    1  A    between atoms: N_3  and  C_10
REMARK    2  A    between atoms: N_3  and  C_23
REMARK    3  A    between atoms: C_23  and  C_24
REMARK                            x       y       z     vdW  Elec       q    Type
REMARK                         _______ _______ _______ _____ _____    ______ ____
ROOT
ATOM      1  O   UNL     1      33.437 -14.935 -26.244  0.00  0.00    -0.209 OA
ATOM      2  N   UNL     1      35.115 -18.640 -22.918  0.00  0.00    -0.305 N 
ATOM      3  N   UNL     1      35.788 -17.625 -21.060  0.00  0.00    -0.305 N 
ATOM      4  N   UNL     1      34.663 -13.158 -22.871  0.00  0.00    -0.275 N 
ATOM      5  N   UNL     1      33.754 -12.998 -25.064  0.00  0.00    -0.302 NA
ATOM      6  N   UNL     1      34.133 -11.103 -23.741  0.00  0.00    -0.320 N 
ATOM      7  C   UNL     1      34.911 -17.302 -23.138  0.00  0.00    +0.061 C 
ATOM      8  C   UNL     1      35.337 -16.690 -21.964  0.00  0.00    +0.061 C 
ATOM      9  C   UNL     1      35.641 -18.783 -21.664  0.00  0.00    +0.208 C 
ATOM     10  C   UNL     1      34.758 -14.551 -22.933  0.00  0.00    +0.064 C 
ATOM     11  C   UNL     1      34.336 -15.205 -24.101  0.00  0.00    +0.110 C 
ATOM     12  C   UNL     1      34.403 -16.601 -24.233  0.00  0.00    +0.030 C 
ATOM     13  C   UNL     1      35.263 -15.291 -21.851  0.00  0.00    +0.031 C 
ATOM     14  C   UNL     1      33.808 -14.372 -25.219  0.00  0.00    +0.208 C 
ATOM     15  C   UNL     1      34.164 -12.459 -23.946  0.00  0.00    +0.248 C 
ATOM     16  H   UNL     1      34.920 -19.369 -23.550  0.00  0.00    +0.150 HD
ATOM     17  H   UNL     1      36.144 -17.461 -20.157  0.00  0.00    +0.150 HD
ATOM     18  H   UNL     1      34.953 -12.679 -22.062  0.00  0.00    +0.156 HD
ATOM     19  H   UNL     1      34.449 -10.727 -22.887  0.00  0.00    +0.146 HD
ATOM     20  H   UNL     1      33.794 -10.506 -24.446  0.00  0.00    +0.146 HD
ENDROOT
BRANCH   9  21
ATOM     21  N   UNL     1      35.928 -20.028 -21.227  0.00  0.00    -0.263 NA
ATOM     22  H   UNL     1      35.707 -20.784 -21.818  0.00  0.00    +0.127 HD
BRANCH  21  23
ATOM     23  C   UNL     1      36.541 -20.330 -19.945  0.00  0.00    +0.098 C 
BRANCH  23  24
ATOM     24  C   UNL     1      35.598 -21.124 -19.084  0.00  0.00    -0.006 C 
ATOM     25  C   UNL     1      36.001 -21.686 -17.863  0.00  0.00    -0.003 C 
ATOM     26  C   UNL     1      35.065 -22.424 -17.098  0.00  0.00    -0.000 C 
ATOM     27  C   UNL     1      34.292 -21.287 -19.546  0.00  0.00    -0.003 C 
ATOM     28  C   UNL     1      37.311 -21.534 -17.382  0.00  0.00    -0.000 C 
ATOM     29  C   UNL     1      33.754 -22.578 -17.579  0.00  0.00    -0.000 C 
ATOM     30  C   UNL     1      33.372 -22.011 -18.795  0.00  0.00    -0.000 C 
ATOM     31  C   UNL     1      35.468 -22.986 -15.876  0.00  0.00    -0.000 C 
ATOM     32  C   UNL     1      37.694 -22.100 -16.165  0.00  0.00    -0.000 C 
ATOM     33  C   UNL     1      36.774 -22.825 -15.414  0.00  0.00    -0.000 C 
ENDBRANCH  23  24
ENDBRANCH  21  23
ENDBRANCH   9  21
TORSDOF 3
ENDMDL
MODEL 2
REMARK VINA RESULT:     -12.0      3.648     11.046
REMARK  Name = 16750097
REMARK  3 active torsions:
REMARK  status: ('A' for Active; 'I' for Inactive)
REMARK    1  A    between atoms: N_3  and  C_10
REMARK    2  A    between atoms: N_3  and  C_23
REMARK    3  A    between atoms: C_23  and  C_24
REMARK                            x       y       z     vdW  Elec       q    Type
REMARK                         _______ _______ _______ _____ _____    ______ ____
ROOT
ATOM      1  O   UNL     1      34.917 -18.807 -24.762  0.00  0.00    -0.209 OA
ATOM      2  N   UNL     1      34.138 -13.614 -24.578  0.00  0.00    -0.305 N 
ATOM      3  N   UNL     1      34.509 -12.950 -22.491  0.00  0.00    -0.305 N 
ATOM      4  N   UNL     1      35.574 -17.553 -21.016  0.00  0.00    -0.275 N 
ATOM      5  N   UNL     1      35.490 -19.322 -22.605  0.00  0.00    -0.302 NA
ATOM      6  N   UNL     1      36.060 -19.697 -20.364  0.00  0.00    -0.320 N 
ATOM      7  C   UNL     1      34.475 -14.750 -23.887  0.00  0.00    +0.061 C 
ATOM      8  C   UNL     1      34.703 -14.309 -22.587  0.00  0.00    +0.061 C 
ATOM      9  C   UNL     1      34.172 -12.566 -23.702  0.00  0.00    +0.208 C 
ATOM     10  C   UNL     1      35.206 -16.590 -21.960  0.00  0.00    +0.064 C 
ATOM     11  C   UNL     1      34.969 -16.996 -23.282  0.00  0.00    +0.110 C 
ATOM     12  C   UNL     1      34.596 -16.084 -24.281  0.00  0.00    +0.030 C 
ATOM     13  C   UNL     1      35.075 -15.238 -21.601  0.00  0.00    +0.031 C 
ATOM     14  C   UNL     1      35.122 -18.443 -23.608  0.00  0.00    +0.208 C 
ATOM     15  C   UNL     1      35.695 -18.869 -21.396  0.00  0.00    +0.248 C 
ATOM     16  H   UNL     1      33.912 -13.562 -25.534  0.00  0.00    +0.150 HD
ATOM     17  H   UNL     1      34.603 -12.387 -21.688  0.00  0.00    +0.150 HD
ATOM     18  H   UNL     1      35.745 -17.290 -20.083  0.00  0.00    +0.156 HD
ATOM     19  H   UNL     1      36.206 -19.326 -19.464  0.00  0.00    +0.146 HD
ATOM     20  H   UNL     1      36.174 -20.662 -20.524  0.00  0.00    +0.146 HD
ENDROOT
BRANCH   9  21
ATOM     21  N   UNL     1      33.870 -11.333 -24.165  0.00  0.00    -0.263 NA
ATOM     22  H   UNL     1      34.174 -11.097 -25.071  0.00  0.00    +0.127 HD
BRANCH  21  23
ATOM     23  C   UNL     1      33.128 -10.332 -23.419  0.00  0.00    +0.098 C 
BRANCH  23  24
ATOM     24  C   UNL     1      33.796  -8.990 -23.529  0.00  0.00    -0.006 C 
ATOM     25  C   UNL     1      33.142  -7.801 -23.171  0.00  0.00    -0.003 C 
ATOM     26  C   UNL     1      33.826  -6.568 -23.298  0.00  0.00    -0.000 C 
ATOM     27  C   UNL     1      35.107  -8.964 -24.007  0.00  0.00    -0.003 C 
ATOM     28  C   UNL     1      31.822  -7.807 -22.689  0.00  0.00    -0.000 C 
ATOM     29  C   UNL     1      35.145  -6.562 -23.781  0.00  0.00    -0.000 C 
ATOM     30  C   UNL     1      35.780  -7.753 -24.132  0.00  0.00    -0.000 C 
ATOM     31  C   UNL     1      33.171  -5.379 -22.940  0.00  0.00    -0.000 C 
ATOM     32  C   UNL     1      31.187  -6.615 -22.338  0.00  0.00    -0.000 C 
ATOM     33  C   UNL     1      31.861  -5.403 -22.462  0.00  0.00    -0.000 C 
ENDBRANCH  23  24
ENDBRANCH  21  23
ENDBRANCH   9  21
TORSDOF 3
ENDMDL
MODEL 3
REMARK VINA RESULT:     -11.9      1.298      2.701
REMARK  Name = 16750097
REMARK  3 active torsions:
REMARK  status: ('A' for Active; 'I' for Inactive)
REMARK    1  A    between atoms: N_3  and  C_10
REMARK    2  A    between atoms: N_3  and  C_23
REMARK    3  A    between atoms: C_23  and  C_24
REMARK                            x       y       z     vdW  Elec       q    Type
REMARK                         _______ _______ _______ _____ _____    ______ ____
ROOT
ATOM      1  O   UNL     1      34.688 -12.749 -22.443  0.00  0.00    -0.209 OA
ATOM      2  N   UNL     1      35.729 -17.655 -20.876  0.00  0.00    -0.305 N 
ATOM      3  N   UNL     1      35.229 -19.020 -22.556  0.00  0.00    -0.305 N 
ATOM      4  N   UNL     1      33.804 -15.257 -25.437  0.00  0.00    -0.275 N 
ATOM      5  N   UNL     1      33.917 -13.040 -24.579  0.00  0.00    -0.302 NA
ATOM      6  N   UNL     1      33.150 -13.491 -26.747  0.00  0.00    -0.320 N 
ATOM      7  C   UNL     1      35.276 -16.843 -21.885  0.00  0.00    +0.061 C 
ATOM      8  C   UNL     1      34.972 -17.719 -22.922  0.00  0.00    +0.061 C 
ATOM      9  C   UNL     1      35.681 -18.945 -21.324  0.00  0.00    +0.208 C 
ATOM     10  C   UNL     1      34.297 -15.817 -24.255  0.00  0.00    +0.064 C 
ATOM     11  C   UNL     1      34.617 -14.966 -23.187  0.00  0.00    +0.110 C 
ATOM     12  C   UNL     1      35.115 -15.459 -21.972  0.00  0.00    +0.030 C 
ATOM     13  C   UNL     1      34.473 -17.205 -24.131  0.00  0.00    +0.031 C 
ATOM     14  C   UNL     1      34.410 -13.501 -23.372  0.00  0.00    +0.208 C 
ATOM     15  C   UNL     1      33.642 -13.894 -25.531  0.00  0.00    +0.248 C 
ATOM     16  H   UNL     1      36.033 -17.361 -19.987  0.00  0.00    +0.150 HD
ATOM     17  H   UNL     1      35.101 -19.831 -23.099  0.00  0.00    +0.150 HD
ATOM     18  H   UNL     1      33.573 -15.835 -26.200  0.00  0.00    +0.156 HD
ATOM     19  H   UNL     1      32.952 -14.158 -27.443  0.00  0.00    +0.146 HD
ATOM     20  H   UNL     1      32.994 -12.535 -26.922  0.00  0.00    +0.146 HD
ENDROOT
BRANCH   9  21
ATOM     21  N   UNL     1      36.082 -19.929 -20.490  0.00  0.00    -0.263 NA
ATOM     22  H   UNL     1      37.017 -19.914 -20.180  0.00  0.00    +0.127 HD
BRANCH  21  23
ATOM     23  C   UNL     1      35.231 -21.006 -20.017  0.00  0.00    +0.098 C 
BRANCH  23  24
ATOM     24  C   UNL     1      35.670 -21.466 -18.655  0.00  0.00    -0.006 C 
ATOM     25  C   UNL     1      34.787 -22.089 -17.759  0.00  0.00    -0.003 C 
ATOM     26  C   UNL     1      35.262 -22.499 -16.490  0.00  0.00    -0.000 C 
ATOM     27  C   UNL     1      37.003 -21.249 -18.304  0.00  0.00    -0.003 C 
ATOM     28  C   UNL     1      33.442 -22.315 -18.094  0.00  0.00    -0.000 C 
ATOM     29  C   UNL     1      36.607 -22.272 -16.154  0.00  0.00    -0.000 C 
ATOM     30  C   UNL     1      37.471 -21.651 -17.057  0.00  0.00    -0.000 C 
ATOM     31  C   UNL     1      34.379 -23.122 -15.594  0.00  0.00    -0.000 C 
ATOM     32  C   UNL     1      32.578 -22.936 -17.191  0.00  0.00    -0.000 C 
ATOM     33  C   UNL     1      33.046 -23.339 -15.943  0.00  0.00    -0.000 C 
ENDBRANCH  23  24
ENDBRANCH  21  23
ENDBRANCH   9  21
TORSDOF 3
ENDMDL
MODEL 4
REMARK VINA RESULT:     -11.8      0.686      1.936
REMARK  Name = 16750097
REMARK  3 active torsions:
REMARK  status: ('A' for Active; 'I' for Inactive)
REMARK    1  A    between atoms: N_3  and  C_10
REMARK    2  A    between atoms: N_3  and  C_23
REMARK    3  A    between atoms: C_23  and  C_24
REMARK                            x       y       z     vdW  Elec       q    Type
REMARK                         _______ _______ _______ _____ _____    ______ ____
ROOT
ATOM      1  O   UNL     1      33.628 -14.961 -26.189  0.00  0.00    -0.209 OA
ATOM      2  N   UNL     1      34.996 -18.682 -22.741  0.00  0.00    -0.305 N 
ATOM      3  N   UNL     1      35.608 -17.667 -20.861  0.00  0.00    -0.305 N 
ATOM      4  N   UNL     1      34.743 -13.186 -22.776  0.00  0.00    -0.275 N 
ATOM      5  N   UNL     1      33.954 -13.022 -25.016  0.00  0.00    -0.302 NA
ATOM      6  N   UNL     1      34.334 -11.125 -23.694  0.00  0.00    -0.320 N 
ATOM      7  C   UNL     1      34.852 -17.340 -22.985  0.00  0.00    +0.061 C 
ATOM      8  C   UNL     1      35.239 -16.728 -21.797  0.00  0.00    +0.061 C 
ATOM      9  C   UNL     1      35.450 -18.827 -21.460  0.00  0.00    +0.208 C 
ATOM     10  C   UNL     1      34.789 -14.583 -22.819  0.00  0.00    +0.064 C 
ATOM     11  C   UNL     1      34.405 -15.236 -23.999  0.00  0.00    +0.110 C 
ATOM     12  C   UNL     1      34.427 -16.634 -24.113  0.00  0.00    +0.030 C 
ATOM     13  C   UNL     1      35.210 -15.327 -21.704  0.00  0.00    +0.031 C 
ATOM     14  C   UNL     1      33.967 -14.398 -25.153  0.00  0.00    +0.208 C 
ATOM     15  C   UNL     1      34.326 -12.484 -23.883  0.00  0.00    +0.248 C 
ATOM     16  H   UNL     1      34.806 -19.411 -23.374  0.00  0.00    +0.150 HD
ATOM     17  H   UNL     1      35.922 -17.506 -19.943  0.00  0.00    +0.150 HD
ATOM     18  H   UNL     1      35.007 -12.708 -21.958  0.00  0.00    +0.156 HD
ATOM     19  H   UNL     1      34.620 -10.750 -22.830  0.00  0.00    +0.146 HD
ATOM     20  H   UNL     1      34.055 -10.525 -24.423  0.00  0.00    +0.146 HD
ENDROOT
BRANCH   9  21
ATOM     21  N   UNL     1      35.668 -20.076 -20.995  0.00  0.00    -0.263 NA
ATOM     22  H   UNL     1      36.537 -20.494 -21.193  0.00  0.00    +0.127 HD
BRANCH  21  23
ATOM     23  C   UNL     1      34.710 -20.846 -20.222  0.00  0.00    +0.098 C 
BRANCH  23  24
ATOM     24  C   UNL     1      35.331 -21.326 -18.939  0.00  0.00    -0.006 C 
ATOM     25  C   UNL     1      34.583 -21.988 -17.952  0.00  0.00    -0.003 C 
ATOM     26  C   UNL     1      35.227 -22.415 -16.766  0.00  0.00    -0.000 C 
ATOM     27  C   UNL     1      36.694 -21.088 -18.760  0.00  0.00    -0.003 C 
ATOM     28  C   UNL     1      33.210 -22.235 -18.115  0.00  0.00    -0.000 C 
ATOM     29  C   UNL     1      36.600 -22.167 -16.603  0.00  0.00    -0.000 C 
ATOM     30  C   UNL     1      37.327 -21.508 -17.595  0.00  0.00    -0.000 C 
ATOM     31  C   UNL     1      34.480 -23.077 -15.779  0.00  0.00    -0.000 C 
ATOM     32  C   UNL     1      32.483 -22.894 -17.123  0.00  0.00    -0.000 C 
ATOM     33  C   UNL     1      33.117 -23.315 -15.957  0.00  0.00    -0.000 C 
ENDBRANCH  23  24
ENDBRANCH  21  23
ENDBRANCH   9  21
TORSDOF 3
ENDMDL
MODEL 5
REMARK VINA RESULT:     -11.7      3.490      6.001
REMARK  Name = 16750097
REMARK  3 active torsions:
REMARK  status: ('A' for Active; 'I' for Inactive)
REMARK    1  A    between atoms: N_3  and  C_10
REMARK    2  A    between atoms: N_3  and  C_23
REMARK    3  A    between atoms: C_23  and  C_24
REMARK                            x       y       z     vdW  Elec       q    Type
REMARK                         _______ _______ _______ _____ _____    ______ ____
ROOT
ATOM      1  O   UNL     1      38.077 -18.667 -21.513  0.00  0.00    -0.209 OA
ATOM      2  N   UNL     1      35.331 -21.843 -18.354  0.00  0.00    -0.305 N 
ATOM      3  N   UNL     1      33.214 -21.795 -19.024  0.00  0.00    -0.305 N 
ATOM      4  N   UNL     1      34.245 -18.619 -22.677  0.00  0.00    -0.275 N 
ATOM      5  N   UNL     1      36.488 -17.873 -22.957  0.00  0.00    -0.302 NA
ATOM      6  N   UNL     1      34.757 -17.146 -24.359  0.00  0.00    -0.320 N 
ATOM      7  C   UNL     1      35.305 -20.987 -19.425  0.00  0.00    +0.061 C 
ATOM      8  C   UNL     1      33.973 -20.975 -19.826  0.00  0.00    +0.061 C 
ATOM      9  C   UNL     1      34.058 -22.300 -18.153  0.00  0.00    +0.208 C 
ATOM     10  C   UNL     1      34.573 -19.424 -21.582  0.00  0.00    +0.064 C 
ATOM     11  C   UNL     1      35.907 -19.463 -21.148  0.00  0.00    +0.110 C 
ATOM     12  C   UNL     1      36.308 -20.248 -20.056  0.00  0.00    +0.030 C 
ATOM     13  C   UNL     1      33.592 -20.183 -20.922  0.00  0.00    +0.031 C 
ATOM     14  C   UNL     1      36.908 -18.638 -21.884  0.00  0.00    +0.208 C 
ATOM     15  C   UNL     1      35.227 -17.887 -23.304  0.00  0.00    +0.248 C 
ATOM     16  H   UNL     1      36.124 -22.086 -17.823  0.00  0.00    +0.150 HD
ATOM     17  H   UNL     1      32.246 -21.967 -19.089  0.00  0.00    +0.150 HD
ATOM     18  H   UNL     1      33.316 -18.577 -22.998  0.00  0.00    +0.156 HD
ATOM     19  H   UNL     1      33.801 -17.178 -24.595  0.00  0.00    +0.146 HD
ATOM     20  H   UNL     1      35.374 -16.583 -24.879  0.00  0.00    +0.146 HD
ENDROOT
BRANCH   9  21
ATOM     21  N   UNL     1      33.840 -23.164 -17.138  0.00  0.00    -0.263 NA
ATOM     22  H   UNL     1      33.679 -24.109 -17.368  0.00  0.00    +0.127 HD
BRANCH  21  23
ATOM     23  C   UNL     1      33.827 -22.799 -15.733  0.00  0.00    +0.098 C 
BRANCH  23  24
ATOM     24  C   UNL     1      32.764 -23.567 -14.998  0.00  0.00    -0.006 C 
ATOM     25  C   UNL     1      31.402 -23.444 -15.317  0.00  0.00    -0.003 C 
ATOM     26  C   UNL     1      30.449 -24.195 -14.587  0.00  0.00    -0.000 C 
ATOM     27  C   UNL     1      33.181 -24.417 -13.973  0.00  0.00    -0.003 C 
ATOM     28  C   UNL     1      30.964 -22.594 -16.345  0.00  0.00    -0.000 C 
ATOM     29  C   UNL     1      30.887 -25.045 -13.558  0.00  0.00    -0.000 C 
ATOM     30  C   UNL     1      32.245 -25.155 -13.255  0.00  0.00    -0.000 C 
ATOM     31  C   UNL     1      29.088 -24.072 -14.906  0.00  0.00    -0.000 C 
ATOM     32  C   UNL     1      29.606 -22.484 -16.649  0.00  0.00    -0.000 C 
ATOM     33  C   UNL     1      28.670 -23.223 -15.931  0.00  0.00    -0.000 C 
ENDBRANCH  23  24
ENDBRANCH  21  23
ENDBRANCH   9  21
TORSDOF 3
ENDMDL
MODEL 6
REMARK VINA RESULT:     -11.7      3.489     10.863
REMARK  Name = 16750097
REMARK  3 active torsions:
REMARK  status: ('A' for Active; 'I' for Inactive)
REMARK    1  A    between atoms: N_3  and  C_10
REMARK    2  A    between atoms: N_3  and  C_23
REMARK    3  A    between atoms: C_23  and  C_24
REMARK                            x       y       z     vdW  Elec       q    Type
REMARK                         _______ _______ _______ _____ _____    ______ ____
ROOT
ATOM      1  O   UNL     1      34.866 -19.039 -24.695  0.00  0.00    -0.209 OA
ATOM      2  N   UNL     1      34.232 -13.826 -24.852  0.00  0.00    -0.305 N 
ATOM      3  N   UNL     1      34.651 -13.033 -22.819  0.00  0.00    -0.305 N 
ATOM      4  N   UNL     1      35.610 -17.555 -21.050  0.00  0.00    -0.275 N 
ATOM      5  N   UNL     1      35.455 -19.424 -22.515  0.00  0.00    -0.302 NA
ATOM      6  N   UNL     1      36.046 -19.664 -20.261  0.00  0.00    -0.320 N 
ATOM      7  C   UNL     1      34.548 -14.921 -24.090  0.00  0.00    +0.061 C 
ATOM      8  C   UNL     1      34.806 -14.401 -22.826  0.00  0.00    +0.061 C 
ATOM      9  C   UNL     1      34.307 -12.722 -24.049  0.00  0.00    +0.208 C 
ATOM     10  C   UNL     1      35.255 -16.647 -22.052  0.00  0.00    +0.064 C 
ATOM     11  C   UNL     1      34.989 -17.135 -23.341  0.00  0.00    +0.110 C 
ATOM     12  C   UNL     1      34.627 -16.282 -24.394  0.00  0.00    +0.030 C 
ATOM     13  C   UNL     1      35.166 -15.271 -21.784  0.00  0.00    +0.031 C 
ATOM     14  C   UNL     1      35.097 -18.604 -23.571  0.00  0.00    +0.208 C 
ATOM     15  C   UNL     1      35.689 -18.897 -21.342  0.00  0.00    +0.248 C 
ATOM     16  H   UNL     1      33.994 -13.832 -25.807  0.00  0.00    +0.150 HD
ATOM     17  H   UNL     1      34.772 -12.421 -22.058  0.00  0.00    +0.150 HD
ATOM     18  H   UNL     1      35.802 -17.235 -20.139  0.00  0.00    +0.156 HD
ATOM     19  H   UNL     1      36.216 -19.238 -19.390  0.00  0.00    +0.146 HD
ATOM     20  H   UNL     1      36.132 -20.640 -20.357  0.00  0.00    +0.146 HD
ENDROOT
BRANCH   9  21
ATOM     21  N   UNL     1      34.033 -11.515 -24.590  0.00  0.00    -0.263 NA
ATOM     22  H   UNL     1      33.317 -11.467 -25.265  0.00  0.00    +0.127 HD
BRANCH  21  23
ATOM     23  C   UNL     1      34.720 -10.283 -24.246  0.00  0.00    +0.098 C 
BRANCH  23  24
ATOM     24  C   UNL     1      33.765  -9.302 -23.627  0.00  0.00    -0.006 C 
ATOM     25  C   UNL     1      33.936  -7.914 -23.753  0.00  0.00    -0.003 C 
ATOM     26  C   UNL     1      33.001  -7.042 -23.145  0.00  0.00    -0.000 C 
ATOM     27  C   UNL     1      32.686  -9.823 -22.911  0.00  0.00    -0.003 C 
ATOM     28  C   UNL     1      35.016  -7.371 -24.468  0.00  0.00    -0.000 C 
ATOM     29  C   UNL     1      31.922  -7.585 -22.429  0.00  0.00    -0.000 C 
ATOM     30  C   UNL     1      31.766  -8.967 -22.314  0.00  0.00    -0.000 C 
ATOM     31  C   UNL     1      33.173  -5.655 -23.272  0.00  0.00    -0.000 C 
ATOM     32  C   UNL     1      35.172  -5.989 -24.583  0.00  0.00    -0.000 C 
ATOM     33  C   UNL     1      34.251  -5.133 -23.986  0.00  0.00    -0.000 C 
ENDBRANCH  23  24
ENDBRANCH  21  23
ENDBRANCH   9  21
TORSDOF 3
ENDMDL
MODEL 7
REMARK VINA RESULT:     -11.7      4.464     11.431
REMARK  Name = 16750097
REMARK  3 active torsions:
REMARK  status: ('A' for Active; 'I' for Inactive)
REMARK    1  A    between atoms: N_3  and  C_10
REMARK    2  A    between atoms: N_3  and  C_23
REMARK    3  A    between atoms: C_23  and  C_24
REMARK                            x       y       z     vdW  Elec       q    Type
REMARK                         _______ _______ _______ _____ _____    ______ ____
ROOT
ATOM      1  O   UNL     1      35.792 -17.139 -20.885  0.00  0.00    -0.209 OA
ATOM      2  N   UNL     1      34.451 -12.560 -23.085  0.00  0.00    -0.305 N 
ATOM      3  N   UNL     1      33.862 -12.968 -25.188  0.00  0.00    -0.305 N 
ATOM      4  N   UNL     1      34.720 -17.816 -24.684  0.00  0.00    -0.275 N 
ATOM      5  N   UNL     1      35.486 -18.640 -22.587  0.00  0.00    -0.302 NA
ATOM      6  N   UNL     1      35.128 -20.058 -24.418  0.00  0.00    -0.320 N 
ATOM      7  C   UNL     1      34.597 -13.913 -23.250  0.00  0.00    +0.061 C 
ATOM      8  C   UNL     1      34.222 -14.144 -24.570  0.00  0.00    +0.061 C 
ATOM      9  C   UNL     1      34.011 -12.039 -24.270  0.00  0.00    +0.208 C 
ATOM     10  C   UNL     1      34.669 -16.496 -24.229  0.00  0.00    +0.064 C 
ATOM     11  C   UNL     1      35.038 -16.224 -22.902  0.00  0.00    +0.110 C 
ATOM     12  C   UNL     1      35.011 -14.923 -22.379  0.00  0.00    +0.030 C 
ATOM     13  C   UNL     1      34.256 -15.454 -25.076  0.00  0.00    +0.031 C 
ATOM     14  C   UNL     1      35.468 -17.367 -22.047  0.00  0.00    +0.208 C 
ATOM     15  C   UNL     1      35.128 -18.817 -23.832  0.00  0.00    +0.248 C 
ATOM     16  H   UNL     1      34.631 -12.052 -22.262  0.00  0.00    +0.150 HD
ATOM     17  H   UNL     1      33.559 -12.849 -26.117  0.00  0.00    +0.150 HD
ATOM     18  H   UNL     1      34.465 -18.030 -25.610  0.00  0.00    +0.156 HD
ATOM     19  H   UNL     1      34.853 -20.158 -25.358  0.00  0.00    +0.146 HD
ATOM     20  H   UNL     1      35.404 -20.847 -23.898  0.00  0.00    +0.146 HD
ENDROOT
BRANCH   9  21
ATOM     21  N   UNL     1      33.796 -10.708 -24.345  0.00  0.00    -0.263 NA
ATOM     22  H   UNL     1      33.896 -10.277 -25.225  0.00  0.00    +0.127 HD
BRANCH  21  23
ATOM     23  C   UNL     1      33.426  -9.869 -23.220  0.00  0.00    +0.098 C 
BRANCH  23  24
ATOM     24  C   UNL     1      33.873  -8.452 -23.449  0.00  0.00    -0.006 C 
ATOM     25  C   UNL     1      33.069  -7.353 -23.108  0.00  0.00    -0.003 C 
ATOM     26  C   UNL     1      33.548  -6.042 -23.350  0.00  0.00    -0.000 C 
ATOM     27  C   UNL     1      35.132  -8.262 -24.021  0.00  0.00    -0.003 C 
ATOM     28  C   UNL     1      31.799  -7.524 -22.533  0.00  0.00    -0.000 C 
ATOM     29  C   UNL     1      34.817  -5.871 -23.926  0.00  0.00    -0.000 C 
ATOM     30  C   UNL     1      35.603  -6.975 -24.258  0.00  0.00    -0.000 C 
ATOM     31  C   UNL     1      32.743  -4.944 -23.009  0.00  0.00    -0.000 C 
ATOM     32  C   UNL     1      31.013  -6.420 -22.201  0.00  0.00    -0.000 C 
ATOM     33  C   UNL     1      31.485  -5.132 -22.438  0.00  0.00    -0.000 C 
ENDBRANCH  23  24
ENDBRANCH  21  23
ENDBRANCH   9  21
TORSDOF 3
ENDMDL
MODEL 8
REMARK VINA RESULT:     -11.6      3.891      9.939
REMARK  Name = 16750097
REMARK  3 active torsions:
REMARK  status: ('A' for Active; 'I' for Inactive)
REMARK    1  A    between atoms: N_3  and  C_10
REMARK    2  A    between atoms: N_3  and  C_23
REMARK    3  A    between atoms: C_23  and  C_24
REMARK                            x       y       z     vdW  Elec       q    Type
REMARK                         _______ _______ _______ _____ _____    ______ ____
ROOT
ATOM      1  O   UNL     1      34.429 -18.068 -25.129  0.00  0.00    -0.209 OA
ATOM      2  N   UNL     1      34.110 -12.827 -24.930  0.00  0.00    -0.305 N 
ATOM      3  N   UNL     1      34.641 -12.197 -22.867  0.00  0.00    -0.305 N 
ATOM      4  N   UNL     1      35.377 -16.874 -21.426  0.00  0.00    -0.275 N 
ATOM      5  N   UNL     1      35.062 -18.629 -23.001  0.00  0.00    -0.302 NA
ATOM      6  N   UNL     1      35.709 -19.052 -20.789  0.00  0.00    -0.320 N 
ATOM      7  C   UNL     1      34.382 -13.987 -24.251  0.00  0.00    +0.061 C 
ATOM      8  C   UNL     1      34.711 -13.567 -22.967  0.00  0.00    +0.061 C 
ATOM      9  C   UNL     1      34.278 -11.785 -24.061  0.00  0.00    +0.208 C 
ATOM     10  C   UNL     1      35.047 -15.883 -22.355  0.00  0.00    +0.064 C 
ATOM     11  C   UNL     1      34.710 -16.267 -23.661  0.00  0.00    +0.110 C 
ATOM     12  C   UNL     1      34.368 -15.327 -24.645  0.00  0.00    +0.030 C 
ATOM     13  C   UNL     1      35.051 -14.524 -21.996  0.00  0.00    +0.031 C 
ATOM     14  C   UNL     1      34.722 -17.722 -23.988  0.00  0.00    +0.208 C 
ATOM     15  C   UNL     1      35.365 -18.196 -21.805  0.00  0.00    +0.248 C 
ATOM     16  H   UNL     1      33.841 -12.756 -25.874  0.00  0.00    +0.150 HD
ATOM     17  H   UNL     1      34.822 -11.644 -22.073  0.00  0.00    +0.150 HD
ATOM     18  H   UNL     1      35.617 -16.627 -20.504  0.00  0.00    +0.156 HD
ATOM     19  H   UNL     1      35.932 -18.695 -19.899  0.00  0.00    +0.146 HD
ATOM     20  H   UNL     1      35.732 -20.023 -20.950  0.00  0.00    +0.146 HD
ENDROOT
BRANCH   9  21
ATOM     21  N   UNL     1      34.061 -10.531 -24.514  0.00  0.00    -0.263 NA
ATOM     22  H   UNL     1      34.775 -10.104 -25.040  0.00  0.00    +0.127 HD
BRANCH  21  23
ATOM     23  C   UNL     1      32.846  -9.770 -24.280  0.00  0.00    +0.098 C 
BRANCH  23  24
ATOM     24  C   UNL     1      32.998  -8.894 -23.068  0.00  0.00    -0.006 C 
ATOM     25  C   UNL     1      32.427  -9.229 -21.831  0.00  0.00    -0.003 C 
ATOM     26  C   UNL     1      32.606  -8.362 -20.726  0.00  0.00    -0.000 C 
ATOM     27  C   UNL     1      33.736  -7.719 -23.215  0.00  0.00    -0.003 C 
ATOM     28  C   UNL     1      31.680 -10.407 -21.663  0.00  0.00    -0.000 C 
ATOM     29  C   UNL     1      33.352  -7.183 -20.894  0.00  0.00    -0.000 C 
ATOM     30  C   UNL     1      33.914  -6.866 -22.131  0.00  0.00    -0.000 C 
ATOM     31  C   UNL     1      32.034  -8.697 -19.489  0.00  0.00    -0.000 C 
ATOM     32  C   UNL     1      31.118 -10.725 -20.426  0.00  0.00    -0.000 C 
ATOM     33  C   UNL     1      31.296  -9.871 -19.341  0.00  0.00    -0.000 C 
ENDBRANCH  23  24
ENDBRANCH  21  23
ENDBRANCH   9  21
TORSDOF 3
ENDMDL
MODEL 9
REMARK VINA RESULT:     -11.6      4.084      9.598
REMARK  Name = 16750097
REMARK  3 active torsions:
REMARK  status: ('A' for Active; 'I' for Inactive)
REMARK    1  A    between atoms: N_3  and  C_10
REMARK    2  A    between atoms: N_3  and  C_23
REMARK    3  A    between atoms: C_23  and  C_24
REMARK                            x       y       z     vdW  Elec       q    Type
REMARK                         _______ _______ _______ _____ _____    ______ ____
ROOT
ATOM      1  O   UNL     1      30.230 -22.856 -16.640  0.00  0.00    -0.209 OA
ATOM      2  N   UNL     1      34.040 -20.920 -19.696  0.00  0.00    -0.305 N 
ATOM      3  N   UNL     1      35.987 -21.494 -18.793  0.00  0.00    -0.305 N 
ATOM      4  N   UNL     1      33.768 -23.863 -15.056  0.00  0.00    -0.275 N 
ATOM      5  N   UNL     1      31.390 -23.913 -14.972  0.00  0.00    -0.302 NA
ATOM      6  N   UNL     1      32.709 -24.950 -13.337  0.00  0.00    -0.320 N 
ATOM      7  C   UNL     1      33.724 -21.634 -18.569  0.00  0.00    +0.061 C 
ATOM      8  C   UNL     1      34.956 -21.982 -18.023  0.00  0.00    +0.061 C 
ATOM      9  C   UNL     1      35.403 -20.863 -19.787  0.00  0.00    +0.208 C 
ATOM     10  C   UNL     1      33.783 -23.114 -16.236  0.00  0.00    +0.064 C 
ATOM     11  C   UNL     1      32.560 -22.745 -16.818  0.00  0.00    +0.110 C 
ATOM     12  C   UNL     1      32.500 -21.994 -18.001  0.00  0.00    +0.030 C 
ATOM     13  C   UNL     1      34.995 -22.735 -16.837  0.00  0.00    +0.031 C 
ATOM     14  C   UNL     1      31.304 -23.174 -16.138  0.00  0.00    +0.208 C 
ATOM     15  C   UNL     1      32.566 -24.220 -14.490  0.00  0.00    +0.248 C 
ATOM     16  H   UNL     1      33.401 -20.519 -20.328  0.00  0.00    +0.150 HD
ATOM     17  H   UNL     1      36.953 -21.595 -18.633  0.00  0.00    +0.150 HD
ATOM     18  H   UNL     1      34.614 -24.133 -14.631  0.00  0.00    +0.156 HD
ATOM     19  H   UNL     1      33.608 -25.165 -12.999  0.00  0.00    +0.146 HD
ATOM     20  H   UNL     1      31.912 -25.258 -12.848  0.00  0.00    +0.146 HD
ENDROOT
BRANCH   9  21
ATOM     21  N   UNL     1      35.949 -20.201 -20.829  0.00  0.00    -0.263 NA
ATOM     22  H   UNL     1      36.369 -20.735 -21.542  0.00  0.00    +0.127 HD
BRANCH  21  23
ATOM     23  C   UNL     1      35.959 -18.756 -20.973  0.00  0.00    +0.098 C 
BRANCH  23  24
ATOM     24  C   UNL     1      35.456 -18.358 -22.333  0.00  0.00    -0.006 C 
ATOM     25  C   UNL     1      35.146 -17.026 -22.652  0.00  0.00    -0.003 C 
ATOM     26  C   UNL     1      34.676 -16.716 -23.951  0.00  0.00    -0.000 C 
ATOM     27  C   UNL     1      35.304 -19.370 -23.281  0.00  0.00    -0.003 C 
ATOM     28  C   UNL     1      35.291 -15.994 -21.711  0.00  0.00    -0.000 C 
ATOM     29  C   UNL     1      34.530 -17.748 -24.892  0.00  0.00    -0.000 C 
ATOM     30  C   UNL     1      34.844 -19.066 -24.558  0.00  0.00    -0.000 C 
ATOM     31  C   UNL     1      34.367 -15.385 -24.270  0.00  0.00    -0.000 C 
ATOM     32  C   UNL     1      34.978 -14.676 -22.045  0.00  0.00    -0.000 C 
ATOM     33  C   UNL     1      34.517 -14.372 -23.322  0.00  0.00    -0.000 C 
ENDBRANCH  23  24
ENDBRANCH  21  23
ENDBRANCH   9  21
TORSDOF 3
ENDMDL
