MODEL 1
REMARK VINA RESULT:     -12.6      0.000      0.000
REMARK  Name = 46937081
REMARK  6 active torsions:
REMARK  status: ('A' for Active; 'I' for Inactive)
REMARK    1  A    between atoms: N_1  and  C_10
REMARK    2  A    between atoms: C_4  and  C_16
REMARK    3  A    between atoms: C_9  and  C_31
REMARK    4  A    between atoms: C_16  and  C_17
REMARK    5  A    between atoms: C_18  and  N_23
REMARK    6  A    between atoms: C_31  and  N_32
REMARK                            x       y       z     vdW  Elec       q    Type
REMARK                         _______ _______ _______ _____ _____    ______ ____
ROOT
ATOM      1  N   UNL     1      34.195 -23.208 -15.489  0.00  0.00    -0.267 N 
ATOM      2  N   UNL     1      35.270 -23.467 -13.346  0.00  0.00    -0.341 NA
ATOM      3  N   UNL     1      37.637 -22.898 -13.396  0.00  0.00    -0.188 NA
ATOM      4  C   UNL     1      34.568 -22.817 -16.748  0.00  0.00    +0.035 C 
ATOM      5  C   UNL     1      35.279 -23.153 -14.653  0.00  0.00    +0.199 C 
ATOM      6  C   UNL     1      36.369 -22.717 -15.395  0.00  0.00    +0.066 C 
ATOM      7  C   UNL     1      35.911 -22.507 -16.721  0.00  0.00    +0.016 C 
ATOM      8  C   UNL     1      37.580 -22.595 -14.714  0.00  0.00    +0.114 C 
ATOM      9  C   UNL     1      36.495 -23.309 -12.802  0.00  0.00    +0.042 C 
ENDROOT
BRANCH   1  10
ATOM     10  C   UNL     1      32.799 -23.637 -15.077  0.00  0.00    +0.079 C 
ATOM     11  C   UNL     1      32.831 -24.716 -13.980  0.00  0.00    +0.020 C 
ATOM     12  C   UNL     1      31.935 -22.439 -14.646  0.00  0.00    +0.020 C 
ATOM     13  C   UNL     1      31.421 -25.148 -13.580  0.00  0.00    +0.002 C 
ATOM     14  C   UNL     1      30.529 -22.880 -14.243  0.00  0.00    +0.002 C 
ATOM     15  C   UNL     1      30.564 -23.957 -13.161  0.00  0.00    +0.000 C 
ENDBRANCH   1  10
BRANCH   4  16
ATOM     16  C   UNL     1      33.587 -22.771 -17.904  0.00  0.00    +0.068 C 
BRANCH  16  17
ATOM     17  C   UNL     1      33.900 -21.728 -18.922  0.00  0.00    -0.016 C 
ATOM     18  C   UNL     1      34.487 -19.779 -20.830  0.00  0.00    +0.048 C 
ATOM     19  C   UNL     1      35.223 -21.501 -19.304  0.00  0.00    -0.003 C 
ATOM     20  C   UNL     1      32.872 -20.982 -19.495  0.00  0.00    -0.003 C 
ATOM     21  C   UNL     1      35.516 -20.527 -20.257  0.00  0.00    +0.014 C 
ATOM     22  C   UNL     1      33.164 -20.006 -20.448  0.00  0.00    +0.014 C 
BRANCH  18  23
ATOM     23  N   UNL     1      34.781 -18.801 -21.786  0.00  0.00    -0.312 N 
ATOM     24  N   UNL     1      35.628 -16.882 -23.726  0.00  0.00    +0.388 N 
ATOM     25  C   UNL     1      34.826 -19.163 -23.207  0.00  0.00    +0.068 C 
ATOM     26  C   UNL     1      35.646 -17.685 -21.388  0.00  0.00    +0.068 C 
ATOM     27  C   UNL     1      35.446 -16.490 -22.323  0.00  0.00    -0.056 C 
ATOM     28  C   UNL     1      34.653 -17.920 -24.084  0.00  0.00    -0.056 C 
ATOM     29  C   UNL     1      35.488 -15.723 -24.605  0.00  0.00    -0.101 C 
ATOM     30  H   UNL     1      36.568 -17.259 -23.844  0.00  0.00    -0.080 HD
ENDBRANCH  18  23
ENDBRANCH  16  17
ENDBRANCH   4  16
BRANCH   9  31
ATOM     31  C   UNL     1      36.603 -23.631 -11.348  0.00  0.00    +0.030 C 
BRANCH  31  32
ATOM     32  N   UNL     1      37.960 -24.021 -10.966  0.00  0.00    +0.390 N 
ATOM     33  H   UNL     1      37.920 -24.641 -10.155  0.00  0.00    -0.088 HD
ATOM     34  H   UNL     1      38.500 -23.189 -10.730  0.00  0.00    -0.088 HD
ATOM     35  H   UNL     1      38.407 -24.507 -11.744  0.00  0.00    -0.088 HD
ENDBRANCH  31  32
ENDBRANCH   9  31
TORSDOF 6
ENDMDL
MODEL 2
REMARK VINA RESULT:     -11.5      1.839      4.046
REMARK  Name = 46937081
REMARK  6 active torsions:
REMARK  status: ('A' for Active; 'I' for Inactive)
REMARK    1  A    between atoms: N_1  and  C_10
REMARK    2  A    between atoms: C_4  and  C_16
REMARK    3  A    between atoms: C_9  and  C_31
REMARK    4  A    between atoms: C_16  and  C_17
REMARK    5  A    between atoms: C_18  and  N_23
REMARK    6  A    between atoms: C_31  and  N_32
REMARK                            x       y       z     vdW  Elec       q    Type
REMARK                         _______ _______ _______ _____ _____    ______ ____
ROOT
ATOM      1  N   UNL     1      34.458 -23.087 -16.343  0.00  0.00    -0.267 N 
ATOM      2  N   UNL     1      32.821 -23.852 -14.745  0.00  0.00    -0.341 NA
ATOM      3  N   UNL     1      30.534 -23.360 -15.419  0.00  0.00    -0.188 NA
ATOM      4  C   UNL     1      34.442 -22.440 -17.550  0.00  0.00    +0.035 C 
ATOM      5  C   UNL     1      33.174 -23.254 -15.896  0.00  0.00    +0.199 C 
ATOM      6  C   UNL     1      32.318 -22.700 -16.840  0.00  0.00    +0.066 C 
ATOM      7  C   UNL     1      33.129 -22.187 -17.884  0.00  0.00    +0.016 C 
ATOM      8  C   UNL     1      30.953 -22.770 -16.563  0.00  0.00    +0.114 C 
ATOM      9  C   UNL     1      31.481 -23.857 -14.592  0.00  0.00    +0.042 C 
ENDROOT
BRANCH   1  10
ATOM     10  C   UNL     1      35.702 -23.551 -15.607  0.00  0.00    +0.079 C 
ATOM     11  C   UNL     1      35.999 -22.678 -14.375  0.00  0.00    +0.020 C 
ATOM     12  C   UNL     1      35.618 -25.038 -15.220  0.00  0.00    +0.020 C 
ATOM     13  C   UNL     1      37.259 -23.148 -13.648  0.00  0.00    +0.002 C 
ATOM     14  C   UNL     1      36.878 -25.498 -14.490  0.00  0.00    +0.002 C 
ATOM     15  C   UNL     1      37.175 -24.625 -13.274  0.00  0.00    +0.000 C 
ENDBRANCH   1  10
BRANCH   4  16
ATOM     16  C   UNL     1      35.715 -22.108 -18.305  0.00  0.00    +0.068 C 
BRANCH  16  17
ATOM     17  C   UNL     1      35.541 -21.064 -19.355  0.00  0.00    -0.016 C 
ATOM     18  C   UNL     1      35.214 -19.109 -21.318  0.00  0.00    +0.048 C 
ATOM     19  C   UNL     1      34.268 -20.778 -19.850  0.00  0.00    -0.003 C 
ATOM     20  C   UNL     1      36.650 -20.372 -19.841  0.00  0.00    -0.003 C 
ATOM     21  C   UNL     1      34.105 -19.801 -20.831  0.00  0.00    +0.014 C 
ATOM     22  C   UNL     1      36.487 -19.395 -20.823  0.00  0.00    +0.014 C 
BRANCH  18  23
ATOM     23  N   UNL     1      35.051 -18.128 -22.303  0.00  0.00    -0.312 N 
ATOM     24  N   UNL     1      34.973 -16.141 -24.353  0.00  0.00    +0.388 N 
ATOM     25  C   UNL     1      34.884 -18.525 -23.705  0.00  0.00    +0.068 C 
ATOM     26  C   UNL     1      35.679 -16.820 -22.084  0.00  0.00    +0.068 C 
ATOM     27  C   UNL     1      35.000 -15.748 -22.940  0.00  0.00    -0.056 C 
ATOM     28  C   UNL     1      34.231 -17.399 -24.508  0.00  0.00    -0.056 C 
ATOM     29  C   UNL     1      34.371 -15.087 -25.168  0.00  0.00    -0.101 C 
ATOM     30  H   UNL     1      35.931 -16.283 -24.674  0.00  0.00    -0.080 HD
ENDBRANCH  18  23
ENDBRANCH  16  17
ENDBRANCH   4  16
BRANCH   9  31
ATOM     31  C   UNL     1      30.974 -24.499 -13.343  0.00  0.00    +0.030 C 
BRANCH  31  32
ATOM     32  N   UNL     1      29.798 -25.335 -13.586  0.00  0.00    +0.390 N 
ATOM     33  H   UNL     1      30.018 -26.032 -14.298  0.00  0.00    -0.088 HD
ATOM     34  H   UNL     1      29.027 -24.752 -13.908  0.00  0.00    -0.088 HD
ATOM     35  H   UNL     1      29.531 -25.805 -12.721  0.00  0.00    -0.088 HD
ENDBRANCH  31  32
ENDBRANCH   9  31
TORSDOF 6
ENDMDL
MODEL 3
REMARK VINA RESULT:      -9.9     10.896     17.986
REMARK  Name = 46937081
REMARK  6 active torsions:
REMARK  status: ('A' for Active; 'I' for Inactive)
REMARK    1  A    between atoms: N_1  and  C_10
REMARK    2  A    between atoms: C_4  and  C_16
REMARK    3  A    between atoms: C_9  and  C_31
REMARK    4  A    between atoms: C_16  and  C_17
REMARK    5  A    between atoms: C_18  and  N_23
REMARK    6  A    between atoms: C_31  and  N_32
REMARK                            x       y       z     vdW  Elec       q    Type
REMARK                         _______ _______ _______ _____ _____    ______ ____
ROOT
ATOM      1  N   UNL     1      33.743  -4.974 -24.983  0.00  0.00    -0.267 N 
ATOM      2  N   UNL     1      32.607  -3.494 -26.512  0.00  0.00    -0.341 NA
ATOM      3  N   UNL     1      33.945  -2.943 -28.471  0.00  0.00    -0.188 NA
ATOM      4  C   UNL     1      34.961  -5.600 -24.925  0.00  0.00    +0.035 C 
ATOM      5  C   UNL     1      33.664  -4.234 -26.134  0.00  0.00    +0.199 C 
ATOM      6  C   UNL     1      34.858  -4.390 -26.825  0.00  0.00    +0.066 C 
ATOM      7  C   UNL     1      35.674  -5.256 -26.053  0.00  0.00    +0.016 C 
ATOM      8  C   UNL     1      34.974  -3.706 -28.035  0.00  0.00    +0.114 C 
ATOM      9  C   UNL     1      32.841  -2.885 -27.693  0.00  0.00    +0.042 C 
ENDROOT
BRANCH   1  10
ATOM     10  C   UNL     1      32.646  -5.080 -23.940  0.00  0.00    +0.079 C 
ATOM     11  C   UNL     1      31.839  -6.381 -24.085  0.00  0.00    +0.020 C 
ATOM     12  C   UNL     1      33.199  -4.932 -22.511  0.00  0.00    +0.020 C 
ATOM     13  C   UNL     1      30.731  -6.472 -23.037  0.00  0.00    +0.002 C 
ATOM     14  C   UNL     1      32.086  -5.029 -21.469  0.00  0.00    +0.002 C 
ATOM     15  C   UNL     1      31.281  -6.317 -21.622  0.00  0.00    +0.000 C 
ENDBRANCH   1  10
BRANCH   4  16
ATOM     16  C   UNL     1      35.352  -6.497 -23.766  0.00  0.00    +0.068 C 
BRANCH  16  17
ATOM     17  C   UNL     1      35.034  -7.938 -23.983  0.00  0.00    -0.016 C 
ATOM     18  C   UNL     1      34.441 -10.634 -24.386  0.00  0.00    +0.048 C 
ATOM     19  C   UNL     1      35.797  -8.695 -24.872  0.00  0.00    -0.003 C 
ATOM     20  C   UNL     1      33.975  -8.529 -23.295  0.00  0.00    -0.003 C 
ATOM     21  C   UNL     1      35.501 -10.042 -25.074  0.00  0.00    +0.014 C 
ATOM     22  C   UNL     1      33.677  -9.877 -23.497  0.00  0.00    +0.014 C 
BRANCH  18  23
ATOM     23  N   UNL     1      34.142 -11.985 -24.588  0.00  0.00    -0.312 N 
ATOM     24  N   UNL     1      33.299 -14.697 -24.902  0.00  0.00    +0.388 N 
ATOM     25  C   UNL     1      33.454 -12.404 -25.814  0.00  0.00    +0.068 C 
ATOM     26  C   UNL     1      33.900 -12.822 -23.407  0.00  0.00    +0.068 C 
ATOM     27  C   UNL     1      34.109 -14.300 -23.744  0.00  0.00    -0.056 C 
ATOM     28  C   UNL     1      33.677 -13.895 -26.073  0.00  0.00    -0.056 C 
ATOM     29  C   UNL     1      33.465 -16.122 -25.181  0.00  0.00    -0.101 C 
ATOM     30  H   UNL     1      32.316 -14.527 -24.690  0.00  0.00    -0.080 HD
ENDBRANCH  18  23
ENDBRANCH  16  17
ENDBRANCH   4  16
BRANCH   9  31
ATOM     31  C   UNL     1      31.730  -2.032 -28.212  0.00  0.00    +0.030 C 
BRANCH  31  32
ATOM     32  N   UNL     1      31.588  -2.130 -29.665  0.00  0.00    +0.390 N 
ATOM     33  H   UNL     1      32.509  -2.241 -30.090  0.00  0.00    -0.088 HD
ATOM     34  H   UNL     1      31.149  -1.281 -30.021  0.00  0.00    -0.088 HD
ATOM     35  H   UNL     1      31.006  -2.935 -29.896  0.00  0.00    -0.088 HD
ENDBRANCH  31  32
ENDBRANCH   9  31
TORSDOF 6
ENDMDL
