MODEL 1
REMARK VINA RESULT:     -12.4      0.000      0.000
REMARK  Name = 3815
REMARK  0 active torsions:
REMARK  status: ('A' for Active; 'I' for Inactive)
REMARK                            x       y       z     vdW  Elec       q    Type
REMARK                         _______ _______ _______ _____ _____    ______ ____
ROOT
ATOM      1  O   UNL     1      37.718 -22.392 -16.532  0.00  0.00    -0.270 OA
ATOM      2  N   UNL     1      31.203 -22.832 -17.138  0.00  0.00    -0.352 N 
ATOM      3  N   UNL     1      32.869 -21.506 -18.936  0.00  0.00    -0.352 N 
ATOM      4  N   UNL     1      36.701 -23.597 -14.794  0.00  0.00    -0.297 N 
ATOM      5  C   UNL     1      34.544 -23.417 -15.521  0.00  0.00    +0.003 A 
ATOM      6  C   UNL     1      33.182 -23.402 -15.822  0.00  0.00    +0.016 A 
ATOM      7  C   UNL     1      34.778 -22.134 -17.540  0.00  0.00    +0.022 A 
ATOM      8  C   UNL     1      32.542 -22.785 -16.944  0.00  0.00    +0.072 A 
ATOM      9  C   UNL     1      35.365 -22.748 -16.433  0.00  0.00    +0.053 A 
ATOM     10  C   UNL     1      33.377 -22.120 -17.845  0.00  0.00    +0.073 A 
ATOM     11  C   UNL     1      35.359 -24.000 -14.416  0.00  0.00    +0.117 C 
ATOM     12  C   UNL     1      31.944 -23.922 -15.233  0.00  0.00    +0.017 A 
ATOM     13  C   UNL     1      35.173 -21.349 -18.721  0.00  0.00    +0.017 A 
ATOM     14  C   UNL     1      30.806 -23.570 -16.030  0.00  0.00    +0.057 A 
ATOM     15  C   UNL     1      34.026 -21.001 -19.512  0.00  0.00    +0.057 A 
ATOM     16  C   UNL     1      36.744 -22.859 -15.975  0.00  0.00    +0.246 C 
ATOM     17  C   UNL     1      31.715 -24.679 -14.059  0.00  0.00    +0.001 C 
ATOM     18  C   UNL     1      36.434 -20.903 -19.184  0.00  0.00    +0.001 C 
ATOM     19  C   UNL     1      29.508 -23.957 -15.668  0.00  0.00    +0.017 C 
ATOM     20  C   UNL     1      34.143 -20.252 -20.693  0.00  0.00    +0.017 C 
ATOM     21  C   UNL     1      30.417 -25.061 -13.707  0.00  0.00    +0.000 C 
ATOM     22  C   UNL     1      36.539 -20.156 -20.362  0.00  0.00    +0.000 C 
ATOM     23  C   UNL     1      29.333 -24.704 -14.500  0.00  0.00    +0.001 C 
ATOM     24  C   UNL     1      35.409 -19.836 -21.104  0.00  0.00    +0.001 C 
ATOM     25  H   UNL     1      30.659 -22.449 -17.863  0.00  0.00    +0.166 HD
ATOM     26  H   UNL     1      31.936 -21.435 -19.240  0.00  0.00    +0.166 HD
ATOM     27  H   UNL     1      37.502 -23.823 -14.269  0.00  0.00    +0.150 HD
ENDROOT
TORSDOF 0
ENDMDL
MODEL 2
REMARK VINA RESULT:     -12.2      0.919      5.956
REMARK  Name = 3815
REMARK  0 active torsions:
REMARK  status: ('A' for Active; 'I' for Inactive)
REMARK                            x       y       z     vdW  Elec       q    Type
REMARK                         _______ _______ _______ _____ _____    ______ ____
ROOT
ATOM      1  O   UNL     1      35.292 -24.481 -13.578  0.00  0.00    -0.270 OA
ATOM      2  N   UNL     1      32.880 -21.497 -18.896  0.00  0.00    -0.352 N 
ATOM      3  N   UNL     1      31.337 -22.847 -17.007  0.00  0.00    -0.352 N 
ATOM      4  N   UNL     1      36.941 -23.467 -14.905  0.00  0.00    -0.297 N 
ATOM      5  C   UNL     1      35.561 -22.635 -16.523  0.00  0.00    +0.003 A 
ATOM      6  C   UNL     1      34.864 -22.063 -17.587  0.00  0.00    +0.016 A 
ATOM      7  C   UNL     1      33.391 -23.355 -15.779  0.00  0.00    +0.022 A 
ATOM      8  C   UNL     1      33.452 -22.089 -17.822  0.00  0.00    +0.072 A 
ATOM      9  C   UNL     1      34.772 -23.308 -15.585  0.00  0.00    +0.053 A 
ATOM     10  C   UNL     1      32.679 -22.766 -16.875  0.00  0.00    +0.073 A 
ATOM     11  C   UNL     1      37.000 -22.701 -16.136  0.00  0.00    +0.117 C 
ATOM     12  C   UNL     1      35.184 -21.286 -18.788  0.00  0.00    +0.017 A 
ATOM     13  C   UNL     1      32.191 -23.902 -15.128  0.00  0.00    +0.017 A 
ATOM     14  C   UNL     1      33.998 -20.972 -19.531  0.00  0.00    +0.057 A 
ATOM     15  C   UNL     1      31.008 -23.583 -15.879  0.00  0.00    +0.057 A 
ATOM     16  C   UNL     1      35.647 -23.841 -14.549  0.00  0.00    +0.246 C 
ATOM     17  C   UNL     1      36.421 -20.823 -19.299  0.00  0.00    +0.001 C 
ATOM     18  C   UNL     1      32.015 -24.655 -13.941  0.00  0.00    +0.001 C 
ATOM     19  C   UNL     1      34.052 -20.233 -20.721  0.00  0.00    +0.017 C 
ATOM     20  C   UNL     1      29.734 -23.995 -15.461  0.00  0.00    +0.017 C 
ATOM     21  C   UNL     1      36.462 -20.087 -20.487  0.00  0.00    +0.000 C 
ATOM     22  C   UNL     1      30.740 -25.061 -13.534  0.00  0.00    +0.000 C 
ATOM     23  C   UNL     1      35.295 -19.798 -21.184  0.00  0.00    +0.001 C 
ATOM     24  C   UNL     1      29.618 -24.735 -14.284  0.00  0.00    +0.001 C 
ATOM     25  H   UNL     1      31.932 -21.451 -19.157  0.00  0.00    +0.166 HD
ATOM     26  H   UNL     1      30.752 -22.483 -17.710  0.00  0.00    +0.166 HD
ATOM     27  H   UNL     1      37.736 -23.698 -14.373  0.00  0.00    +0.150 HD
ENDROOT
TORSDOF 0
ENDMDL
MODEL 3
REMARK VINA RESULT:     -11.9      2.222      4.737
REMARK  Name = 3815
REMARK  0 active torsions:
REMARK  status: ('A' for Active; 'I' for Inactive)
REMARK                            x       y       z     vdW  Elec       q    Type
REMARK                         _______ _______ _______ _____ _____    ______ ____
ROOT
ATOM      1  O   UNL     1      31.230 -22.558 -16.939  0.00  0.00    -0.270 OA
ATOM      2  N   UNL     1      37.634 -23.238 -15.704  0.00  0.00    -0.352 N 
ATOM      3  N   UNL     1      36.586 -21.888 -17.906  0.00  0.00    -0.352 N 
ATOM      4  N   UNL     1      31.677 -23.769 -14.979  0.00  0.00    -0.297 N 
ATOM      5  C   UNL     1      33.956 -23.677 -15.077  0.00  0.00    +0.003 A 
ATOM      6  C   UNL     1      35.347 -23.713 -14.986  0.00  0.00    +0.016 A 
ATOM      7  C   UNL     1      34.341 -22.423 -17.091  0.00  0.00    +0.022 A 
ATOM      8  C   UNL     1      36.297 -23.140 -15.891  0.00  0.00    +0.072 A 
ATOM      9  C   UNL     1      33.447 -22.995 -16.186  0.00  0.00    +0.053 A 
ATOM     10  C   UNL     1      35.771 -22.463 -16.994  0.00  0.00    +0.073 A 
ATOM     11  C   UNL     1      32.844 -24.212 -14.239  0.00  0.00    +0.117 C 
ATOM     12  C   UNL     1      36.351 -24.267 -14.072  0.00  0.00    +0.017 A 
ATOM     13  C   UNL     1      34.321 -21.649 -18.343  0.00  0.00    +0.017 A 
ATOM     14  C   UNL     1      37.679 -23.969 -14.524  0.00  0.00    +0.057 A 
ATOM     15  C   UNL     1      35.655 -21.356 -18.786  0.00  0.00    +0.057 A 
ATOM     16  C   UNL     1      31.992 -23.051 -16.130  0.00  0.00    +0.246 C 
ATOM     17  C   UNL     1      36.216 -25.011 -12.876  0.00  0.00    +0.001 C 
ATOM     18  C   UNL     1      33.256 -21.168 -19.142  0.00  0.00    +0.001 C 
ATOM     19  C   UNL     1      38.809 -24.395 -13.812  0.00  0.00    +0.017 C 
ATOM     20  C   UNL     1      35.900 -20.627 -19.960  0.00  0.00    +0.017 C 
ATOM     21  C   UNL     1      37.350 -25.430 -12.174  0.00  0.00    +0.000 C 
ATOM     22  C   UNL     1      33.512 -20.443 -20.311  0.00  0.00    +0.000 C 
ATOM     23  C   UNL     1      38.624 -25.127 -12.637  0.00  0.00    +0.001 C 
ATOM     24  C   UNL     1      34.815 -20.177 -20.712  0.00  0.00    +0.001 C 
ATOM     25  H   UNL     1      38.373 -22.888 -16.253  0.00  0.00    +0.166 HD
ATOM     26  H   UNL     1      37.569 -21.854 -17.937  0.00  0.00    +0.166 HD
ATOM     27  H   UNL     1      30.753 -23.957 -14.695  0.00  0.00    +0.150 HD
ENDROOT
TORSDOF 0
ENDMDL
MODEL 4
REMARK VINA RESULT:     -11.7      2.192      6.424
REMARK  Name = 3815
REMARK  0 active torsions:
REMARK  status: ('A' for Active; 'I' for Inactive)
REMARK                            x       y       z     vdW  Elec       q    Type
REMARK                         _______ _______ _______ _____ _____    ______ ____
ROOT
ATOM      1  O   UNL     1      32.825 -24.716 -13.263  0.00  0.00    -0.270 OA
ATOM      2  N   UNL     1      36.670 -21.912 -17.775  0.00  0.00    -0.352 N 
ATOM      3  N   UNL     1      37.605 -23.237 -15.507  0.00  0.00    -0.352 N 
ATOM      4  N   UNL     1      31.626 -23.706 -15.010  0.00  0.00    -0.297 N 
ATOM      5  C   UNL     1      33.416 -22.942 -16.205  0.00  0.00    +0.003 A 
ATOM      6  C   UNL     1      34.391 -22.412 -17.049  0.00  0.00    +0.016 A 
ATOM      7  C   UNL     1      35.281 -23.679 -14.880  0.00  0.00    +0.022 A 
ATOM      8  C   UNL     1      35.812 -22.467 -16.887  0.00  0.00    +0.072 A 
ATOM      9  C   UNL     1      33.902 -23.604 -15.074  0.00  0.00    +0.053 A 
ATOM     10  C   UNL     1      36.280 -23.131 -15.751  0.00  0.00    +0.073 A 
ATOM     11  C   UNL     1      31.925 -22.972 -16.226  0.00  0.00    +0.117 C 
ATOM     12  C   UNL     1      34.430 -21.659 -18.307  0.00  0.00    +0.017 A 
ATOM     13  C   UNL     1      36.244 -24.228 -13.912  0.00  0.00    +0.017 A 
ATOM     14  C   UNL     1      35.781 -21.384 -18.702  0.00  0.00    +0.057 A 
ATOM     15  C   UNL     1      37.594 -23.947 -14.316  0.00  0.00    +0.057 A 
ATOM     16  C   UNL     1      32.764 -24.094 -14.306  0.00  0.00    +0.246 C 
ATOM     17  C   UNL     1      33.392 -21.188 -19.146  0.00  0.00    +0.001 C 
ATOM     18  C   UNL     1      36.070 -24.951 -12.707  0.00  0.00    +0.001 C 
ATOM     19  C   UNL     1      36.073 -20.675 -19.876  0.00  0.00    +0.017 C 
ATOM     20  C   UNL     1      38.695 -24.368 -13.555  0.00  0.00    +0.017 C 
ATOM     21  C   UNL     1      33.695 -20.482 -20.314  0.00  0.00    +0.000 C 
ATOM     22  C   UNL     1      37.175 -25.365 -11.956  0.00  0.00    +0.000 C 
ATOM     23  C   UNL     1      35.014 -20.231 -20.671  0.00  0.00    +0.001 C 
ATOM     24  C   UNL     1      38.468 -25.077 -12.375  0.00  0.00    +0.001 C 
ATOM     25  H   UNL     1      37.654 -21.888 -17.766  0.00  0.00    +0.166 HD
ATOM     26  H   UNL     1      38.368 -22.904 -16.031  0.00  0.00    +0.166 HD
ATOM     27  H   UNL     1      30.710 -23.910 -14.712  0.00  0.00    +0.150 HD
ENDROOT
TORSDOF 0
ENDMDL
MODEL 5
REMARK VINA RESULT:     -10.6      2.347      5.960
REMARK  Name = 3815
REMARK  0 active torsions:
REMARK  status: ('A' for Active; 'I' for Inactive)
REMARK                            x       y       z     vdW  Elec       q    Type
REMARK                         _______ _______ _______ _____ _____    ______ ____
ROOT
ATOM      1  O   UNL     1      32.727 -21.851 -18.666  0.00  0.00    -0.270 OA
ATOM      2  N   UNL     1      34.251 -24.481 -12.855  0.00  0.00    -0.352 N 
ATOM      3  N   UNL     1      31.650 -24.137 -13.798  0.00  0.00    -0.352 N 
ATOM      4  N   UNL     1      35.037 -21.952 -18.266  0.00  0.00    -0.297 N 
ATOM      5  C   UNL     1      34.947 -22.912 -16.197  0.00  0.00    +0.003 A 
ATOM      6  C   UNL     1      35.068 -23.492 -14.934  0.00  0.00    +0.016 A 
ATOM      7  C   UNL     1      32.583 -23.161 -15.839  0.00  0.00    +0.022 A 
ATOM      8  C   UNL     1      34.016 -23.929 -14.068  0.00  0.00    +0.072 A 
ATOM      9  C   UNL     1      33.637 -22.748 -16.655  0.00  0.00    +0.053 A 
ATOM     10  C   UNL     1      32.713 -23.756 -14.541  0.00  0.00    +0.073 A 
ATOM     11  C   UNL     1      35.920 -22.409 -17.209  0.00  0.00    +0.117 C 
ATOM     12  C   UNL     1      36.155 -23.872 -14.025  0.00  0.00    +0.017 A 
ATOM     13  C   UNL     1      31.112 -23.206 -15.853  0.00  0.00    +0.017 A 
ATOM     14  C   UNL     1      35.639 -24.448 -12.818  0.00  0.00    +0.057 A 
ATOM     15  C   UNL     1      30.606 -23.784 -14.639  0.00  0.00    +0.057 A 
ATOM     16  C   UNL     1      33.687 -22.135 -17.976  0.00  0.00    +0.246 C 
ATOM     17  C   UNL     1      37.560 -23.763 -14.153  0.00  0.00    +0.001 C 
ATOM     18  C   UNL     1      30.160 -22.795 -16.816  0.00  0.00    +0.001 C 
ATOM     19  C   UNL     1      36.489 -24.891 -11.794  0.00  0.00    +0.017 C 
ATOM     20  C   UNL     1      29.229 -23.937 -14.412  0.00  0.00    +0.017 C 
ATOM     21  C   UNL     1      38.398 -24.207 -13.125  0.00  0.00    +0.000 C 
ATOM     22  C   UNL     1      28.790 -22.950 -16.579  0.00  0.00    +0.000 C 
ATOM     23  C   UNL     1      37.869 -24.761 -11.966  0.00  0.00    +0.001 C 
ATOM     24  C   UNL     1      28.334 -23.513 -15.394  0.00  0.00    +0.001 C 
ATOM     25  H   UNL     1      33.614 -24.814 -12.182  0.00  0.00    +0.166 HD
ATOM     26  H   UNL     1      31.624 -24.551 -12.906  0.00  0.00    +0.166 HD
ATOM     27  H   UNL     1      35.360 -21.553 -19.106  0.00  0.00    +0.150 HD
ENDROOT
TORSDOF 0
ENDMDL
MODEL 6
REMARK VINA RESULT:     -10.4      2.109      5.044
REMARK  Name = 3815
REMARK  0 active torsions:
REMARK  status: ('A' for Active; 'I' for Inactive)
REMARK                            x       y       z     vdW  Elec       q    Type
REMARK                         _______ _______ _______ _____ _____    ______ ____
ROOT
ATOM      1  O   UNL     1      37.170 -22.387 -16.877  0.00  0.00    -0.270 OA
ATOM      2  N   UNL     1      31.745 -24.235 -13.688  0.00  0.00    -0.352 N 
ATOM      3  N   UNL     1      34.336 -24.545 -12.706  0.00  0.00    -0.352 N 
ATOM      4  N   UNL     1      35.195 -21.944 -18.064  0.00  0.00    -0.297 N 
ATOM      5  C   UNL     1      33.722 -22.765 -16.525  0.00  0.00    +0.003 A 
ATOM      6  C   UNL     1      32.696 -23.220 -15.697  0.00  0.00    +0.016 A 
ATOM      7  C   UNL     1      35.175 -23.515 -14.762  0.00  0.00    +0.022 A 
ATOM      8  C   UNL     1      32.817 -23.827 -14.407  0.00  0.00    +0.072 A 
ATOM      9  C   UNL     1      35.015 -22.927 -16.017  0.00  0.00    +0.053 A 
ATOM     10  C   UNL     1      34.116 -23.983 -13.915  0.00  0.00    +0.073 A 
ATOM     11  C   UNL     1      33.768 -22.123 -17.870  0.00  0.00    +0.117 C 
ATOM     12  C   UNL     1      31.232 -23.290 -15.739  0.00  0.00    +0.017 A 
ATOM     13  C   UNL     1      36.254 -23.892 -13.835  0.00  0.00    +0.017 A 
ATOM     14  C   UNL     1      30.710 -23.890 -14.546  0.00  0.00    +0.057 A 
ATOM     15  C   UNL     1      35.721 -24.492 -12.644  0.00  0.00    +0.057 A 
ATOM     16  C   UNL     1      35.960 -22.405 -16.996  0.00  0.00    +0.246 C 
ATOM     17  C   UNL     1      30.306 -22.877 -16.727  0.00  0.00    +0.001 C 
ATOM     18  C   UNL     1      37.662 -23.767 -13.918  0.00  0.00    +0.001 C 
ATOM     19  C   UNL     1      29.332 -24.064 -14.355  0.00  0.00    +0.017 C 
ATOM     20  C   UNL     1      36.552 -24.937 -11.605  0.00  0.00    +0.017 C 
ATOM     21  C   UNL     1      28.933 -23.056 -16.525  0.00  0.00    +0.000 C 
ATOM     22  C   UNL     1      38.482 -24.216 -12.877  0.00  0.00    +0.000 C 
ATOM     23  C   UNL     1      28.457 -23.641 -15.358  0.00  0.00    +0.001 C 
ATOM     24  C   UNL     1      37.933 -24.791 -11.738  0.00  0.00    +0.001 C 
ATOM     25  H   UNL     1      31.709 -24.659 -12.800  0.00  0.00    +0.166 HD
ATOM     26  H   UNL     1      33.692 -24.895 -12.050  0.00  0.00    +0.166 HD
ATOM     27  H   UNL     1      35.584 -21.536 -18.871  0.00  0.00    +0.150 HD
ENDROOT
TORSDOF 0
ENDMDL
