MODEL 1
REMARK VINA RESULT:     -12.1      0.000      0.000
REMARK  Name = 3151
REMARK  5 active torsions:
REMARK  status: ('A' for Active; 'I' for Inactive)
REMARK    1  A    between atoms: N_1  and  C_20
REMARK    2  A    between atoms: C_2  and  N_10
REMARK    3  A    between atoms: C_20  and  C_21
REMARK    4  A    between atoms: C_21  and  C_22
REMARK    5  A    between atoms: C_22  and  N_24
REMARK                            x       y       z     vdW  Elec       q    Type
REMARK                         _______ _______ _______ _____ _____    ______ ____
ROOT
ATOM      1  N   UNL     1      34.375 -15.955 -24.147  0.00  0.00    +0.387 N 
ATOM      2  C   UNL     1      34.290 -13.042 -23.896  0.00  0.00    +0.086 C 
ATOM      3  C   UNL     1      34.861 -13.939 -22.798  0.00  0.00    -0.000 C 
ATOM      4  C   UNL     1      33.280 -13.819 -24.741  0.00  0.00    -0.000 C 
ATOM      5  C   UNL     1      35.406 -15.246 -23.376  0.00  0.00    -0.075 C 
ATOM      6  C   UNL     1      33.879 -15.130 -25.256  0.00  0.00    -0.075 C 
ATOM      7  H   UNL     1      33.593 -16.148 -23.523  0.00  0.00    -0.080 HD
ENDROOT
BRANCH   2  10
ATOM      8 CL   UNL     1      34.731  -6.122 -23.891  0.00  0.00    -0.082 Cl
ATOM      9  O   UNL     1      31.978 -12.748 -21.947  0.00  0.00    -0.247 OA
ATOM     10  N   UNL     1      33.693 -11.857 -23.333  0.00  0.00    -0.282 N 
ATOM     11  N   UNL     1      32.382 -10.427 -22.160  0.00  0.00    -0.305 N 
ATOM     12  C   UNL     1      34.114 -10.551 -23.614  0.00  0.00    +0.079 A 
ATOM     13  C   UNL     1      32.604 -11.810 -22.420  0.00  0.00    +0.328 A 
ATOM     14  C   UNL     1      33.304  -9.678 -22.890  0.00  0.00    +0.077 A 
ATOM     15  C   UNL     1      35.122 -10.087 -24.433  0.00  0.00    +0.020 C 
ATOM     16  C   UNL     1      33.458  -8.311 -22.946  0.00  0.00    +0.030 C 
ATOM     17  C   UNL     1      35.299  -8.702 -24.505  0.00  0.00    +0.013 C 
ATOM     18  C   UNL     1      34.476  -7.824 -23.770  0.00  0.00    +0.059 C 
ATOM     19  H   UNL     1      31.691 -10.061 -21.563  0.00  0.00    +0.170 HD
ENDBRANCH   2  10
BRANCH   1  20
ATOM     20  C   UNL     1      34.899 -17.226 -24.650  0.00  0.00    -0.075 C 
BRANCH  20  21
ATOM     21  C   UNL     1      34.877 -18.319 -23.578  0.00  0.00    +0.002 C 
BRANCH  21  22
ATOM     22  C   UNL     1      35.118 -17.813 -22.157  0.00  0.00    +0.108 C 
BRANCH  22  24
ATOM     23  O   UNL     1      37.960 -18.459 -21.371  0.00  0.00    -0.247 OA
ATOM     24  N   UNL     1      35.613 -18.841 -21.282  0.00  0.00    -0.280 N 
ATOM     25  N   UNL     1      36.993 -20.183 -20.074  0.00  0.00    -0.305 N 
ATOM     26  C   UNL     1      34.827 -19.783 -20.598  0.00  0.00    +0.079 A 
ATOM     27  C   UNL     1      36.983 -19.075 -20.967  0.00  0.00    +0.328 A 
ATOM     28  C   UNL     1      35.679 -20.602 -19.859  0.00  0.00    +0.076 A 
ATOM     29  C   UNL     1      33.459 -19.964 -20.580  0.00  0.00    +0.019 C 
ATOM     30  C   UNL     1      35.216 -21.632 -19.072  0.00  0.00    +0.019 C 
ATOM     31  C   UNL     1      32.964 -21.005 -19.787  0.00  0.00    +0.002 C 
ATOM     32  C   UNL     1      33.832 -21.829 -19.041  0.00  0.00    +0.002 C 
ATOM     33  H   UNL     1      37.796 -20.589 -19.672  0.00  0.00    +0.170 HD
ENDBRANCH  22  24
ENDBRANCH  21  22
ENDBRANCH  20  21
ENDBRANCH   1  20
TORSDOF 5
ENDMDL
MODEL 2
REMARK VINA RESULT:     -12.0      3.661      9.651
REMARK  Name = 3151
REMARK  5 active torsions:
REMARK  status: ('A' for Active; 'I' for Inactive)
REMARK    1  A    between atoms: N_1  and  C_20
REMARK    2  A    between atoms: C_2  and  N_10
REMARK    3  A    between atoms: C_20  and  C_21
REMARK    4  A    between atoms: C_21  and  C_22
REMARK    5  A    between atoms: C_22  and  N_24
REMARK                            x       y       z     vdW  Elec       q    Type
REMARK                         _______ _______ _______ _____ _____    ______ ____
ROOT
ATOM      1  N   UNL     1      35.239 -16.379 -24.102  0.00  0.00    +0.387 N 
ATOM      2  C   UNL     1      34.985 -18.299 -21.910  0.00  0.00    +0.086 C 
ATOM      3  C   UNL     1      35.545 -16.892 -21.701  0.00  0.00    -0.000 C 
ATOM      4  C   UNL     1      35.186 -18.737 -23.360  0.00  0.00    -0.000 C 
ATOM      5  C   UNL     1      34.982 -15.912 -22.732  0.00  0.00    -0.075 C 
ATOM      6  C   UNL     1      34.634 -17.697 -24.336  0.00  0.00    -0.075 C 
ATOM      7  H   UNL     1      36.247 -16.470 -24.219  0.00  0.00    -0.080 HD
ENDROOT
BRANCH   2  10
ATOM      8 CL   UNL     1      33.499 -23.391 -17.445  0.00  0.00    -0.082 Cl
ATOM      9  O   UNL     1      37.908 -18.733 -21.202  0.00  0.00    -0.247 OA
ATOM     10  N   UNL     1      35.593 -19.233 -20.996  0.00  0.00    -0.282 N 
ATOM     11  N   UNL     1      37.081 -20.417 -19.762  0.00  0.00    -0.305 N 
ATOM     12  C   UNL     1      34.879 -20.163 -20.228  0.00  0.00    +0.079 A 
ATOM     13  C   UNL     1      36.981 -19.371 -20.723  0.00  0.00    +0.328 A 
ATOM     14  C   UNL     1      35.800 -20.887 -19.472  0.00  0.00    +0.077 A 
ATOM     15  C   UNL     1      33.525 -20.413 -20.147  0.00  0.00    +0.020 C 
ATOM     16  C   UNL     1      35.420 -21.887 -18.605  0.00  0.00    +0.030 C 
ATOM     17  C   UNL     1      33.114 -21.424 -19.272  0.00  0.00    +0.013 C 
ATOM     18  C   UNL     1      34.052 -22.153 -18.510  0.00  0.00    +0.059 C 
ATOM     19  H   UNL     1      37.918 -20.754 -19.368  0.00  0.00    +0.170 HD
ENDBRANCH   2  10
BRANCH   1  20
ATOM     20  C   UNL     1      34.739 -15.406 -25.075  0.00  0.00    -0.075 C 
BRANCH  20  21
ATOM     21  C   UNL     1      33.889 -14.319 -24.412  0.00  0.00    +0.002 C 
BRANCH  21  22
ATOM     22  C   UNL     1      34.690 -13.288 -23.619  0.00  0.00    +0.108 C 
BRANCH  22  24
ATOM     23  O   UNL     1      34.779 -10.757 -25.262  0.00  0.00    -0.247 OA
ATOM     24  N   UNL     1      33.973 -12.055 -23.438  0.00  0.00    -0.280 N 
ATOM     25  N   UNL     1      33.195  -9.937 -23.710  0.00  0.00    -0.305 N 
ATOM     26  C   UNL     1      33.053 -11.786 -22.411  0.00  0.00    +0.079 A 
ATOM     27  C   UNL     1      34.079 -10.902 -24.269  0.00  0.00    +0.328 A 
ATOM     28  C   UNL     1      32.580 -10.486 -22.584  0.00  0.00    +0.076 A 
ATOM     29  C   UNL     1      32.616 -12.579 -21.369  0.00  0.00    +0.019 C 
ATOM     30  C   UNL     1      31.657  -9.917 -21.736  0.00  0.00    +0.019 C 
ATOM     31  C   UNL     1      31.678 -12.022 -20.494  0.00  0.00    +0.002 C 
ATOM     32  C   UNL     1      31.203 -10.706 -20.675  0.00  0.00    +0.002 C 
ATOM     33  H   UNL     1      33.042  -9.028 -24.059  0.00  0.00    +0.170 HD
ENDBRANCH  22  24
ENDBRANCH  21  22
ENDBRANCH  20  21
ENDBRANCH   1  20
TORSDOF 5
ENDMDL
MODEL 3
REMARK VINA RESULT:     -11.9      3.560      9.916
REMARK  Name = 3151
REMARK  5 active torsions:
REMARK  status: ('A' for Active; 'I' for Inactive)
REMARK    1  A    between atoms: N_1  and  C_20
REMARK    2  A    between atoms: C_2  and  N_10
REMARK    3  A    between atoms: C_20  and  C_21
REMARK    4  A    between atoms: C_21  and  C_22
REMARK    5  A    between atoms: C_22  and  N_24
REMARK                            x       y       z     vdW  Elec       q    Type
REMARK                         _______ _______ _______ _____ _____    ______ ____
ROOT
ATOM      1  N   UNL     1      35.412 -15.484 -23.438  0.00  0.00    +0.387 N 
ATOM      2  C   UNL     1      35.118 -17.913 -21.834  0.00  0.00    +0.086 C 
ATOM      3  C   UNL     1      35.440 -16.556 -21.208  0.00  0.00    -0.000 C 
ATOM      4  C   UNL     1      35.584 -17.947 -23.289  0.00  0.00    -0.000 C 
ATOM      5  C   UNL     1      34.899 -15.408 -22.063  0.00  0.00    -0.075 C 
ATOM      6  C   UNL     1      35.037 -16.754 -24.075  0.00  0.00    -0.075 C 
ATOM      7  H   UNL     1      36.430 -15.442 -23.397  0.00  0.00    -0.080 HD
ENDROOT
BRANCH   2  10
ATOM      8 CL   UNL     1      33.554 -23.443 -17.955  0.00  0.00    -0.082 Cl
ATOM      9  O   UNL     1      38.041 -18.574 -21.334  0.00  0.00    -0.247 OA
ATOM     10  N   UNL     1      35.714 -18.982 -21.073  0.00  0.00    -0.282 N 
ATOM     11  N   UNL     1      37.188 -20.382 -20.070  0.00  0.00    -0.305 N 
ATOM     12  C   UNL     1      34.984 -19.965 -20.389  0.00  0.00    +0.079 A 
ATOM     13  C   UNL     1      37.102 -19.220 -20.889  0.00  0.00    +0.328 A 
ATOM     14  C   UNL     1      35.897 -20.821 -19.775  0.00  0.00    +0.077 A 
ATOM     15  C   UNL     1      33.624 -20.156 -20.270  0.00  0.00    +0.020 C 
ATOM     16  C   UNL     1      35.502 -21.901 -19.019  0.00  0.00    +0.030 C 
ATOM     17  C   UNL     1      33.197 -21.247 -19.506  0.00  0.00    +0.013 C 
ATOM     18  C   UNL     1      34.126 -22.110 -18.887  0.00  0.00    +0.059 C 
ATOM     19  H   UNL     1      38.021 -20.805 -19.762  0.00  0.00    +0.170 HD
ENDBRANCH   2  10
BRANCH   1  20
ATOM     20  C   UNL     1      34.926 -14.353 -24.229  0.00  0.00    -0.075 C 
BRANCH  20  21
ATOM     21  C   UNL     1      34.503 -13.177 -23.343  0.00  0.00    +0.002 C 
BRANCH  21  22
ATOM     22  C   UNL     1      32.994 -12.952 -23.271  0.00  0.00    +0.108 C 
BRANCH  22  24
ATOM     23  O   UNL     1      32.093 -13.583 -20.460  0.00  0.00    -0.247 OA
ATOM     24  N   UNL     1      32.620 -12.058 -22.209  0.00  0.00    -0.280 N 
ATOM     25  N   UNL     1      31.939 -11.238 -20.202  0.00  0.00    -0.305 N 
ATOM     26  C   UNL     1      32.604 -10.656 -22.286  0.00  0.00    +0.079 A 
ATOM     27  C   UNL     1      32.204 -12.448 -20.902  0.00  0.00    +0.328 A 
ATOM     28  C   UNL     1      32.186 -10.160 -21.053  0.00  0.00    +0.076 A 
ATOM     29  C   UNL     1      32.922  -9.813 -23.332  0.00  0.00    +0.019 C 
ATOM     30  C   UNL     1      32.064  -8.812 -20.801  0.00  0.00    +0.019 C 
ATOM     31  C   UNL     1      32.806  -8.439 -23.100  0.00  0.00    +0.002 C 
ATOM     32  C   UNL     1      32.382  -7.943 -21.849  0.00  0.00    +0.002 C 
ATOM     33  H   UNL     1      31.631 -11.171 -19.268  0.00  0.00    +0.170 HD
ENDBRANCH  22  24
ENDBRANCH  21  22
ENDBRANCH  20  21
ENDBRANCH   1  20
TORSDOF 5
ENDMDL
MODEL 4
REMARK VINA RESULT:     -11.7      3.602      6.470
REMARK  Name = 3151
REMARK  5 active torsions:
REMARK  status: ('A' for Active; 'I' for Inactive)
REMARK    1  A    between atoms: N_1  and  C_20
REMARK    2  A    between atoms: C_2  and  N_10
REMARK    3  A    between atoms: C_20  and  C_21
REMARK    4  A    between atoms: C_21  and  C_22
REMARK    5  A    between atoms: C_22  and  N_24
REMARK                            x       y       z     vdW  Elec       q    Type
REMARK                         _______ _______ _______ _____ _____    ______ ____
ROOT
ATOM      1  N   UNL     1      35.828 -20.805 -20.241  0.00  0.00    +0.387 N 
ATOM      2  C   UNL     1      35.294 -18.223 -21.506  0.00  0.00    +0.086 C 
ATOM      3  C   UNL     1      34.251 -19.340 -21.460  0.00  0.00    -0.000 C 
ATOM      4  C   UNL     1      36.702 -18.810 -21.412  0.00  0.00    -0.000 C 
ATOM      5  C   UNL     1      34.467 -20.251 -20.250  0.00  0.00    -0.075 C 
ATOM      6  C   UNL     1      36.837 -19.737 -20.203  0.00  0.00    -0.075 C 
ATOM      7  H   UNL     1      35.960 -21.332 -21.104  0.00  0.00    -0.080 HD
ENDROOT
BRANCH   2  10
ATOM      8 CL   UNL     1      34.271 -11.726 -23.701  0.00  0.00    -0.082 Cl
ATOM      9  O   UNL     1      35.329 -19.047 -24.431  0.00  0.00    -0.247 OA
ATOM     10  N   UNL     1      35.141 -17.428 -22.700  0.00  0.00    -0.282 N 
ATOM     11  N   UNL     1      34.978 -16.747 -24.855  0.00  0.00    -0.305 N 
ATOM     12  C   UNL     1      34.937 -16.042 -22.703  0.00  0.00    +0.079 A 
ATOM     13  C   UNL     1      35.172 -17.898 -24.040  0.00  0.00    +0.328 A 
ATOM     14  C   UNL     1      34.837 -15.630 -24.031  0.00  0.00    +0.077 A 
ATOM     15  C   UNL     1      34.835 -15.144 -21.661  0.00  0.00    +0.020 C 
ATOM     16  C   UNL     1      34.633 -14.315 -24.383  0.00  0.00    +0.030 C 
ATOM     17  C   UNL     1      34.627 -13.802 -21.993  0.00  0.00    +0.013 C 
ATOM     18  C   UNL     1      34.527 -13.392 -23.339  0.00  0.00    +0.059 C 
ATOM     19  H   UNL     1      34.949 -16.740 -25.839  0.00  0.00    +0.170 HD
ENDBRANCH   2  10
BRANCH   1  20
ATOM     20  C   UNL     1      36.002 -21.713 -19.106  0.00  0.00    -0.075 C 
BRANCH  20  21
ATOM     21  C   UNL     1      34.784 -21.708 -18.178  0.00  0.00    +0.002 C 
BRANCH  21  22
ATOM     22  C   UNL     1      34.187 -23.088 -17.912  0.00  0.00    +0.108 C 
BRANCH  22  24
ATOM     23  O   UNL     1      36.017 -23.946 -15.670  0.00  0.00    -0.247 OA
ATOM     24  N   UNL     1      33.891 -23.302 -16.522  0.00  0.00    -0.280 N 
ATOM     25  N   UNL     1      34.088 -23.791 -14.311  0.00  0.00    -0.305 N 
ATOM     26  C   UNL     1      32.631 -23.144 -15.919  0.00  0.00    +0.079 A 
ATOM     27  C   UNL     1      34.825 -23.711 -15.526  0.00  0.00    +0.328 A 
ATOM     28  C   UNL     1      32.760 -23.445 -14.565  0.00  0.00    +0.076 A 
ATOM     29  C   UNL     1      31.420 -22.765 -16.462  0.00  0.00    +0.019 C 
ATOM     30  C   UNL     1      31.698 -23.385 -13.691  0.00  0.00    +0.019 C 
ATOM     31  C   UNL     1      30.326 -22.696 -15.593  0.00  0.00    +0.002 C 
ATOM     32  C   UNL     1      30.463 -23.002 -14.223  0.00  0.00    +0.002 C 
ATOM     33  H   UNL     1      34.454 -24.050 -13.434  0.00  0.00    +0.170 HD
ENDBRANCH  22  24
ENDBRANCH  21  22
ENDBRANCH  20  21
ENDBRANCH   1  20
TORSDOF 5
ENDMDL
MODEL 5
REMARK VINA RESULT:     -11.5      4.066     10.615
REMARK  Name = 3151
REMARK  5 active torsions:
REMARK  status: ('A' for Active; 'I' for Inactive)
REMARK    1  A    between atoms: N_1  and  C_20
REMARK    2  A    between atoms: C_2  and  N_10
REMARK    3  A    between atoms: C_20  and  C_21
REMARK    4  A    between atoms: C_21  and  C_22
REMARK    5  A    between atoms: C_22  and  N_24
REMARK                            x       y       z     vdW  Elec       q    Type
REMARK                         _______ _______ _______ _____ _____    ______ ____
ROOT
ATOM      1  N   UNL     1      32.211 -10.086 -22.683  0.00  0.00    +0.387 N 
ATOM      2  C   UNL     1      33.818 -12.514 -22.959  0.00  0.00    +0.086 C 
ATOM      3  C   UNL     1      33.868 -11.382 -23.985  0.00  0.00    -0.000 C 
ATOM      4  C   UNL     1      32.480 -12.500 -22.221  0.00  0.00    -0.000 C 
ATOM      5  C   UNL     1      33.523 -10.037 -23.344  0.00  0.00    -0.075 C 
ATOM      6  C   UNL     1      32.182 -11.118 -21.638  0.00  0.00    -0.075 C 
ATOM      7  H   UNL     1      31.513 -10.328 -23.385  0.00  0.00    -0.080 HD
ENDROOT
BRANCH   2  10
ATOM      8 CL   UNL     1      36.088 -18.945 -21.709  0.00  0.00    -0.082 Cl
ATOM      9  O   UNL     1      33.371 -13.391 -25.834  0.00  0.00    -0.247 OA
ATOM     10  N   UNL     1      34.050 -13.789 -23.590  0.00  0.00    -0.282 N 
ATOM     11  N   UNL     1      34.192 -15.481 -25.093  0.00  0.00    -0.305 N 
ATOM     12  C   UNL     1      34.558 -14.916 -22.929  0.00  0.00    +0.079 A 
ATOM     13  C   UNL     1      33.811 -14.116 -24.953  0.00  0.00    +0.328 A 
ATOM     14  C   UNL     1      34.642 -15.951 -23.859  0.00  0.00    +0.077 A 
ATOM     15  C   UNL     1      34.938 -15.094 -21.616  0.00  0.00    +0.020 C 
ATOM     16  C   UNL     1      35.106 -17.205 -23.527  0.00  0.00    +0.030 C 
ATOM     17  C   UNL     1      35.413 -16.358 -21.255  0.00  0.00    +0.013 C 
ATOM     18  C   UNL     1      35.496 -17.402 -22.200  0.00  0.00    +0.059 C 
ATOM     19  H   UNL     1      34.145 -16.006 -25.923  0.00  0.00    +0.170 HD
ENDBRANCH   2  10
BRANCH   1  20
ATOM     20  C   UNL     1      31.875  -8.778 -22.118  0.00  0.00    -0.075 C 
BRANCH  20  21
ATOM     21  C   UNL     1      32.403  -8.619 -20.690  0.00  0.00    +0.002 C 
BRANCH  21  22
ATOM     22  C   UNL     1      33.201  -7.339 -20.450  0.00  0.00    +0.108 C 
BRANCH  22  24
ATOM     23  O   UNL     1      31.068  -5.212 -20.644  0.00  0.00    -0.247 OA
ATOM     24  N   UNL     1      32.983  -6.354 -21.474  0.00  0.00    -0.280 N 
ATOM     25  N   UNL     1      32.120  -4.632 -22.680  0.00  0.00    -0.305 N 
ATOM     26  C   UNL     1      33.762  -6.190 -22.632  0.00  0.00    +0.079 A 
ATOM     27  C   UNL     1      31.941  -5.381 -21.483  0.00  0.00    +0.328 A 
ATOM     28  C   UNL     1      33.227  -5.134 -23.366  0.00  0.00    +0.076 A 
ATOM     29  C   UNL     1      34.871  -6.884 -23.071  0.00  0.00    +0.019 C 
ATOM     30  C   UNL     1      33.766  -4.718 -24.563  0.00  0.00    +0.019 C 
ATOM     31  C   UNL     1      35.437  -6.480 -24.285  0.00  0.00    +0.002 C 
ATOM     32  C   UNL     1      34.891  -5.408 -25.023  0.00  0.00    +0.002 C 
ATOM     33  H   UNL     1      31.555  -3.881 -22.977  0.00  0.00    +0.170 HD
ENDBRANCH  22  24
ENDBRANCH  21  22
ENDBRANCH  20  21
ENDBRANCH   1  20
TORSDOF 5
ENDMDL
MODEL 6
REMARK VINA RESULT:     -11.4      2.959      5.148
REMARK  Name = 3151
REMARK  5 active torsions:
REMARK  status: ('A' for Active; 'I' for Inactive)
REMARK    1  A    between atoms: N_1  and  C_20
REMARK    2  A    between atoms: C_2  and  N_10
REMARK    3  A    between atoms: C_20  and  C_21
REMARK    4  A    between atoms: C_21  and  C_22
REMARK    5  A    between atoms: C_22  and  N_24
REMARK                            x       y       z     vdW  Elec       q    Type
REMARK                         _______ _______ _______ _____ _____    ______ ____
ROOT
ATOM      1  N   UNL     1      32.736 -11.552 -21.980  0.00  0.00    +0.387 N 
ATOM      2  C   UNL     1      31.928  -8.745 -22.145  0.00  0.00    +0.086 C 
ATOM      3  C   UNL     1      33.197  -9.269 -22.816  0.00  0.00    -0.000 C 
ATOM      4  C   UNL     1      31.549  -9.636 -20.962  0.00  0.00    -0.000 C 
ATOM      5  C   UNL     1      33.067 -10.752 -23.168  0.00  0.00    -0.075 C 
ATOM      6  C   UNL     1      31.473 -11.106 -21.376  0.00  0.00    -0.075 C 
ATOM      7  H   UNL     1      33.477 -11.418 -21.294  0.00  0.00    -0.080 HD
ENDROOT
BRANCH   2  10
ATOM      8 CL   UNL     1      31.662  -2.219 -24.472  0.00  0.00    -0.082 Cl
ATOM      9  O   UNL     1      32.652  -7.590 -19.430  0.00  0.00    -0.247 OA
ATOM     10  N   UNL     1      32.095  -7.375 -21.731  0.00  0.00    -0.282 N 
ATOM     11  N   UNL     1      32.482  -5.498 -20.519  0.00  0.00    -0.305 N 
ATOM     12  C   UNL     1      31.938  -6.270 -22.579  0.00  0.00    +0.079 A 
ATOM     13  C   UNL     1      32.437  -6.919 -20.429  0.00  0.00    +0.328 A 
ATOM     14  C   UNL     1      32.177  -5.120 -21.828  0.00  0.00    +0.077 A 
ATOM     15  C   UNL     1      31.610  -6.201 -23.917  0.00  0.00    +0.020 C 
ATOM     16  C   UNL     1      32.103  -3.856 -22.368  0.00  0.00    +0.030 C 
ATOM     17  C   UNL     1      31.530  -4.928 -24.489  0.00  0.00    +0.013 C 
ATOM     18  C   UNL     1      31.774  -3.768 -23.723  0.00  0.00    +0.059 C 
ATOM     19  H   UNL     1      32.693  -4.884 -19.780  0.00  0.00    +0.170 HD
ENDBRANCH   2  10
BRANCH   1  20
ATOM     20  C   UNL     1      32.664 -12.973 -22.325  0.00  0.00    -0.075 C 
BRANCH  20  21
ATOM     21  C   UNL     1      33.862 -13.754 -21.777  0.00  0.00    +0.002 C 
BRANCH  21  22
ATOM     22  C   UNL     1      34.939 -14.067 -22.814  0.00  0.00    +0.108 C 
BRANCH  22  24
ATOM     23  O   UNL     1      33.817 -14.724 -25.538  0.00  0.00    -0.247 OA
ATOM     24  N   UNL     1      34.748 -15.347 -23.439  0.00  0.00    -0.280 N 
ATOM     25  N   UNL     1      34.207 -16.975 -24.930  0.00  0.00    -0.305 N 
ATOM     26  C   UNL     1      35.063 -16.592 -22.869  0.00  0.00    +0.079 A 
ATOM     27  C   UNL     1      34.206 -15.565 -24.739  0.00  0.00    +0.328 A 
ATOM     28  C   UNL     1      34.729 -17.585 -23.788  0.00  0.00    +0.076 A 
ATOM     29  C   UNL     1      35.605 -16.902 -21.638  0.00  0.00    +0.019 C 
ATOM     30  C   UNL     1      34.917 -18.924 -23.530  0.00  0.00    +0.019 C 
ATOM     31  C   UNL     1      35.806 -18.256 -21.353  0.00  0.00    +0.002 C 
ATOM     32  C   UNL     1      35.466 -19.257 -22.288  0.00  0.00    +0.002 C 
ATOM     33  H   UNL     1      33.890 -17.446 -25.736  0.00  0.00    +0.170 HD
ENDBRANCH  22  24
ENDBRANCH  21  22
ENDBRANCH  20  21
ENDBRANCH   1  20
TORSDOF 5
ENDMDL
MODEL 7
REMARK VINA RESULT:     -11.3      3.783      6.649
REMARK  Name = 3151
REMARK  5 active torsions:
REMARK  status: ('A' for Active; 'I' for Inactive)
REMARK    1  A    between atoms: N_1  and  C_20
REMARK    2  A    between atoms: C_2  and  N_10
REMARK    3  A    between atoms: C_20  and  C_21
REMARK    4  A    between atoms: C_21  and  C_22
REMARK    5  A    between atoms: C_22  and  N_24
REMARK                            x       y       z     vdW  Elec       q    Type
REMARK                         _______ _______ _______ _____ _____    ______ ____
ROOT
ATOM      1  N   UNL     1      35.819 -20.825 -20.241  0.00  0.00    +0.387 N 
ATOM      2  C   UNL     1      35.301 -18.233 -21.495  0.00  0.00    +0.086 C 
ATOM      3  C   UNL     1      34.252 -19.344 -21.455  0.00  0.00    -0.000 C 
ATOM      4  C   UNL     1      36.706 -18.829 -21.403  0.00  0.00    -0.000 C 
ATOM      5  C   UNL     1      34.462 -20.261 -20.249  0.00  0.00    -0.075 C 
ATOM      6  C   UNL     1      36.834 -19.763 -20.198  0.00  0.00    -0.075 C 
ATOM      7  H   UNL     1      35.948 -21.348 -21.106  0.00  0.00    -0.080 HD
ENDROOT
BRANCH   2  10
ATOM      8 CL   UNL     1      34.286 -11.725 -23.660  0.00  0.00    -0.082 Cl
ATOM      9  O   UNL     1      35.352 -19.041 -24.424  0.00  0.00    -0.247 OA
ATOM     10  N   UNL     1      35.154 -17.432 -22.685  0.00  0.00    -0.282 N 
ATOM     11  N   UNL     1      35.001 -16.739 -24.838  0.00  0.00    -0.305 N 
ATOM     12  C   UNL     1      34.949 -16.046 -22.682  0.00  0.00    +0.079 A 
ATOM     13  C   UNL     1      35.191 -17.895 -24.028  0.00  0.00    +0.328 A 
ATOM     14  C   UNL     1      34.856 -15.627 -24.008  0.00  0.00    +0.077 A 
ATOM     15  C   UNL     1      34.842 -15.154 -21.635  0.00  0.00    +0.020 C 
ATOM     16  C   UNL     1      34.653 -14.310 -24.354  0.00  0.00    +0.030 C 
ATOM     17  C   UNL     1      34.635 -13.810 -21.961  0.00  0.00    +0.013 C 
ATOM     18  C   UNL     1      34.541 -13.393 -23.306  0.00  0.00    +0.059 C 
ATOM     19  H   UNL     1      34.977 -16.728 -25.822  0.00  0.00    +0.170 HD
ENDBRANCH   2  10
BRANCH   1  20
ATOM     20  C   UNL     1      35.987 -21.738 -19.110  0.00  0.00    -0.075 C 
BRANCH  20  21
ATOM     21  C   UNL     1      34.809 -21.662 -18.134  0.00  0.00    +0.002 C 
BRANCH  21  22
ATOM     22  C   UNL     1      34.045 -22.973 -17.965  0.00  0.00    +0.108 C 
BRANCH  22  24
ATOM     23  O   UNL     1      31.188 -22.322 -17.239  0.00  0.00    -0.247 OA
ATOM     24  N   UNL     1      33.382 -23.064 -16.692  0.00  0.00    -0.280 N 
ATOM     25  N   UNL     1      31.810 -22.977 -15.053  0.00  0.00    -0.305 N 
ATOM     26  C   UNL     1      33.970 -23.494 -15.491  0.00  0.00    +0.079 A 
ATOM     27  C   UNL     1      32.018 -22.732 -16.440  0.00  0.00    +0.328 A 
ATOM     28  C   UNL     1      33.001 -23.437 -14.491  0.00  0.00    +0.076 A 
ATOM     29  C   UNL     1      35.256 -23.917 -15.225  0.00  0.00    +0.019 C 
ATOM     30  C   UNL     1      33.262 -23.797 -13.188  0.00  0.00    +0.019 C 
ATOM     31  C   UNL     1      35.546 -24.288 -13.908  0.00  0.00    +0.002 C 
ATOM     32  C   UNL     1      34.560 -24.229 -12.901  0.00  0.00    +0.002 C 
ATOM     33  H   UNL     1      30.963 -22.842 -14.568  0.00  0.00    +0.170 HD
ENDBRANCH  22  24
ENDBRANCH  21  22
ENDBRANCH  20  21
ENDBRANCH   1  20
TORSDOF 5
ENDMDL
MODEL 8
REMARK VINA RESULT:     -11.2      4.038      7.152
REMARK  Name = 3151
REMARK  5 active torsions:
REMARK  status: ('A' for Active; 'I' for Inactive)
REMARK    1  A    between atoms: N_1  and  C_20
REMARK    2  A    between atoms: C_2  and  N_10
REMARK    3  A    between atoms: C_20  and  C_21
REMARK    4  A    between atoms: C_21  and  C_22
REMARK    5  A    between atoms: C_22  and  N_24
REMARK                            x       y       z     vdW  Elec       q    Type
REMARK                         _______ _______ _______ _____ _____    ______ ____
ROOT
ATOM      1  N   UNL     1      35.649 -21.179 -19.712  0.00  0.00    +0.387 N 
ATOM      2  C   UNL     1      35.261 -18.664 -21.153  0.00  0.00    +0.086 C 
ATOM      3  C   UNL     1      34.164 -19.723 -21.052  0.00  0.00    -0.000 C 
ATOM      4  C   UNL     1      36.637 -19.311 -20.996  0.00  0.00    -0.000 C 
ATOM      5  C   UNL     1      34.317 -20.561 -19.781  0.00  0.00    -0.075 C 
ATOM      6  C   UNL     1      36.708 -20.161 -19.726  0.00  0.00    -0.075 C 
ATOM      7  H   UNL     1      35.766 -21.767 -20.535  0.00  0.00    -0.080 HD
ENDROOT
BRANCH   2  10
ATOM      8 CL   UNL     1      34.489 -12.296 -23.787  0.00  0.00    -0.082 Cl
ATOM      9  O   UNL     1      35.354 -19.675 -24.017  0.00  0.00    -0.247 OA
ATOM     10  N   UNL     1      35.165 -17.944 -22.399  0.00  0.00    -0.282 N 
ATOM     11  N   UNL     1      35.081 -17.399 -24.598  0.00  0.00    -0.305 N 
ATOM     12  C   UNL     1      35.001 -16.555 -22.497  0.00  0.00    +0.079 A 
ATOM     13  C   UNL     1      35.219 -18.500 -23.705  0.00  0.00    +0.328 A 
ATOM     14  C   UNL     1      34.950 -16.228 -23.850  0.00  0.00    +0.077 A 
ATOM     15  C   UNL     1      34.897 -15.590 -21.517  0.00  0.00    +0.020 C 
ATOM     16  C   UNL     1      34.795 -14.933 -24.292  0.00  0.00    +0.030 C 
ATOM     17  C   UNL     1      34.737 -14.267 -21.940  0.00  0.00    +0.013 C 
ATOM     18  C   UNL     1      34.687 -13.942 -23.312  0.00  0.00    +0.059 C 
ATOM     19  H   UNL     1      35.080 -17.455 -25.580  0.00  0.00    +0.170 HD
ENDBRANCH   2  10
BRANCH   1  20
ATOM     20  C   UNL     1      35.762 -22.016 -18.516  0.00  0.00    -0.075 C 
BRANCH  20  21
ATOM     21  C   UNL     1      36.969 -21.627 -17.658  0.00  0.00    +0.002 C 
BRANCH  21  22
ATOM     22  C   UNL     1      36.690 -21.590 -16.157  0.00  0.00    +0.108 C 
BRANCH  22  24
ATOM     23  O   UNL     1      33.961 -22.810 -15.737  0.00  0.00    -0.247 OA
ATOM     24  N   UNL     1      36.337 -22.880 -15.629  0.00  0.00    -0.280 N 
ATOM     25  N   UNL     1      35.150 -24.681 -14.915  0.00  0.00    -0.305 N 
ATOM     26  C   UNL     1      37.242 -23.860 -15.190  0.00  0.00    +0.079 A 
ATOM     27  C   UNL     1      35.011 -23.376 -15.465  0.00  0.00    +0.328 A 
ATOM     28  C   UNL     1      36.507 -24.961 -14.753  0.00  0.00    +0.076 A 
ATOM     29  C   UNL     1      38.621 -23.852 -15.148  0.00  0.00    +0.019 C 
ATOM     30  C   UNL     1      37.104 -26.099 -14.259  0.00  0.00    +0.019 C 
ATOM     31  C   UNL     1      39.251 -24.997 -14.649  0.00  0.00    +0.002 C 
ATOM     32  C   UNL     1      38.501 -26.108 -14.210  0.00  0.00    +0.002 C 
ATOM     33  H   UNL     1      34.408 -25.288 -14.685  0.00  0.00    +0.170 HD
ENDBRANCH  22  24
ENDBRANCH  21  22
ENDBRANCH  20  21
ENDBRANCH   1  20
TORSDOF 5
ENDMDL
MODEL 9
REMARK VINA RESULT:     -11.2      5.316     11.262
REMARK  Name = 3151
REMARK  5 active torsions:
REMARK  status: ('A' for Active; 'I' for Inactive)
REMARK    1  A    between atoms: N_1  and  C_20
REMARK    2  A    between atoms: C_2  and  N_10
REMARK    3  A    between atoms: C_20  and  C_21
REMARK    4  A    between atoms: C_21  and  C_22
REMARK    5  A    between atoms: C_22  and  N_24
REMARK                            x       y       z     vdW  Elec       q    Type
REMARK                         _______ _______ _______ _____ _____    ______ ____
ROOT
ATOM      1  N   UNL     1      35.229 -20.236 -20.014  0.00  0.00    +0.387 N 
ATOM      2  C   UNL     1      34.132 -22.300 -18.255  0.00  0.00    +0.086 C 
ATOM      3  C   UNL     1      33.250 -21.247 -18.926  0.00  0.00    -0.000 C 
ATOM      4  C   UNL     1      35.561 -21.776 -18.108  0.00  0.00    -0.000 C 
ATOM      5  C   UNL     1      33.872 -20.755 -20.235  0.00  0.00    -0.075 C 
ATOM      6  C   UNL     1      36.106 -21.268 -19.444  0.00  0.00    -0.075 C 
ATOM      7  H   UNL     1      35.168 -19.470 -19.345  0.00  0.00    -0.080 HD
ENDROOT
BRANCH   2  10
ATOM      8 CL   UNL     1      35.935 -24.614 -11.973  0.00  0.00    -0.082 Cl
ATOM      9  O   UNL     1      31.252 -22.366 -17.289  0.00  0.00    -0.247 OA
ATOM     10  N   UNL     1      33.587 -22.687 -16.978  0.00  0.00    -0.282 N 
ATOM     11  N   UNL     1      32.182 -23.146 -15.259  0.00  0.00    -0.305 N 
ATOM     12  C   UNL     1      34.357 -23.129 -15.893  0.00  0.00    +0.079 A 
ATOM     13  C   UNL     1      32.215 -22.688 -16.607  0.00  0.00    +0.328 A 
ATOM     14  C   UNL     1      33.487 -23.409 -14.841  0.00  0.00    +0.077 A 
ATOM     15  C   UNL     1      35.720 -23.297 -15.765  0.00  0.00    +0.020 C 
ATOM     16  C   UNL     1      33.928 -23.867 -13.620  0.00  0.00    +0.030 C 
ATOM     17  C   UNL     1      36.193 -23.762 -14.534  0.00  0.00    +0.013 C 
ATOM     18  C   UNL     1      35.306 -24.043 -13.473  0.00  0.00    +0.059 C 
ATOM     19  H   UNL     1      31.371 -23.258 -14.713  0.00  0.00    +0.170 HD
ENDBRANCH   2  10
BRANCH   1  20
ATOM     20  C   UNL     1      35.790 -19.724 -21.266  0.00  0.00    -0.075 C 
BRANCH  20  21
ATOM     21  C   UNL     1      35.037 -18.487 -21.765  0.00  0.00    +0.002 C 
BRANCH  21  22
ATOM     22  C   UNL     1      35.934 -17.389 -22.333  0.00  0.00    +0.108 C 
BRANCH  22  24
ATOM     23  O   UNL     1      35.196 -17.350 -25.260  0.00  0.00    -0.247 OA
ATOM     24  N   UNL     1      35.196 -16.405 -23.077  0.00  0.00    -0.280 N 
ATOM     25  N   UNL     1      34.154 -15.287 -24.759  0.00  0.00    -0.305 N 
ATOM     26  C   UNL     1      34.655 -15.219 -22.552  0.00  0.00    +0.079 A 
ATOM     27  C   UNL     1      34.892 -16.468 -24.468  0.00  0.00    +0.328 A 
ATOM     28  C   UNL     1      34.018 -14.539 -23.588  0.00  0.00    +0.076 A 
ATOM     29  C   UNL     1      34.683 -14.713 -21.268  0.00  0.00    +0.019 C 
ATOM     30  C   UNL     1      33.383 -13.333 -23.400  0.00  0.00    +0.019 C 
ATOM     31  C   UNL     1      34.044 -13.488 -21.052  0.00  0.00    +0.002 C 
ATOM     32  C   UNL     1      33.400 -12.805 -22.106  0.00  0.00    +0.002 C 
ATOM     33  H   UNL     1      33.798 -15.037 -25.643  0.00  0.00    +0.170 HD
ENDBRANCH  22  24
ENDBRANCH  21  22
ENDBRANCH  20  21
ENDBRANCH   1  20
TORSDOF 5
ENDMDL
