MODEL 1
REMARK VINA RESULT:     -11.4      0.000      0.000
REMARK  Name = 6450813
REMARK  4 active torsions:
REMARK  status: ('A' for Active; 'I' for Inactive)
REMARK    1  A    between atoms: C_4  and  C_10
REMARK    2  A    between atoms: C_6  and  C_22
REMARK    3  A    between atoms: C_12  and  N_17
REMARK    4  A    between atoms: C_22  and  C_24
REMARK                            x       y       z     vdW  Elec       q    Type
REMARK                         _______ _______ _______ _____ _____    ______ ____
ROOT
ATOM      1  N   UNL     1      35.005 -15.864 -22.442  0.00  0.00    -0.191 N 
ATOM      2  N   UNL     1      35.041 -15.343 -21.183  0.00  0.00    -0.179 NA
ATOM      3  N   UNL     1      34.491 -15.183 -24.698  0.00  0.00    -0.231 NA
ATOM      4  C   UNL     1      35.299 -17.179 -22.842  0.00  0.00    +0.143 C 
ATOM      5  C   UNL     1      34.609 -14.897 -23.371  0.00  0.00    +0.141 C 
ATOM      6  C   UNL     1      34.401 -13.735 -22.663  0.00  0.00    +0.161 C 
ATOM      7  C   UNL     1      35.195 -17.504 -24.142  0.00  0.00    +0.020 C 
ATOM      8  C   UNL     1      34.680 -14.070 -21.333  0.00  0.00    +0.106 C 
ATOM      9  C   UNL     1      34.766 -16.404 -25.040  0.00  0.00    +0.097 C 
ENDROOT
BRANCH   4  10
ATOM     10  C   UNL     1      35.731 -18.205 -21.876  0.00  0.00    +0.003 C 
ATOM     11  C   UNL     1      34.788 -19.038 -21.272  0.00  0.00    +0.013 C 
ATOM     12  C   UNL     1      35.196 -20.010 -20.360  0.00  0.00    +0.054 C 
ATOM     13  C   UNL     1      37.083 -18.346 -21.566  0.00  0.00    -0.002 C 
ATOM     14  C   UNL     1      36.549 -20.149 -20.049  0.00  0.00    +0.015 C 
ATOM     15  C   UNL     1      37.493 -19.317 -20.652  0.00  0.00    +0.001 C 
BRANCH  12  17
ATOM     16  O   UNL     1      35.762 -22.168 -18.515  0.00  0.00    -0.275 OA
ATOM     17  N   UNL     1      34.253 -20.842 -19.755  0.00  0.00    -0.257 N 
ATOM     18  C   UNL     1      32.805 -20.591 -20.024  0.00  0.00    +0.120 C 
ATOM     19  C   UNL     1      34.602 -21.873 -18.816  0.00  0.00    +0.230 C 
ATOM     20  C   UNL     1      33.483 -22.619 -18.126  0.00  0.00    +0.095 C 
ENDBRANCH  12  17
ENDBRANCH   4  10
BRANCH   6  22
ATOM     21  O   UNL     1      34.457 -12.032 -24.273  0.00  0.00    -0.290 OA
ATOM     22  C   UNL     1      33.985 -12.479 -23.209  0.00  0.00    +0.191 C 
BRANCH  22  24
ATOM     23  S   UNL     1      32.839 -10.055 -22.812  0.00  0.00    -0.084 S 
ATOM     24  C   UNL     1      32.957 -11.703 -22.475  0.00  0.00    +0.065 C 
ATOM     25  C   UNL     1      32.094 -12.169 -21.557  0.00  0.00    +0.010 C 
ATOM     26  C   UNL     1      31.265 -11.114 -21.080  0.00  0.00    +0.008 C 
ATOM     27  C   UNL     1      31.563  -9.910 -21.679  0.00  0.00    +0.036 C 
ENDBRANCH  22  24
ENDBRANCH   6  22
TORSDOF 4
ENDMDL
MODEL 2
REMARK VINA RESULT:     -11.2      3.206      8.809
REMARK  Name = 6450813
REMARK  4 active torsions:
REMARK  status: ('A' for Active; 'I' for Inactive)
REMARK    1  A    between atoms: C_4  and  C_10
REMARK    2  A    between atoms: C_6  and  C_22
REMARK    3  A    between atoms: C_12  and  N_17
REMARK    4  A    between atoms: C_22  and  C_24
REMARK                            x       y       z     vdW  Elec       q    Type
REMARK                         _______ _______ _______ _____ _____    ______ ____
ROOT
ATOM      1  N   UNL     1      35.073 -15.755 -22.749  0.00  0.00    -0.191 N 
ATOM      2  N   UNL     1      35.398 -16.380 -23.915  0.00  0.00    -0.179 NA
ATOM      3  N   UNL     1      35.066 -16.182 -20.375  0.00  0.00    -0.231 NA
ATOM      4  C   UNL     1      34.546 -14.463 -22.578  0.00  0.00    +0.143 C 
ATOM      5  C   UNL     1      35.321 -16.585 -21.651  0.00  0.00    +0.141 C 
ATOM      6  C   UNL     1      35.826 -17.762 -22.156  0.00  0.00    +0.161 C 
ATOM      7  C   UNL     1      34.280 -14.026 -21.336  0.00  0.00    +0.020 C 
ATOM      8  C   UNL     1      35.849 -17.577 -23.543  0.00  0.00    +0.106 C 
ATOM      9  C   UNL     1      34.579 -14.987 -20.246  0.00  0.00    +0.097 C 
ENDROOT
BRANCH   4  10
ATOM     10  C   UNL     1      34.291 -13.572 -23.725  0.00  0.00    +0.003 C 
ATOM     11  C   UNL     1      34.668 -12.229 -23.663  0.00  0.00    +0.013 C 
ATOM     12  C   UNL     1      34.428 -11.386 -24.747  0.00  0.00    +0.054 C 
ATOM     13  C   UNL     1      33.674 -14.070 -24.872  0.00  0.00    -0.002 C 
ATOM     14  C   UNL     1      33.810 -11.885 -25.895  0.00  0.00    +0.015 C 
ATOM     15  C   UNL     1      33.433 -13.227 -25.957  0.00  0.00    +0.001 C 
BRANCH  12  17
ATOM     16  O   UNL     1      33.149  -9.328 -23.164  0.00  0.00    -0.275 OA
ATOM     17  N   UNL     1      34.804 -10.044 -24.687  0.00  0.00    -0.257 N 
ATOM     18  C   UNL     1      36.005  -9.604 -25.461  0.00  0.00    +0.120 C 
ATOM     19  C   UNL     1      34.146  -9.080 -23.847  0.00  0.00    +0.230 C 
ATOM     20  C   UNL     1      34.729  -7.688 -23.765  0.00  0.00    +0.095 C 
ENDBRANCH  12  17
ENDBRANCH   4  10
BRANCH   6  22
ATOM     21  O   UNL     1      37.423 -19.215 -21.244  0.00  0.00    -0.290 OA
ATOM     22  C   UNL     1      36.225 -18.904 -21.391  0.00  0.00    +0.191 C 
BRANCH  22  24
ATOM     23  S   UNL     1      35.655 -20.940 -19.696  0.00  0.00    -0.084 S 
ATOM     24  C   UNL     1      35.166 -19.726 -20.758  0.00  0.00    +0.065 C 
ATOM     25  C   UNL     1      33.839 -19.613 -20.936  0.00  0.00    +0.010 C 
ATOM     26  C   UNL     1      33.153 -20.584 -20.153  0.00  0.00    +0.008 C 
ATOM     27  C   UNL     1      34.020 -21.373 -19.429  0.00  0.00    +0.036 C 
ENDBRANCH  22  24
ENDBRANCH   6  22
TORSDOF 4
ENDMDL
MODEL 3
REMARK VINA RESULT:     -10.9      3.896      9.447
REMARK  Name = 6450813
REMARK  4 active torsions:
REMARK  status: ('A' for Active; 'I' for Inactive)
REMARK    1  A    between atoms: C_4  and  C_10
REMARK    2  A    between atoms: C_6  and  C_22
REMARK    3  A    between atoms: C_12  and  N_17
REMARK    4  A    between atoms: C_22  and  C_24
REMARK                            x       y       z     vdW  Elec       q    Type
REMARK                         _______ _______ _______ _____ _____    ______ ____
ROOT
ATOM      1  N   UNL     1      34.232 -12.837 -24.541  0.00  0.00    -0.191 N 
ATOM      2  N   UNL     1      34.789 -13.000 -23.308  0.00  0.00    -0.179 NA
ATOM      3  N   UNL     1      33.371 -14.168 -26.359  0.00  0.00    -0.231 NA
ATOM      4  C   UNL     1      33.970 -11.634 -25.218  0.00  0.00    +0.143 C 
ATOM      5  C   UNL     1      33.930 -14.073 -25.120  0.00  0.00    +0.141 C 
ATOM      6  C   UNL     1      34.306 -15.035 -24.209  0.00  0.00    +0.161 C 
ATOM      7  C   UNL     1      33.419 -11.681 -26.443  0.00  0.00    +0.020 C 
ATOM      8  C   UNL     1      34.824 -14.319 -23.124  0.00  0.00    +0.106 C 
ATOM      9  C   UNL     1      33.141 -13.043 -26.963  0.00  0.00    +0.097 C 
ENDROOT
BRANCH   4  10
ATOM     10  C   UNL     1      34.270 -10.322 -24.615  0.00  0.00    +0.003 C 
ATOM     11  C   UNL     1      33.304  -9.667 -23.850  0.00  0.00    +0.013 C 
ATOM     12  C   UNL     1      33.588  -8.427 -23.279  0.00  0.00    +0.054 C 
ATOM     13  C   UNL     1      35.521  -9.736 -24.808  0.00  0.00    -0.002 C 
ATOM     14  C   UNL     1      34.839  -7.841 -23.473  0.00  0.00    +0.015 C 
ATOM     15  C   UNL     1      35.806  -8.495 -24.238  0.00  0.00    +0.001 C 
BRANCH  12  17
ATOM     16  O   UNL     1      32.316  -5.911 -23.935  0.00  0.00    -0.275 OA
ATOM     17  N   UNL     1      32.622  -7.771 -22.515  0.00  0.00    -0.257 N 
ATOM     18  C   UNL     1      32.142  -8.425 -21.260  0.00  0.00    +0.120 C 
ATOM     19  C   UNL     1      32.003  -6.538 -22.920  0.00  0.00    +0.230 C 
ATOM     20  C   UNL     1      30.874  -5.995 -22.075  0.00  0.00    +0.095 C 
ENDBRANCH  12  17
ENDBRANCH   4  10
BRANCH   6  22
ATOM     21  O   UNL     1      33.529 -16.948 -25.319  0.00  0.00    -0.290 OA
ATOM     22  C   UNL     1      34.179 -16.451 -24.379  0.00  0.00    +0.191 C 
BRANCH  22  24
ATOM     23  S   UNL     1      34.575 -18.993 -23.529  0.00  0.00    -0.084 S 
ATOM     24  C   UNL     1      34.853 -17.336 -23.399  0.00  0.00    +0.065 C 
ATOM     25  C   UNL     1      35.674 -16.963 -22.402  0.00  0.00    +0.010 C 
ATOM     26  C   UNL     1      36.119 -18.105 -21.678  0.00  0.00    +0.008 C 
ATOM     27  C   UNL     1      35.598 -19.275 -22.184  0.00  0.00    +0.036 C 
ENDBRANCH  22  24
ENDBRANCH   6  22
TORSDOF 4
ENDMDL
MODEL 4
REMARK VINA RESULT:     -10.7      4.708     10.116
REMARK  Name = 6450813
REMARK  4 active torsions:
REMARK  status: ('A' for Active; 'I' for Inactive)
REMARK    1  A    between atoms: C_4  and  C_10
REMARK    2  A    between atoms: C_6  and  C_22
REMARK    3  A    between atoms: C_12  and  N_17
REMARK    4  A    between atoms: C_22  and  C_24
REMARK                            x       y       z     vdW  Elec       q    Type
REMARK                         _______ _______ _______ _____ _____    ______ ____
ROOT
ATOM      1  N   UNL     1      35.908 -21.332 -18.313  0.00  0.00    -0.191 N 
ATOM      2  N   UNL     1      37.153 -20.976 -17.889  0.00  0.00    -0.179 NA
ATOM      3  N   UNL     1      34.062 -22.724 -17.626  0.00  0.00    -0.231 NA
ATOM      4  C   UNL     1      35.243 -20.923 -19.482  0.00  0.00    +0.143 C 
ATOM      5  C   UNL     1      35.310 -22.219 -17.414  0.00  0.00    +0.141 C 
ATOM      6  C   UNL     1      36.213 -22.412 -16.393  0.00  0.00    +0.161 C 
ATOM      7  C   UNL     1      34.011 -21.397 -19.731  0.00  0.00    +0.020 C 
ATOM      8  C   UNL     1      37.319 -21.627 -16.739  0.00  0.00    +0.106 C 
ATOM      9  C   UNL     1      33.471 -22.333 -18.713  0.00  0.00    +0.097 C 
ENDROOT
BRANCH   4  10
ATOM     10  C   UNL     1      35.856 -19.978 -20.433  0.00  0.00    +0.003 C 
ATOM     11  C   UNL     1      35.081 -19.399 -21.439  0.00  0.00    +0.013 C 
ATOM     12  C   UNL     1      35.660 -18.504 -22.338  0.00  0.00    +0.054 C 
ATOM     13  C   UNL     1      37.209 -19.661 -20.327  0.00  0.00    -0.002 C 
ATOM     14  C   UNL     1      37.015 -18.188 -22.232  0.00  0.00    +0.015 C 
ATOM     15  C   UNL     1      37.790 -18.766 -21.226  0.00  0.00    +0.001 C 
BRANCH  12  17
ATOM     16  O   UNL     1      35.404 -15.671 -22.876  0.00  0.00    -0.275 OA
ATOM     17  N   UNL     1      34.887 -17.925 -23.346  0.00  0.00    -0.257 N 
ATOM     18  C   UNL     1      34.149 -18.826 -24.283  0.00  0.00    +0.120 C 
ATOM     19  C   UNL     1      34.835 -16.508 -23.581  0.00  0.00    +0.230 C 
ATOM     20  C   UNL     1      34.069 -16.012 -24.786  0.00  0.00    +0.095 C 
ENDBRANCH  12  17
ENDBRANCH   4  10
BRANCH   6  22
ATOM     21  O   UNL     1      35.036 -23.121 -14.494  0.00  0.00    -0.290 OA
ATOM     22  C   UNL     1      36.022 -23.246 -15.246  0.00  0.00    +0.191 C 
BRANCH  22  24
ATOM     23  S   UNL     1      36.527 -25.894 -14.963  0.00  0.00    -0.084 S 
ATOM     24  C   UNL     1      37.039 -24.287 -14.962  0.00  0.00    +0.065 C 
ATOM     25  C   UNL     1      38.343 -24.096 -14.700  0.00  0.00    +0.010 C 
ATOM     26  C   UNL     1      38.990 -25.345 -14.480  0.00  0.00    +0.008 C 
ATOM     27  C   UNL     1      38.119 -26.406 -14.593  0.00  0.00    +0.036 C 
ENDBRANCH  22  24
ENDBRANCH   6  22
TORSDOF 4
ENDMDL
MODEL 5
REMARK VINA RESULT:     -10.7      4.238      7.369
REMARK  Name = 6450813
REMARK  4 active torsions:
REMARK  status: ('A' for Active; 'I' for Inactive)
REMARK    1  A    between atoms: C_4  and  C_10
REMARK    2  A    between atoms: C_6  and  C_22
REMARK    3  A    between atoms: C_12  and  N_17
REMARK    4  A    between atoms: C_22  and  C_24
REMARK                            x       y       z     vdW  Elec       q    Type
REMARK                         _______ _______ _______ _____ _____    ______ ____
ROOT
ATOM      1  N   UNL     1      33.483  -9.417 -23.375  0.00  0.00    -0.191 N 
ATOM      2  N   UNL     1      32.299  -9.876 -22.879  0.00  0.00    -0.179 NA
ATOM      3  N   UNL     1      34.840  -7.424 -23.336  0.00  0.00    -0.231 NA
ATOM      4  C   UNL     1      34.395 -10.095 -24.201  0.00  0.00    +0.143 C 
ATOM      5  C   UNL     1      33.720  -8.103 -22.961  0.00  0.00    +0.141 C 
ATOM      6  C   UNL     1      32.650  -7.740 -22.174  0.00  0.00    +0.161 C 
ATOM      7  C   UNL     1      35.513  -9.462 -24.596  0.00  0.00    +0.020 C 
ATOM      8  C   UNL     1      31.816  -8.863 -22.162  0.00  0.00    +0.106 C 
ATOM      9  C   UNL     1      35.665  -8.071 -24.100  0.00  0.00    +0.097 C 
ENDROOT
BRANCH   4  10
ATOM     10  C   UNL     1      34.164 -11.485 -24.635  0.00  0.00    +0.003 C 
ATOM     11  C   UNL     1      34.510 -12.545 -23.796  0.00  0.00    +0.013 C 
ATOM     12  C   UNL     1      34.291 -13.860 -24.206  0.00  0.00    +0.054 C 
ATOM     13  C   UNL     1      33.600 -11.741 -25.884  0.00  0.00    -0.002 C 
ATOM     14  C   UNL     1      33.727 -14.116 -25.456  0.00  0.00    +0.015 C 
ATOM     15  C   UNL     1      33.381 -13.056 -26.296  0.00  0.00    +0.001 C 
BRANCH  12  17
ATOM     16  O   UNL     1      35.185 -16.480 -25.053  0.00  0.00    -0.275 OA
ATOM     17  N   UNL     1      34.637 -14.921 -23.368  0.00  0.00    -0.257 N 
ATOM     18  C   UNL     1      34.602 -14.701 -21.890  0.00  0.00    +0.120 C 
ATOM     19  C   UNL     1      35.111 -16.187 -23.857  0.00  0.00    +0.230 C 
ATOM     20  C   UNL     1      35.583 -17.210 -22.850  0.00  0.00    +0.095 C 
ENDBRANCH  12  17
ENDBRANCH   4  10
BRANCH   6  22
ATOM     21  O   UNL     1      32.556  -6.343 -20.294  0.00  0.00    -0.290 OA
ATOM     22  C   UNL     1      32.470  -6.474 -21.530  0.00  0.00    +0.191 C 
BRANCH  22  24
ATOM     23  S   UNL     1      31.554  -5.580 -23.920  0.00  0.00    -0.084 S 
ATOM     24  C   UNL     1      32.175  -5.294 -22.378  0.00  0.00    +0.065 C 
ATOM     25  C   UNL     1      32.348  -4.001 -22.055  0.00  0.00    +0.010 C 
ATOM     26  C   UNL     1      31.948  -3.166 -23.137  0.00  0.00    +0.008 C 
ATOM     27  C   UNL     1      31.496  -3.894 -24.214  0.00  0.00    +0.036 C 
ENDBRANCH  22  24
ENDBRANCH   6  22
TORSDOF 4
ENDMDL
MODEL 6
REMARK VINA RESULT:     -10.6      3.315      8.318
REMARK  Name = 6450813
REMARK  4 active torsions:
REMARK  status: ('A' for Active; 'I' for Inactive)
REMARK    1  A    between atoms: C_4  and  C_10
REMARK    2  A    between atoms: C_6  and  C_22
REMARK    3  A    between atoms: C_12  and  N_17
REMARK    4  A    between atoms: C_22  and  C_24
REMARK                            x       y       z     vdW  Elec       q    Type
REMARK                         _______ _______ _______ _____ _____    ______ ____
ROOT
ATOM      1  N   UNL     1      34.286 -13.922 -24.150  0.00  0.00    -0.191 N 
ATOM      2  N   UNL     1      34.953 -13.957 -22.963  0.00  0.00    -0.179 NA
ATOM      3  N   UNL     1      33.537 -15.425 -25.881  0.00  0.00    -0.231 NA
ATOM      4  C   UNL     1      33.768 -12.799 -24.818  0.00  0.00    +0.143 C 
ATOM      5  C   UNL     1      34.162 -15.205 -24.691  0.00  0.00    +0.141 C 
ATOM      6  C   UNL     1      34.766 -16.065 -23.801  0.00  0.00    +0.161 C 
ATOM      7  C   UNL     1      33.144 -12.971 -25.996  0.00  0.00    +0.020 C 
ATOM      8  C   UNL     1      35.231 -15.245 -22.768  0.00  0.00    +0.106 C 
ATOM      9  C   UNL     1      33.070 -14.372 -26.478  0.00  0.00    +0.097 C 
ENDROOT
BRANCH   4  10
ATOM     10  C   UNL     1      33.879 -11.441 -24.254  0.00  0.00    +0.003 C 
ATOM     11  C   UNL     1      33.058 -11.055 -23.194  0.00  0.00    +0.013 C 
ATOM     12  C   UNL     1      33.163  -9.772 -22.660  0.00  0.00    +0.054 C 
ATOM     13  C   UNL     1      34.806 -10.542 -24.780  0.00  0.00    -0.002 C 
ATOM     14  C   UNL     1      34.090  -8.872 -23.187  0.00  0.00    +0.015 C 
ATOM     15  C   UNL     1      34.912  -9.257 -24.247  0.00  0.00    +0.001 C 
BRANCH  12  17
ATOM     16  O   UNL     1      32.201 -11.486 -20.535  0.00  0.00    -0.275 OA
ATOM     17  N   UNL     1      32.342  -9.385 -21.600  0.00  0.00    -0.257 N 
ATOM     18  C   UNL     1      31.944  -7.948 -21.496  0.00  0.00    +0.120 C 
ATOM     19  C   UNL     1      31.931 -10.282 -20.555  0.00  0.00    +0.230 C 
ATOM     20  C   UNL     1      31.154  -9.714 -19.390  0.00  0.00    +0.095 C 
ENDBRANCH  12  17
ENDBRANCH   4  10
BRANCH   6  22
ATOM     21  O   UNL     1      34.695 -18.054 -25.040  0.00  0.00    -0.290 OA
ATOM     22  C   UNL     1      34.876 -17.485 -23.946  0.00  0.00    +0.191 C 
BRANCH  22  24
ATOM     23  S   UNL     1      36.829 -18.277 -22.241  0.00  0.00    -0.084 S 
ATOM     24  C   UNL     1      35.220 -18.285 -22.746  0.00  0.00    +0.065 C 
ATOM     25  C   UNL     1      34.384 -19.029 -22.002  0.00  0.00    +0.010 C 
ATOM     26  C   UNL     1      35.093 -19.646 -20.933  0.00  0.00    +0.008 C 
ATOM     27  C   UNL     1      36.432 -19.323 -20.944  0.00  0.00    +0.036 C 
ENDBRANCH  22  24
ENDBRANCH   6  22
TORSDOF 4
ENDMDL
MODEL 7
REMARK VINA RESULT:     -10.5      3.260      5.545
REMARK  Name = 6450813
REMARK  4 active torsions:
REMARK  status: ('A' for Active; 'I' for Inactive)
REMARK    1  A    between atoms: C_4  and  C_10
REMARK    2  A    between atoms: C_6  and  C_22
REMARK    3  A    between atoms: C_12  and  N_17
REMARK    4  A    between atoms: C_22  and  C_24
REMARK                            x       y       z     vdW  Elec       q    Type
REMARK                         _______ _______ _______ _____ _____    ______ ____
ROOT
ATOM      1  N   UNL     1      35.612 -20.191 -19.946  0.00  0.00    -0.191 N 
ATOM      2  N   UNL     1      36.925 -19.828 -19.940  0.00  0.00    -0.179 NA
ATOM      3  N   UNL     1      33.608 -19.812 -21.233  0.00  0.00    -0.231 NA
ATOM      4  C   UNL     1      34.942 -21.026 -19.036  0.00  0.00    +0.143 C 
ATOM      5  C   UNL     1      34.937 -19.603 -21.020  0.00  0.00    +0.141 C 
ATOM      6  C   UNL     1      35.868 -18.857 -21.707  0.00  0.00    +0.161 C 
ATOM      7  C   UNL     1      33.629 -21.258 -19.208  0.00  0.00    +0.020 C 
ATOM      8  C   UNL     1      37.062 -19.033 -21.000  0.00  0.00    +0.106 C 
ATOM      9  C   UNL     1      33.012 -20.584 -20.377  0.00  0.00    +0.097 C 
ENDROOT
BRANCH   4  10
ATOM     10  C   UNL     1      35.643 -21.664 -17.907  0.00  0.00    +0.003 C 
ATOM     11  C   UNL     1      34.948 -22.510 -17.041  0.00  0.00    +0.013 C 
ATOM     12  C   UNL     1      35.611 -23.114 -15.973  0.00  0.00    +0.054 C 
ATOM     13  C   UNL     1      37.001 -21.423 -17.703  0.00  0.00    -0.002 C 
ATOM     14  C   UNL     1      36.970 -22.872 -15.770  0.00  0.00    +0.015 C 
ATOM     15  C   UNL     1      37.665 -22.026 -16.635  0.00  0.00    +0.001 C 
BRANCH  12  17
ATOM     16  O   UNL     1      33.018 -22.593 -14.796  0.00  0.00    -0.275 OA
ATOM     17  N   UNL     1      34.917 -23.959 -15.107  0.00  0.00    -0.257 N 
ATOM     18  C   UNL     1      35.518 -25.287 -14.774  0.00  0.00    +0.120 C 
ATOM     19  C   UNL     1      33.611 -23.654 -14.588  0.00  0.00    +0.230 C 
ATOM     20  C   UNL     1      32.905 -24.708 -13.767  0.00  0.00    +0.095 C 
ENDBRANCH  12  17
ENDBRANCH   4  10
BRANCH   6  22
ATOM     21  O   UNL     1      35.678 -18.576 -24.027  0.00  0.00    -0.290 OA
ATOM     22  C   UNL     1      35.622 -18.081 -22.884  0.00  0.00    +0.191 C 
BRANCH  22  24
ATOM     23  S   UNL     1      35.051 -15.736 -24.118  0.00  0.00    -0.084 S 
ATOM     24  C   UNL     1      35.288 -16.646 -22.718  0.00  0.00    +0.065 C 
ATOM     25  C   UNL     1      35.150 -15.975 -21.562  0.00  0.00    +0.010 C 
ATOM     26  C   UNL     1      34.826 -14.613 -21.819  0.00  0.00    +0.008 C 
ATOM     27  C   UNL     1      34.741 -14.346 -23.167  0.00  0.00    +0.036 C 
ENDBRANCH  22  24
ENDBRANCH   6  22
TORSDOF 4
ENDMDL
MODEL 8
REMARK VINA RESULT:     -10.4      1.132      1.294
REMARK  Name = 6450813
REMARK  4 active torsions:
REMARK  status: ('A' for Active; 'I' for Inactive)
REMARK    1  A    between atoms: C_4  and  C_10
REMARK    2  A    between atoms: C_6  and  C_22
REMARK    3  A    between atoms: C_12  and  N_17
REMARK    4  A    between atoms: C_22  and  C_24
REMARK                            x       y       z     vdW  Elec       q    Type
REMARK                         _______ _______ _______ _____ _____    ______ ____
ROOT
ATOM      1  N   UNL     1      34.990 -16.772 -22.826  0.00  0.00    -0.191 N 
ATOM      2  N   UNL     1      35.231 -15.941 -21.773  0.00  0.00    -0.179 NA
ATOM      3  N   UNL     1      34.214 -16.668 -25.107  0.00  0.00    -0.231 NA
ATOM      4  C   UNL     1      35.144 -18.167 -22.878  0.00  0.00    +0.143 C 
ATOM      5  C   UNL     1      34.531 -16.053 -23.933  0.00  0.00    +0.141 C 
ATOM      6  C   UNL     1      34.495 -14.729 -23.555  0.00  0.00    +0.161 C 
ATOM      7  C   UNL     1      34.842 -18.815 -24.017  0.00  0.00    +0.020 C 
ATOM      8  C   UNL     1      34.932 -14.724 -22.226  0.00  0.00    +0.106 C 
ATOM      9  C   UNL     1      34.363 -17.956 -25.128  0.00  0.00    +0.097 C 
ENDROOT
BRANCH   4  10
ATOM     10  C   UNL     1      35.639 -18.937 -21.723  0.00  0.00    +0.003 C 
ATOM     11  C   UNL     1      34.768 -19.756 -21.003  0.00  0.00    +0.013 C 
ATOM     12  C   UNL     1      35.237 -20.485 -19.911  0.00  0.00    +0.054 C 
ATOM     13  C   UNL     1      36.980 -18.848 -21.349  0.00  0.00    -0.002 C 
ATOM     14  C   UNL     1      36.578 -20.395 -19.537  0.00  0.00    +0.015 C 
ATOM     15  C   UNL     1      37.450 -19.576 -20.256  0.00  0.00    +0.001 C 
BRANCH  12  17
ATOM     16  O   UNL     1      35.970 -22.268 -17.751  0.00  0.00    -0.275 OA
ATOM     17  N   UNL     1      34.367 -21.304 -19.190  0.00  0.00    -0.257 N 
ATOM     18  C   UNL     1      32.907 -21.241 -19.504  0.00  0.00    +0.120 C 
ATOM     19  C   UNL     1      34.794 -22.139 -18.101  0.00  0.00    +0.230 C 
ATOM     20  C   UNL     1      33.738 -22.876 -17.310  0.00  0.00    +0.095 C 
ENDBRANCH  12  17
ENDBRANCH   4  10
BRANCH   6  22
ATOM     21  O   UNL     1      34.093 -13.696 -25.620  0.00  0.00    -0.290 OA
ATOM     22  C   UNL     1      34.087 -13.630 -24.376  0.00  0.00    +0.191 C 
BRANCH  22  24
ATOM     23  S   UNL     1      34.176 -10.921 -24.351  0.00  0.00    -0.084 S 
ATOM     24  C   UNL     1      33.642 -12.384 -23.705  0.00  0.00    +0.065 C 
ATOM     25  C   UNL     1      32.850 -12.285 -22.625  0.00  0.00    +0.010 C 
ATOM     26  C   UNL     1      32.652 -10.917 -22.283  0.00  0.00    +0.008 C 
ATOM     27  C   UNL     1      33.317 -10.068 -23.139  0.00  0.00    +0.036 C 
ENDBRANCH  22  24
ENDBRANCH   6  22
TORSDOF 4
ENDMDL
MODEL 9
REMARK VINA RESULT:     -10.4      3.430      8.860
REMARK  Name = 6450813
REMARK  4 active torsions:
REMARK  status: ('A' for Active; 'I' for Inactive)
REMARK    1  A    between atoms: C_4  and  C_10
REMARK    2  A    between atoms: C_6  and  C_22
REMARK    3  A    between atoms: C_12  and  N_17
REMARK    4  A    between atoms: C_22  and  C_24
REMARK                            x       y       z     vdW  Elec       q    Type
REMARK                         _______ _______ _______ _____ _____    ______ ____
ROOT
ATOM      1  N   UNL     1      34.602 -20.673 -19.851  0.00  0.00    -0.191 N 
ATOM      2  N   UNL     1      33.265 -20.608 -20.101  0.00  0.00    -0.179 NA
ATOM      3  N   UNL     1      36.138 -21.776 -18.353  0.00  0.00    -0.231 NA
ATOM      4  C   UNL     1      35.639 -19.986 -20.504  0.00  0.00    +0.143 C 
ATOM      5  C   UNL     1      34.869 -21.549 -18.794  0.00  0.00    +0.141 C 
ATOM      6  C   UNL     1      33.654 -22.050 -18.383  0.00  0.00    +0.161 C 
ATOM      7  C   UNL     1      36.906 -20.179 -20.100  0.00  0.00    +0.020 C 
ATOM      8  C   UNL     1      32.712 -21.438 -19.218  0.00  0.00    +0.106 C 
ATOM      9  C   UNL     1      37.076 -21.127 -18.971  0.00  0.00    +0.097 C 
ENDROOT
BRANCH   4  10
ATOM     10  C   UNL     1      35.374 -19.069 -21.628  0.00  0.00    +0.003 C 
ATOM     11  C   UNL     1      35.263 -17.697 -21.399  0.00  0.00    +0.013 C 
ATOM     12  C   UNL     1      35.014 -16.830 -22.462  0.00  0.00    +0.054 C 
ATOM     13  C   UNL     1      35.236 -19.573 -22.921  0.00  0.00    -0.002 C 
ATOM     14  C   UNL     1      34.875 -17.334 -23.755  0.00  0.00    +0.015 C 
ATOM     15  C   UNL     1      34.986 -18.706 -23.985  0.00  0.00    +0.001 C 
BRANCH  12  17
ATOM     16  O   UNL     1      34.792 -14.777 -24.492  0.00  0.00    -0.275 OA
ATOM     17  N   UNL     1      34.901 -15.457 -22.234  0.00  0.00    -0.257 N 
ATOM     18  C   UNL     1      34.837 -14.973 -20.822  0.00  0.00    +0.120 C 
ATOM     19  C   UNL     1      34.756 -14.494 -23.292  0.00  0.00    +0.230 C 
ATOM     20  C   UNL     1      34.508 -13.052 -22.914  0.00  0.00    +0.095 C 
ENDBRANCH  12  17
ENDBRANCH   4  10
BRANCH   6  22
ATOM     21  O   UNL     1      34.218 -23.947 -17.127  0.00  0.00    -0.290 OA
ATOM     22  C   UNL     1      33.445 -22.989 -17.323  0.00  0.00    +0.191 C 
BRANCH  22  24
ATOM     23  S   UNL     1      32.519 -22.917 -14.777  0.00  0.00    -0.084 S 
ATOM     24  C   UNL     1      32.270 -22.797 -16.440  0.00  0.00    +0.065 C 
ATOM     25  C   UNL     1      31.008 -22.533 -16.819  0.00  0.00    +0.010 C 
ATOM     26  C   UNL     1      30.165 -22.417 -15.677  0.00  0.00    +0.008 C 
ATOM     27  C   UNL     1      30.857 -22.603 -14.501  0.00  0.00    +0.036 C 
ENDBRANCH  22  24
ENDBRANCH   6  22
TORSDOF 4
ENDMDL
