MODEL 1
REMARK VINA RESULT:     -11.3      0.000      0.000
REMARK  Name = 25243828
REMARK  6 active torsions:
REMARK  status: ('A' for Active; 'I' for Inactive)
REMARK    1  A    between atoms: C_1  and  C_18
REMARK    2  A    between atoms: C_4  and  O_7
REMARK    3  A    between atoms: O_7  and  C_9
REMARK    4  A    between atoms: C_11  and  C_17
REMARK    5  A    between atoms: C_18  and  C_21
REMARK    6  A    between atoms: C_26  and  O_27
REMARK                            x       y       z     vdW  Elec       q    Type
REMARK                         _______ _______ _______ _____ _____    ______ ____
ROOT
ATOM      1  C   UNL     1      34.019 -23.267 -14.898  0.00  0.00    -0.019 C 
ATOM      2  C   UNL     1      34.184 -23.381 -16.279  0.00  0.00    +0.033 C 
ATOM      3  C   UNL     1      32.787 -22.876 -14.372  0.00  0.00    -0.004 C 
ATOM      4  C   UNL     1      33.117 -23.101 -17.133  0.00  0.00    +0.147 C 
ATOM      5  C   UNL     1      31.721 -22.597 -15.227  0.00  0.00    +0.003 C 
ATOM      6  C   UNL     1      31.885 -22.710 -16.608  0.00  0.00    +0.038 C 
ENDROOT
BRANCH   4   7
ATOM      7  O   UNL     1      33.278 -23.209 -18.481  0.00  0.00    -0.436 OA
BRANCH   7   9
ATOM      8  N   UNL     1      35.249 -22.202 -19.216  0.00  0.00    -0.210 NA
ATOM      9  C   UNL     1      33.900 -22.163 -19.141  0.00  0.00    +0.230 C 
ATOM     10  C   UNL     1      33.122 -21.152 -19.682  0.00  0.00    +0.058 C 
ATOM     11  C   UNL     1      35.158 -20.120 -20.440  0.00  0.00    +0.091 C 
ATOM     12  C   UNL     1      33.771 -20.114 -20.343  0.00  0.00    +0.010 C 
ATOM     13  C   UNL     1      35.845 -21.176 -19.865  0.00  0.00    +0.106 C 
BRANCH  11  17
ATOM     14  F   UNL     1      35.996 -19.211 -22.488  0.00  0.00    -0.166 F 
ATOM     15  F   UNL     1      35.287 -17.798 -21.003  0.00  0.00    -0.166 F 
ATOM     16  F   UNL     1      37.159 -18.858 -20.686  0.00  0.00    -0.166 F 
ATOM     17  C   UNL     1      35.881 -19.023 -21.139  0.00  0.00    +0.420 C 
ENDBRANCH  11  17
ENDBRANCH   7   9
ENDBRANCH   4   7
BRANCH   1  18
ATOM     18  C   UNL     1      35.168 -23.566 -13.975  0.00  0.00    +0.027 C 
BRANCH  18  21
ATOM     19  O   UNL     1      41.243 -24.554 -14.274  0.00  0.00    -0.226 OA
ATOM     20  N   UNL     1      39.062 -25.196 -14.769  0.00  0.00    -0.246 N 
ATOM     21  C   UNL     1      36.336 -24.208 -14.720  0.00  0.00    +0.008 C 
ATOM     22  C   UNL     1      37.545 -23.259 -14.765  0.00  0.00    +0.022 C 
ATOM     23  C   UNL     1      36.728 -25.546 -14.073  0.00  0.00    +0.022 C 
ATOM     24  C   UNL     1      38.749 -23.926 -15.429  0.00  0.00    +0.097 C 
ATOM     25  C   UNL     1      37.949 -26.155 -14.762  0.00  0.00    +0.097 C 
ATOM     26  C   UNL     1      40.339 -25.389 -14.233  0.00  0.00    +0.402 C 
BRANCH  26  27
ATOM     27  O   UNL     1      40.566 -26.588 -13.624  0.00  0.00    -0.466 OA
ATOM     28  H   UNL     1      40.224 -27.376 -13.999  0.00  0.00    +0.297 HD
ENDBRANCH  26  27
ENDBRANCH  18  21
ENDBRANCH   1  18
TORSDOF 6
ENDMDL
MODEL 2
REMARK VINA RESULT:     -11.0      3.246      5.859
REMARK  Name = 25243828
REMARK  6 active torsions:
REMARK  status: ('A' for Active; 'I' for Inactive)
REMARK    1  A    between atoms: C_1  and  C_18
REMARK    2  A    between atoms: C_4  and  O_7
REMARK    3  A    between atoms: O_7  and  C_9
REMARK    4  A    between atoms: C_11  and  C_17
REMARK    5  A    between atoms: C_18  and  C_21
REMARK    6  A    between atoms: C_26  and  O_27
REMARK                            x       y       z     vdW  Elec       q    Type
REMARK                         _______ _______ _______ _____ _____    ______ ____
ROOT
ATOM      1  C   UNL     1      33.679 -23.850 -14.629  0.00  0.00    -0.019 C 
ATOM      2  C   UNL     1      33.361 -23.873 -15.986  0.00  0.00    +0.033 C 
ATOM      3  C   UNL     1      34.792 -23.136 -14.184  0.00  0.00    -0.004 C 
ATOM      4  C   UNL     1      34.157 -23.182 -16.901  0.00  0.00    +0.147 C 
ATOM      5  C   UNL     1      35.587 -22.445 -15.098  0.00  0.00    +0.003 C 
ATOM      6  C   UNL     1      35.270 -22.467 -16.457  0.00  0.00    +0.038 C 
ENDROOT
BRANCH   4   7
ATOM      7  O   UNL     1      33.849 -23.206 -18.226  0.00  0.00    -0.436 OA
BRANCH   7   9
ATOM      8  N   UNL     1      35.610 -22.073 -19.254  0.00  0.00    -0.210 NA
ATOM      9  C   UNL     1      34.283 -22.148 -19.007  0.00  0.00    +0.230 C 
ATOM     10  C   UNL     1      33.353 -21.241 -19.486  0.00  0.00    +0.058 C 
ATOM     11  C   UNL     1      35.172 -20.079 -20.547  0.00  0.00    +0.091 C 
ATOM     12  C   UNL     1      33.814 -20.189 -20.272  0.00  0.00    +0.010 C 
ATOM     13  C   UNL     1      36.021 -21.038 -20.020  0.00  0.00    +0.106 C 
BRANCH  11  17
ATOM     14  F   UNL     1      35.406 -19.088 -22.712  0.00  0.00    -0.166 F 
ATOM     15  F   UNL     1      35.209 -17.736 -21.028  0.00  0.00    -0.166 F 
ATOM     16  F   UNL     1      37.055 -18.847 -21.317  0.00  0.00    -0.166 F 
ATOM     17  C   UNL     1      35.696 -18.964 -21.382  0.00  0.00    +0.420 C 
ENDBRANCH  11  17
ENDBRANCH   7   9
ENDBRANCH   4   7
BRANCH   1  18
ATOM     18  C   UNL     1      32.824 -24.596 -13.642  0.00  0.00    +0.027 C 
BRANCH  18  21
ATOM     19  O   UNL     1      28.407 -21.905 -16.992  0.00  0.00    -0.226 OA
ATOM     20  N   UNL     1      29.067 -23.442 -15.375  0.00  0.00    -0.246 N 
ATOM     21  C   UNL     1      31.353 -24.204 -13.762  0.00  0.00    +0.008 C 
ATOM     22  C   UNL     1      31.209 -22.793 -14.354  0.00  0.00    +0.022 C 
ATOM     23  C   UNL     1      30.582 -25.225 -14.615  0.00  0.00    +0.022 C 
ATOM     24  C   UNL     1      29.741 -22.426 -14.563  0.00  0.00    +0.097 C 
ATOM     25  C   UNL     1      29.129 -24.796 -14.808  0.00  0.00    +0.097 C 
ATOM     26  C   UNL     1      28.438 -23.059 -16.564  0.00  0.00    +0.402 C 
BRANCH  26  27
ATOM     27  O   UNL     1      27.837 -24.052 -17.279  0.00  0.00    -0.466 OA
ATOM     28  H   UNL     1      27.691 -24.889 -16.886  0.00  0.00    +0.297 HD
ENDBRANCH  26  27
ENDBRANCH  18  21
ENDBRANCH   1  18
TORSDOF 6
ENDMDL
MODEL 3
REMARK VINA RESULT:     -10.8      5.273      8.823
REMARK  Name = 25243828
REMARK  6 active torsions:
REMARK  status: ('A' for Active; 'I' for Inactive)
REMARK    1  A    between atoms: C_1  and  C_18
REMARK    2  A    between atoms: C_4  and  O_7
REMARK    3  A    between atoms: O_7  and  C_9
REMARK    4  A    between atoms: C_11  and  C_17
REMARK    5  A    between atoms: C_18  and  C_21
REMARK    6  A    between atoms: C_26  and  O_27
REMARK                            x       y       z     vdW  Elec       q    Type
REMARK                         _______ _______ _______ _____ _____    ______ ____
ROOT
ATOM      1  C   UNL     1      35.514 -18.136 -22.239  0.00  0.00    -0.019 C 
ATOM      2  C   UNL     1      35.707 -16.760 -22.360  0.00  0.00    +0.033 C 
ATOM      3  C   UNL     1      34.886 -18.845 -23.262  0.00  0.00    -0.004 C 
ATOM      4  C   UNL     1      35.271 -16.093 -23.505  0.00  0.00    +0.147 C 
ATOM      5  C   UNL     1      34.450 -18.178 -24.407  0.00  0.00    +0.003 C 
ATOM      6  C   UNL     1      34.643 -16.802 -24.529  0.00  0.00    +0.038 C 
ENDROOT
BRANCH   4   7
ATOM      7  O   UNL     1      35.457 -14.750 -23.623  0.00  0.00    -0.436 OA
BRANCH   7   9
ATOM      8  N   UNL     1      34.134 -12.829 -23.590  0.00  0.00    -0.210 NA
ATOM      9  C   UNL     1      34.594 -13.916 -22.932  0.00  0.00    +0.230 C 
ATOM     10  C   UNL     1      34.252 -14.236 -21.628  0.00  0.00    +0.058 C 
ATOM     11  C   UNL     1      32.887 -12.255 -21.601  0.00  0.00    +0.091 C 
ATOM     12  C   UNL     1      33.380 -13.384 -20.957  0.00  0.00    +0.010 C 
ATOM     13  C   UNL     1      33.290 -12.024 -22.906  0.00  0.00    +0.106 C 
BRANCH  11  17
ATOM     14  F   UNL     1      31.971 -11.440 -19.547  0.00  0.00    -0.166 F 
ATOM     15  F   UNL     1      32.213 -10.004 -21.155  0.00  0.00    -0.166 F 
ATOM     16  F   UNL     1      30.652 -11.512 -21.273  0.00  0.00    -0.166 F 
ATOM     17  C   UNL     1      31.955 -11.324 -20.909  0.00  0.00    +0.420 C 
ENDBRANCH  11  17
ENDBRANCH   7   9
ENDBRANCH   4   7
BRANCH   1  18
ATOM     18  C   UNL     1      35.982 -18.857 -21.004  0.00  0.00    +0.027 C 
BRANCH  18  21
ATOM     19  O   UNL     1      34.077 -23.201 -17.071  0.00  0.00    -0.226 OA
ATOM     20  N   UNL     1      33.826 -22.023 -19.062  0.00  0.00    -0.246 N 
ATOM     21  C   UNL     1      35.223 -20.165 -20.794  0.00  0.00    +0.008 C 
ATOM     22  C   UNL     1      35.971 -21.080 -19.812  0.00  0.00    +0.022 C 
ATOM     23  C   UNL     1      33.795 -19.895 -20.295  0.00  0.00    +0.022 C 
ATOM     24  C   UNL     1      35.176 -22.353 -19.525  0.00  0.00    +0.097 C 
ATOM     25  C   UNL     1      33.056 -21.200 -20.004  0.00  0.00    +0.097 C 
ATOM     26  C   UNL     1      33.394 -22.504 -17.822  0.00  0.00    +0.402 C 
BRANCH  26  27
ATOM     27  O   UNL     1      32.131 -22.155 -17.443  0.00  0.00    -0.466 OA
ATOM     28  H   UNL     1      31.776 -22.483 -16.640  0.00  0.00    +0.297 HD
ENDBRANCH  26  27
ENDBRANCH  18  21
ENDBRANCH   1  18
TORSDOF 6
ENDMDL
MODEL 4
REMARK VINA RESULT:     -10.6      6.047     10.998
REMARK  Name = 25243828
REMARK  6 active torsions:
REMARK  status: ('A' for Active; 'I' for Inactive)
REMARK    1  A    between atoms: C_1  and  C_18
REMARK    2  A    between atoms: C_4  and  O_7
REMARK    3  A    between atoms: O_7  and  C_9
REMARK    4  A    between atoms: C_11  and  C_17
REMARK    5  A    between atoms: C_18  and  C_21
REMARK    6  A    between atoms: C_26  and  O_27
REMARK                            x       y       z     vdW  Elec       q    Type
REMARK                         _______ _______ _______ _____ _____    ______ ____
ROOT
ATOM      1  C   UNL     1      35.210 -16.087 -23.250  0.00  0.00    -0.019 C 
ATOM      2  C   UNL     1      35.896 -16.863 -22.317  0.00  0.00    +0.033 C 
ATOM      3  C   UNL     1      34.564 -16.697 -24.326  0.00  0.00    -0.004 C 
ATOM      4  C   UNL     1      35.938 -18.250 -22.459  0.00  0.00    +0.147 C 
ATOM      5  C   UNL     1      34.605 -18.084 -24.468  0.00  0.00    +0.003 C 
ATOM      6  C   UNL     1      35.292 -18.861 -23.534  0.00  0.00    +0.038 C 
ENDROOT
BRANCH   4   7
ATOM      7  O   UNL     1      36.609 -19.009 -21.550  0.00  0.00    -0.436 OA
BRANCH   7   9
ATOM      8  N   UNL     1      36.550 -20.640 -19.883  0.00  0.00    -0.210 NA
ATOM      9  C   UNL     1      35.864 -19.826 -20.716  0.00  0.00    +0.230 C 
ATOM     10  C   UNL     1      34.481 -19.766 -20.778  0.00  0.00    +0.058 C 
ATOM     11  C   UNL     1      34.426 -21.446 -19.057  0.00  0.00    +0.091 C 
ATOM     12  C   UNL     1      33.755 -20.595 -19.928  0.00  0.00    +0.010 C 
ATOM     13  C   UNL     1      35.811 -21.431 -19.073  0.00  0.00    +0.106 C 
BRANCH  11  17
ATOM     14  F   UNL     1      32.387 -21.955 -17.914  0.00  0.00    -0.166 F 
ATOM     15  F   UNL     1      33.584 -23.635 -18.586  0.00  0.00    -0.166 F 
ATOM     16  F   UNL     1      34.250 -22.432 -16.901  0.00  0.00    -0.166 F 
ATOM     17  C   UNL     1      33.678 -22.346 -18.138  0.00  0.00    +0.420 C 
ENDBRANCH  11  17
ENDBRANCH   7   9
ENDBRANCH   4   7
BRANCH   1  18
ATOM     18  C   UNL     1      35.166 -14.591 -23.099  0.00  0.00    +0.027 C 
BRANCH  18  21
ATOM     19  O   UNL     1      32.204 -10.923 -19.132  0.00  0.00    -0.226 OA
ATOM     20  N   UNL     1      32.246 -12.150 -21.108  0.00  0.00    -0.246 N 
ATOM     21  C   UNL     1      33.831 -14.122 -22.525  0.00  0.00    +0.008 C 
ATOM     22  C   UNL     1      33.922 -13.948 -21.001  0.00  0.00    +0.022 C 
ATOM     23  C   UNL     1      33.382 -12.810 -23.189  0.00  0.00    +0.022 C 
ATOM     24  C   UNL     1      32.619 -13.392 -20.427  0.00  0.00    +0.097 C 
ATOM     25  C   UNL     1      32.089 -12.291 -22.562  0.00  0.00    +0.097 C 
ATOM     26  C   UNL     1      32.068 -10.986 -20.354  0.00  0.00    +0.402 C 
BRANCH  26  27
ATOM     27  O   UNL     1      31.731  -9.860 -21.047  0.00  0.00    -0.466 OA
ATOM     28  H   UNL     1      32.189  -9.059 -20.888  0.00  0.00    +0.297 HD
ENDBRANCH  26  27
ENDBRANCH  18  21
ENDBRANCH   1  18
TORSDOF 6
ENDMDL
MODEL 5
REMARK VINA RESULT:     -10.6      0.939      1.455
REMARK  Name = 25243828
REMARK  6 active torsions:
REMARK  status: ('A' for Active; 'I' for Inactive)
REMARK    1  A    between atoms: C_1  and  C_18
REMARK    2  A    between atoms: C_4  and  O_7
REMARK    3  A    between atoms: O_7  and  C_9
REMARK    4  A    between atoms: C_11  and  C_17
REMARK    5  A    between atoms: C_18  and  C_21
REMARK    6  A    between atoms: C_26  and  O_27
REMARK                            x       y       z     vdW  Elec       q    Type
REMARK                         _______ _______ _______ _____ _____    ______ ____
ROOT
ATOM      1  C   UNL     1      34.661 -22.971 -14.980  0.00  0.00    -0.019 C 
ATOM      2  C   UNL     1      34.720 -23.051 -16.371  0.00  0.00    +0.033 C 
ATOM      3  C   UNL     1      33.431 -23.051 -14.327  0.00  0.00    -0.004 C 
ATOM      4  C   UNL     1      33.548 -23.212 -17.110  0.00  0.00    +0.147 C 
ATOM      5  C   UNL     1      32.259 -23.212 -15.066  0.00  0.00    +0.003 C 
ATOM      6  C   UNL     1      32.317 -23.293 -16.458  0.00  0.00    +0.038 C 
ENDROOT
BRANCH   4   7
ATOM      7  O   UNL     1      33.604 -23.288 -18.468  0.00  0.00    -0.436 OA
BRANCH   7   9
ATOM      8  N   UNL     1      35.471 -22.174 -19.312  0.00  0.00    -0.210 NA
ATOM      9  C   UNL     1      34.129 -22.205 -19.153  0.00  0.00    +0.230 C 
ATOM     10  C   UNL     1      33.268 -21.231 -19.631  0.00  0.00    +0.058 C 
ATOM     11  C   UNL     1      35.197 -20.088 -20.502  0.00  0.00    +0.091 C 
ATOM     12  C   UNL     1      33.820 -20.155 -20.319  0.00  0.00    +0.010 C 
ATOM     13  C   UNL     1      35.972 -21.113 -19.985  0.00  0.00    +0.106 C 
BRANCH  11  17
ATOM     14  F   UNL     1      37.126 -18.730 -20.900  0.00  0.00    -0.166 F 
ATOM     15  F   UNL     1      35.819 -19.102 -22.591  0.00  0.00    -0.166 F 
ATOM     16  F   UNL     1      35.182 -17.763 -21.001  0.00  0.00    -0.166 F 
ATOM     17  C   UNL     1      35.818 -18.949 -21.232  0.00  0.00    +0.420 C 
ENDBRANCH  11  17
ENDBRANCH   7   9
ENDBRANCH   4   7
BRANCH   1  18
ATOM     18  C   UNL     1      35.924 -22.796 -14.181  0.00  0.00    +0.027 C 
BRANCH  18  21
ATOM     19  O   UNL     1      39.846 -27.371 -15.467  0.00  0.00    -0.226 OA
ATOM     20  N   UNL     1      38.631 -26.121 -13.926  0.00  0.00    -0.246 N 
ATOM     21  C   UNL     1      36.519 -24.140 -13.768  0.00  0.00    +0.008 C 
ATOM     22  C   UNL     1      36.675 -25.067 -14.984  0.00  0.00    +0.022 C 
ATOM     23  C   UNL     1      37.873 -23.945 -13.065  0.00  0.00    +0.022 C 
ATOM     24  C   UNL     1      37.354 -26.380 -14.597  0.00  0.00    +0.097 C 
ATOM     25  C   UNL     1      38.514 -25.288 -12.721  0.00  0.00    +0.097 C 
ATOM     26  C   UNL     1      39.803 -26.670 -14.456  0.00  0.00    +0.402 C 
BRANCH  26  27
ATOM     27  O   UNL     1      40.960 -26.385 -13.792  0.00  0.00    -0.466 OA
ATOM     28  H   UNL     1      41.161 -25.499 -13.562  0.00  0.00    +0.297 HD
ENDBRANCH  26  27
ENDBRANCH  18  21
ENDBRANCH   1  18
TORSDOF 6
ENDMDL
MODEL 6
REMARK VINA RESULT:     -10.5      3.981      5.802
REMARK  Name = 25243828
REMARK  6 active torsions:
REMARK  status: ('A' for Active; 'I' for Inactive)
REMARK    1  A    between atoms: C_1  and  C_18
REMARK    2  A    between atoms: C_4  and  O_7
REMARK    3  A    between atoms: O_7  and  C_9
REMARK    4  A    between atoms: C_11  and  C_17
REMARK    5  A    between atoms: C_18  and  C_21
REMARK    6  A    between atoms: C_26  and  O_27
REMARK                            x       y       z     vdW  Elec       q    Type
REMARK                         _______ _______ _______ _____ _____    ______ ____
ROOT
ATOM      1  C   UNL     1      34.610 -21.474 -19.171  0.00  0.00    -0.019 C 
ATOM      2  C   UNL     1      35.560 -20.707 -19.844  0.00  0.00    +0.033 C 
ATOM      3  C   UNL     1      33.254 -21.317 -19.460  0.00  0.00    -0.004 C 
ATOM      4  C   UNL     1      35.155 -19.781 -20.805  0.00  0.00    +0.147 C 
ATOM      5  C   UNL     1      32.849 -20.390 -20.421  0.00  0.00    +0.003 C 
ATOM      6  C   UNL     1      33.799 -19.622 -21.094  0.00  0.00    +0.038 C 
ENDROOT
BRANCH   4   7
ATOM      7  O   UNL     1      36.082 -19.030 -21.461  0.00  0.00    -0.436 OA
BRANCH   7   9
ATOM      8  N   UNL     1      35.414 -16.836 -21.033  0.00  0.00    -0.210 NA
ATOM      9  C   UNL     1      35.684 -17.795 -21.946  0.00  0.00    +0.230 C 
ATOM     10  C   UNL     1      35.588 -17.612 -23.316  0.00  0.00    +0.058 C 
ATOM     11  C   UNL     1      34.903 -15.350 -22.869  0.00  0.00    +0.091 C 
ATOM     12  C   UNL     1      35.190 -16.362 -23.779  0.00  0.00    +0.010 C 
ATOM     13  C   UNL     1      35.029 -15.635 -21.519  0.00  0.00    +0.106 C 
BRANCH  11  17
ATOM     14  F   UNL     1      34.754 -13.757 -24.648  0.00  0.00    -0.166 F 
ATOM     15  F   UNL     1      33.127 -13.784 -23.213  0.00  0.00    -0.166 F 
ATOM     16  F   UNL     1      35.068 -12.989 -22.638  0.00  0.00    -0.166 F 
ATOM     17  C   UNL     1      34.472 -14.003 -23.333  0.00  0.00    +0.420 C 
ENDBRANCH  11  17
ENDBRANCH   7   9
ENDBRANCH   4   7
BRANCH   1  18
ATOM     18  C   UNL     1      35.044 -22.472 -18.133  0.00  0.00    +0.027 C 
BRANCH  18  21
ATOM     19  O   UNL     1      31.645 -25.384 -13.898  0.00  0.00    -0.226 OA
ATOM     20  N   UNL     1      32.998 -23.600 -14.529  0.00  0.00    -0.246 N 
ATOM     21  C   UNL     1      34.197 -22.373 -16.867  0.00  0.00    +0.008 C 
ATOM     22  C   UNL     1      32.954 -23.271 -16.967  0.00  0.00    +0.022 C 
ATOM     23  C   UNL     1      35.026 -22.740 -15.625  0.00  0.00    +0.022 C 
ATOM     24  C   UNL     1      32.148 -23.249 -15.670  0.00  0.00    +0.097 C 
ATOM     25  C   UNL     1      34.165 -22.723 -14.363  0.00  0.00    +0.097 C 
ATOM     26  C   UNL     1      32.642 -24.684 -13.721  0.00  0.00    +0.402 C 
BRANCH  26  27
ATOM     27  O   UNL     1      33.479 -24.966 -12.681  0.00  0.00    -0.466 OA
ATOM     28  H   UNL     1      33.423 -24.470 -11.889  0.00  0.00    +0.297 HD
ENDBRANCH  26  27
ENDBRANCH  18  21
ENDBRANCH   1  18
TORSDOF 6
ENDMDL
MODEL 7
REMARK VINA RESULT:     -10.1      5.004      9.350
REMARK  Name = 25243828
REMARK  6 active torsions:
REMARK  status: ('A' for Active; 'I' for Inactive)
REMARK    1  A    between atoms: C_1  and  C_18
REMARK    2  A    between atoms: C_4  and  O_7
REMARK    3  A    between atoms: O_7  and  C_9
REMARK    4  A    between atoms: C_11  and  C_17
REMARK    5  A    between atoms: C_18  and  C_21
REMARK    6  A    between atoms: C_26  and  O_27
REMARK                            x       y       z     vdW  Elec       q    Type
REMARK                         _______ _______ _______ _____ _____    ______ ____
ROOT
ATOM      1  C   UNL     1      34.766 -20.840 -19.620  0.00  0.00    -0.019 C 
ATOM      2  C   UNL     1      34.116 -21.641 -18.682  0.00  0.00    +0.033 C 
ATOM      3  C   UNL     1      36.150 -20.679 -19.561  0.00  0.00    -0.004 C 
ATOM      4  C   UNL     1      34.850 -22.282 -17.684  0.00  0.00    +0.147 C 
ATOM      5  C   UNL     1      36.885 -21.319 -18.563  0.00  0.00    +0.003 C 
ATOM      6  C   UNL     1      36.235 -22.121 -17.624  0.00  0.00    +0.038 C 
ENDROOT
BRANCH   4   7
ATOM      7  O   UNL     1      34.217 -23.062 -16.767  0.00  0.00    -0.436 OA
BRANCH   7   9
ATOM      8  N   UNL     1      35.307 -24.853 -15.744  0.00  0.00    -0.210 NA
ATOM      9  C   UNL     1      34.964 -23.546 -15.706  0.00  0.00    +0.230 C 
ATOM     10  C   UNL     1      35.316 -22.681 -14.683  0.00  0.00    +0.058 C 
ATOM     11  C   UNL     1      36.441 -24.531 -13.634  0.00  0.00    +0.091 C 
ATOM     12  C   UNL     1      36.070 -23.191 -13.630  0.00  0.00    +0.010 C 
ATOM     13  C   UNL     1      36.039 -25.313 -14.704  0.00  0.00    +0.106 C 
BRANCH  11  17
ATOM     14  F   UNL     1      38.575 -24.790 -12.583  0.00  0.00    -0.166 F 
ATOM     15  F   UNL     1      36.842 -24.695 -11.281  0.00  0.00    -0.166 F 
ATOM     16  F   UNL     1      37.198 -26.470 -12.485  0.00  0.00    -0.166 F 
ATOM     17  C   UNL     1      37.246 -25.106 -12.522  0.00  0.00    +0.420 C 
ENDBRANCH  11  17
ENDBRANCH   7   9
ENDBRANCH   4   7
BRANCH   1  18
ATOM     18  C   UNL     1      33.975 -20.147 -20.696  0.00  0.00    +0.027 C 
BRANCH  18  21
ATOM     19  O   UNL     1      34.509 -16.023 -25.244  0.00  0.00    -0.226 OA
ATOM     20  N   UNL     1      35.438 -17.218 -23.477  0.00  0.00    -0.246 N 
ATOM     21  C   UNL     1      34.886 -19.440 -21.698  0.00  0.00    +0.008 C 
ATOM     22  C   UNL     1      34.195 -19.301 -23.063  0.00  0.00    +0.022 C 
ATOM     23  C   UNL     1      35.314 -18.061 -21.169  0.00  0.00    +0.022 C 
ATOM     24  C   UNL     1      35.061 -18.515 -24.046  0.00  0.00    +0.097 C 
ATOM     25  C   UNL     1      36.158 -17.314 -22.200  0.00  0.00    +0.097 C 
ATOM     26  C   UNL     1      35.107 -16.048 -24.168  0.00  0.00    +0.402 C 
BRANCH  26  27
ATOM     27  O   UNL     1      35.476 -14.873 -23.582  0.00  0.00    -0.466 OA
ATOM     28  H   UNL     1      36.383 -14.689 -23.435  0.00  0.00    +0.297 HD
ENDBRANCH  26  27
ENDBRANCH  18  21
ENDBRANCH   1  18
TORSDOF 6
ENDMDL
MODEL 8
REMARK VINA RESULT:     -10.1      4.902      9.551
REMARK  Name = 25243828
REMARK  6 active torsions:
REMARK  status: ('A' for Active; 'I' for Inactive)
REMARK    1  A    between atoms: C_1  and  C_18
REMARK    2  A    between atoms: C_4  and  O_7
REMARK    3  A    between atoms: O_7  and  C_9
REMARK    4  A    between atoms: C_11  and  C_17
REMARK    5  A    between atoms: C_18  and  C_21
REMARK    6  A    between atoms: C_26  and  O_27
REMARK                            x       y       z     vdW  Elec       q    Type
REMARK                         _______ _______ _______ _____ _____    ______ ____
ROOT
ATOM      1  C   UNL     1      35.339 -19.698 -20.677  0.00  0.00    -0.019 C 
ATOM      2  C   UNL     1      35.555 -20.807 -19.859  0.00  0.00    +0.033 C 
ATOM      3  C   UNL     1      34.038 -19.315 -21.004  0.00  0.00    -0.004 C 
ATOM      4  C   UNL     1      34.469 -21.534 -19.369  0.00  0.00    +0.147 C 
ATOM      5  C   UNL     1      32.953 -20.042 -20.514  0.00  0.00    +0.003 C 
ATOM      6  C   UNL     1      33.168 -21.151 -19.696  0.00  0.00    +0.038 C 
ENDROOT
BRANCH   4   7
ATOM      7  O   UNL     1      34.679 -22.618 -18.573  0.00  0.00    -0.436 OA
BRANCH   7   9
ATOM      8  N   UNL     1      32.550 -22.702 -17.623  0.00  0.00    -0.210 NA
ATOM      9  C   UNL     1      33.889 -22.750 -17.443  0.00  0.00    +0.230 C 
ATOM     10  C   UNL     1      34.501 -22.921 -16.212  0.00  0.00    +0.058 C 
ATOM     11  C   UNL     1      32.303 -23.011 -15.239  0.00  0.00    +0.091 C 
ATOM     12  C   UNL     1      33.685 -23.054 -15.093  0.00  0.00    +0.010 C 
ATOM     13  C   UNL     1      31.789 -22.835 -16.513  0.00  0.00    +0.106 C 
BRANCH  11  17
ATOM     14  F   UNL     1      32.019 -22.894 -12.866  0.00  0.00    -0.166 F 
ATOM     15  F   UNL     1      30.327 -22.306 -14.090  0.00  0.00    -0.166 F 
ATOM     16  F   UNL     1      30.880 -24.403 -13.939  0.00  0.00    -0.166 F 
ATOM     17  C   UNL     1      31.404 -23.148 -14.061  0.00  0.00    +0.420 C 
ENDBRANCH  11  17
ENDBRANCH   7   9
ENDBRANCH   4   7
BRANCH   1  18
ATOM     18  C   UNL     1      36.508 -18.915 -21.208  0.00  0.00    +0.027 C 
BRANCH  18  21
ATOM     19  O   UNL     1      32.447 -17.631 -25.662  0.00  0.00    -0.226 OA
ATOM     20  N   UNL     1      34.535 -17.332 -24.680  0.00  0.00    -0.246 N 
ATOM     21  C   UNL     1      36.270 -18.451 -22.643  0.00  0.00    +0.008 C 
ATOM     22  C   UNL     1      35.158 -19.278 -23.309  0.00  0.00    +0.022 C 
ATOM     23  C   UNL     1      35.922 -16.954 -22.683  0.00  0.00    +0.022 C 
ATOM     24  C   UNL     1      34.850 -18.763 -24.714  0.00  0.00    +0.097 C 
ATOM     25  C   UNL     1      35.602 -16.500 -24.106  0.00  0.00    +0.097 C 
ATOM     26  C   UNL     1      33.306 -16.891 -25.181  0.00  0.00    +0.402 C 
BRANCH  26  27
ATOM     27  O   UNL     1      33.069 -15.550 -25.113  0.00  0.00    -0.466 OA
ATOM     28  H   UNL     1      33.288 -15.076 -24.336  0.00  0.00    +0.297 HD
ENDBRANCH  26  27
ENDBRANCH  18  21
ENDBRANCH   1  18
TORSDOF 6
ENDMDL
MODEL 9
REMARK VINA RESULT:     -10.0      9.990     14.475
REMARK  Name = 25243828
REMARK  6 active torsions:
REMARK  status: ('A' for Active; 'I' for Inactive)
REMARK    1  A    between atoms: C_1  and  C_18
REMARK    2  A    between atoms: C_4  and  O_7
REMARK    3  A    between atoms: O_7  and  C_9
REMARK    4  A    between atoms: C_11  and  C_17
REMARK    5  A    between atoms: C_18  and  C_21
REMARK    6  A    between atoms: C_26  and  O_27
REMARK                            x       y       z     vdW  Elec       q    Type
REMARK                         _______ _______ _______ _____ _____    ______ ____
ROOT
ATOM      1  C   UNL     1      32.095 -11.274 -21.691  0.00  0.00    -0.019 C 
ATOM      2  C   UNL     1      32.993 -11.756 -22.643  0.00  0.00    +0.033 C 
ATOM      3  C   UNL     1      31.839 -12.013 -20.536  0.00  0.00    -0.004 C 
ATOM      4  C   UNL     1      33.635 -12.978 -22.441  0.00  0.00    +0.147 C 
ATOM      5  C   UNL     1      32.481 -13.236 -20.334  0.00  0.00    +0.003 C 
ATOM      6  C   UNL     1      33.379 -13.718 -21.286  0.00  0.00    +0.038 C 
ENDROOT
BRANCH   4   7
ATOM      7  O   UNL     1      34.509 -13.451 -23.371  0.00  0.00    -0.436 OA
BRANCH   7   9
ATOM      8  N   UNL     1      35.305 -15.396 -22.359  0.00  0.00    -0.210 NA
ATOM      9  C   UNL     1      34.712 -14.820 -23.428  0.00  0.00    +0.230 C 
ATOM     10  C   UNL     1      34.302 -15.513 -24.555  0.00  0.00    +0.058 C 
ATOM     11  C   UNL     1      35.121 -17.516 -23.506  0.00  0.00    +0.091 C 
ATOM     12  C   UNL     1      34.513 -16.887 -24.586  0.00  0.00    +0.010 C 
ATOM     13  C   UNL     1      35.495 -16.733 -22.426  0.00  0.00    +0.106 C 
BRANCH  11  17
ATOM     14  F   UNL     1      34.699 -19.656 -22.522  0.00  0.00    -0.166 F 
ATOM     15  F   UNL     1      34.985 -19.600 -24.671  0.00  0.00    -0.166 F 
ATOM     16  F   UNL     1      36.681 -19.304 -23.343  0.00  0.00    -0.166 F 
ATOM     17  C   UNL     1      35.364 -18.984 -23.510  0.00  0.00    +0.420 C 
ENDBRANCH  11  17
ENDBRANCH   7   9
ENDBRANCH   4   7
BRANCH   1  18
ATOM     18  C   UNL     1      31.401  -9.958 -21.909  0.00  0.00    +0.027 C 
BRANCH  18  21
ATOM     19  O   UNL     1      32.605  -4.264 -23.934  0.00  0.00    -0.226 OA
ATOM     20  N   UNL     1      32.974  -5.994 -22.423  0.00  0.00    -0.246 N 
ATOM     21  C   UNL     1      32.398  -8.805 -22.002  0.00  0.00    +0.008 C 
ATOM     22  C   UNL     1      32.372  -8.170 -23.401  0.00  0.00    +0.022 C 
ATOM     23  C   UNL     1      32.108  -7.744 -20.926  0.00  0.00    +0.022 C 
ATOM     24  C   UNL     1      33.300  -6.958 -23.478  0.00  0.00    +0.097 C 
ATOM     25  C   UNL     1      33.049  -6.549 -21.065  0.00  0.00    +0.097 C 
ATOM     26  C   UNL     1      32.644  -4.682 -22.777  0.00  0.00    +0.402 C 
BRANCH  26  27
ATOM     27  O   UNL     1      32.342  -3.835 -21.751  0.00  0.00    -0.466 OA
ATOM     28  H   UNL     1      32.602  -4.049 -20.877  0.00  0.00    +0.297 HD
ENDBRANCH  26  27
ENDBRANCH  18  21
ENDBRANCH   1  18
TORSDOF 6
ENDMDL
