MODEL 1
REMARK VINA RESULT:     -13.1      0.000      0.000
REMARK  Name = 11840906
REMARK  7 active torsions:
REMARK  status: ('A' for Active; 'I' for Inactive)
REMARK    1  A    between atoms: O_1  and  C_3
REMARK    2  A    between atoms: O_1  and  C_18
REMARK    3  A    between atoms: C_5  and  C_9
REMARK    4  A    between atoms: C_18  and  C_19
REMARK    5  A    between atoms: C_19  and  N_20
REMARK    6  A    between atoms: C_19  and  C_24
REMARK    7  A    between atoms: C_24  and  C_26
REMARK                            x       y       z     vdW  Elec       q    Type
REMARK                         _______ _______ _______ _____ _____    ______ ____
ROOT
ATOM      1  O   UNL     1      35.642 -14.939 -23.341  0.00  0.00    -0.476 OA
ENDROOT
BRANCH   1   3
ATOM      2  N   UNL     1      34.607 -18.116 -24.798  0.00  0.00    -0.239 NA
ATOM      3  C   UNL     1      35.351 -16.275 -23.440  0.00  0.00    +0.158 C 
ATOM      4  C   UNL     1      35.495 -17.109 -22.345  0.00  0.00    +0.040 C 
ATOM      5  C   UNL     1      35.191 -18.460 -22.477  0.00  0.00    +0.022 C 
ATOM      6  C   UNL     1      34.911 -16.809 -24.632  0.00  0.00    +0.136 C 
ATOM      7  C   UNL     1      34.755 -18.909 -23.712  0.00  0.00    +0.099 C 
BRANCH   5   9
ATOM      8  N   UNL     1      34.599 -22.615 -17.545  0.00  0.00    -0.242 NA
ATOM      9  C   UNL     1      35.327 -19.365 -21.360  0.00  0.00    +0.002 C 
ATOM     10  C   UNL     1      34.311 -20.856 -19.725  0.00  0.00    +0.003 C 
ATOM     11  C   UNL     1      34.194 -19.975 -20.812  0.00  0.00    +0.000 C 
ATOM     12  C   UNL     1      35.587 -21.120 -19.189  0.00  0.00    +0.019 C 
ATOM     13  C   UNL     1      36.587 -19.629 -20.825  0.00  0.00    +0.000 C 
ATOM     14  C   UNL     1      36.719 -20.502 -19.745  0.00  0.00    +0.002 C 
ATOM     15  C   UNL     1      33.194 -21.482 -19.156  0.00  0.00    +0.021 C 
ATOM     16  C   UNL     1      35.664 -22.001 -18.109  0.00  0.00    +0.099 C 
ATOM     17  C   UNL     1      33.392 -22.339 -18.085  0.00  0.00    +0.099 C 
ENDBRANCH   5   9
ENDBRANCH   1   3
BRANCH   1  18
ATOM     18  C   UNL     1      34.604 -14.092 -22.865  0.00  0.00    +0.184 C 
BRANCH  18  19
ATOM     19  C   UNL     1      34.212 -13.089 -23.956  0.00  0.00    -0.021 C 
BRANCH  19  20
ATOM     20  N   UNL     1      33.161 -13.684 -24.782  0.00  0.00    +0.384 N 
ATOM     21  H   UNL     1      32.444 -14.090 -24.179  0.00  0.00    -0.089 HD
ATOM     22  H   UNL     1      33.562 -14.413 -25.371  0.00  0.00    -0.089 HD
ATOM     23  H   UNL     1      32.742 -12.963 -25.370  0.00  0.00    -0.089 HD
ENDBRANCH  19  20
BRANCH  19  24
ATOM     24  C   UNL     1      33.748 -11.748 -23.348  0.00  0.00    -0.012 C 
BRANCH  24  26
ATOM     25  N   UNL     1      35.796  -9.508 -25.001  0.00  0.00    -0.270 NA
ATOM     26  C   UNL     1      33.773 -10.589 -24.327  0.00  0.00    +0.046 C 
ATOM     27  C   UNL     1      33.895  -9.248 -23.678  0.00  0.00    -0.007 C 
ATOM     28  C   UNL     1      35.071 -10.578 -25.126  0.00  0.00    +0.130 C 
ATOM     29  C   UNL     1      35.093  -8.670 -24.117  0.00  0.00    +0.071 C 
ATOM     30  C   UNL     1      33.050  -8.591 -22.805  0.00  0.00    -0.024 C 
ATOM     31  C   UNL     1      35.474  -7.413 -23.681  0.00  0.00    +0.014 C 
ATOM     32  C   UNL     1      33.428  -7.322 -22.361  0.00  0.00    +0.052 C 
ATOM     33  C   UNL     1      34.630  -6.739 -22.794  0.00  0.00    -0.020 C 
ENDBRANCH  24  26
ENDBRANCH  19  24
ENDBRANCH  18  19
ENDBRANCH   1  18
TORSDOF 7
ENDMDL
MODEL 2
REMARK VINA RESULT:     -12.5      1.494      2.200
REMARK  Name = 11840906
REMARK  7 active torsions:
REMARK  status: ('A' for Active; 'I' for Inactive)
REMARK    1  A    between atoms: O_1  and  C_3
REMARK    2  A    between atoms: O_1  and  C_18
REMARK    3  A    between atoms: C_5  and  C_9
REMARK    4  A    between atoms: C_18  and  C_19
REMARK    5  A    between atoms: C_19  and  N_20
REMARK    6  A    between atoms: C_19  and  C_24
REMARK    7  A    between atoms: C_24  and  C_26
REMARK                            x       y       z     vdW  Elec       q    Type
REMARK                         _______ _______ _______ _____ _____    ______ ____
ROOT
ATOM      1  O   UNL     1      35.002 -13.545 -23.175  0.00  0.00    -0.476 OA
ENDROOT
BRANCH   1   3
ATOM      2  N   UNL     1      34.455 -16.577 -25.124  0.00  0.00    -0.239 NA
ATOM      3  C   UNL     1      34.937 -14.878 -23.491  0.00  0.00    +0.158 C 
ATOM      4  C   UNL     1      35.269 -15.839 -22.553  0.00  0.00    +0.040 C 
ATOM      5  C   UNL     1      35.193 -17.182 -22.903  0.00  0.00    +0.022 C 
ATOM      6  C   UNL     1      34.541 -15.281 -24.748  0.00  0.00    +0.136 C 
ATOM      7  C   UNL     1      34.784 -17.496 -24.188  0.00  0.00    +0.099 C 
BRANCH   5   9
ATOM      8  N   UNL     1      35.514 -22.036 -18.628  0.00  0.00    -0.242 NA
ATOM      9  C   UNL     1      35.529 -18.218 -21.954  0.00  0.00    +0.002 C 
ATOM     10  C   UNL     1      34.834 -20.025 -20.477  0.00  0.00    +0.003 C 
ATOM     11  C   UNL     1      34.522 -19.015 -21.401  0.00  0.00    +0.000 C 
ATOM     12  C   UNL     1      36.180 -20.228 -20.110  0.00  0.00    +0.019 C 
ATOM     13  C   UNL     1      36.858 -18.423 -21.587  0.00  0.00    +0.000 C 
ATOM     14  C   UNL     1      37.186 -19.422 -20.670  0.00  0.00    +0.002 C 
ATOM     15  C   UNL     1      33.847 -20.838 -19.907  0.00  0.00    +0.021 C 
ATOM     16  C   UNL     1      36.452 -21.241 -19.189  0.00  0.00    +0.099 C 
ATOM     17  C   UNL     1      34.236 -21.814 -19.003  0.00  0.00    +0.099 C 
ENDBRANCH   5   9
ENDBRANCH   1   3
BRANCH   1  18
ATOM     18  C   UNL     1      33.867 -12.754 -23.501  0.00  0.00    +0.184 C 
BRANCH  18  19
ATOM     19  C   UNL     1      34.281 -11.286 -23.648  0.00  0.00    -0.021 C 
BRANCH  19  20
ATOM     20  N   UNL     1      35.024 -11.132 -24.899  0.00  0.00    +0.384 N 
ATOM     21  H   UNL     1      35.736 -10.410 -24.785  0.00  0.00    -0.089 HD
ATOM     22  H   UNL     1      34.382 -10.862 -25.645  0.00  0.00    -0.089 HD
ATOM     23  H   UNL     1      35.472 -12.016 -25.140  0.00  0.00    -0.089 HD
ENDBRANCH  19  20
BRANCH  19  24
ATOM     24  C   UNL     1      33.056 -10.348 -23.612  0.00  0.00    -0.012 C 
BRANCH  24  26
ATOM     25  N   UNL     1      31.628  -7.392 -22.529  0.00  0.00    -0.270 NA
ATOM     26  C   UNL     1      33.189  -9.201 -22.628  0.00  0.00    +0.046 C 
ATOM     27  C   UNL     1      33.781  -7.961 -23.215  0.00  0.00    -0.007 C 
ATOM     28  C   UNL     1      31.819  -8.646 -22.249  0.00  0.00    +0.130 C 
ATOM     29  C   UNL     1      32.822  -6.945 -23.122  0.00  0.00    +0.071 C 
ATOM     30  C   UNL     1      35.028  -7.733 -23.764  0.00  0.00    -0.024 C 
ATOM     31  C   UNL     1      33.094  -5.670 -23.588  0.00  0.00    +0.014 C 
ATOM     32  C   UNL     1      35.310  -6.449 -24.236  0.00  0.00    +0.052 C 
ATOM     33  C   UNL     1      34.350  -5.427 -24.149  0.00  0.00    -0.020 C 
ENDBRANCH  24  26
ENDBRANCH  19  24
ENDBRANCH  18  19
ENDBRANCH   1  18
TORSDOF 7
ENDMDL
MODEL 3
REMARK VINA RESULT:     -12.3      1.548     10.782
REMARK  Name = 11840906
REMARK  7 active torsions:
REMARK  status: ('A' for Active; 'I' for Inactive)
REMARK    1  A    between atoms: O_1  and  C_3
REMARK    2  A    between atoms: O_1  and  C_18
REMARK    3  A    between atoms: C_5  and  C_9
REMARK    4  A    between atoms: C_18  and  C_19
REMARK    5  A    between atoms: C_19  and  N_20
REMARK    6  A    between atoms: C_19  and  C_24
REMARK    7  A    between atoms: C_24  and  C_26
REMARK                            x       y       z     vdW  Elec       q    Type
REMARK                         _______ _______ _______ _____ _____    ______ ____
ROOT
ATOM      1  O   UNL     1      34.634 -15.404 -23.228  0.00  0.00    -0.476 OA
ENDROOT
BRANCH   1   3
ATOM      2  N   UNL     1      33.495 -13.711 -26.249  0.00  0.00    -0.239 NA
ATOM      3  C   UNL     1      34.305 -14.387 -24.087  0.00  0.00    +0.158 C 
ATOM      4  C   UNL     1      34.439 -13.067 -23.697  0.00  0.00    +0.040 C 
ATOM      5  C   UNL     1      34.098 -12.058 -24.591  0.00  0.00    +0.022 C 
ATOM      6  C   UNL     1      33.836 -14.664 -25.353  0.00  0.00    +0.136 C 
ATOM      7  C   UNL     1      33.636 -12.429 -25.842  0.00  0.00    +0.099 C 
BRANCH   5   9
ATOM      8  N   UNL     1      33.597  -5.981 -22.407  0.00  0.00    -0.242 NA
ATOM      9  C   UNL     1      34.224 -10.666 -24.225  0.00  0.00    +0.002 C 
ATOM     10  C   UNL     1      33.331  -8.696 -23.107  0.00  0.00    +0.003 C 
ATOM     11  C   UNL     1      33.224 -10.049 -23.469  0.00  0.00    +0.000 C 
ATOM     12  C   UNL     1      34.465  -7.964 -23.516  0.00  0.00    +0.019 C 
ATOM     13  C   UNL     1      35.342  -9.937 -24.628  0.00  0.00    +0.000 C 
ATOM     14  C   UNL     1      35.464  -8.592 -24.276  0.00  0.00    +0.002 C 
ATOM     15  C   UNL     1      32.346  -8.051 -22.349  0.00  0.00    +0.021 C 
ATOM     16  C   UNL     1      34.538  -6.622 -23.137  0.00  0.00    +0.099 C 
ATOM     17  C   UNL     1      32.526  -6.714 -22.032  0.00  0.00    +0.099 C 
ENDBRANCH   5   9
ENDBRANCH   1   3
BRANCH   1  18
ATOM     18  C   UNL     1      35.317 -16.518 -23.786  0.00  0.00    +0.184 C 
BRANCH  18  19
ATOM     19  C   UNL     1      34.548 -17.807 -23.478  0.00  0.00    -0.021 C 
BRANCH  19  20
ATOM     20  N   UNL     1      33.965 -18.312 -24.722  0.00  0.00    +0.384 N 
ATOM     21  H   UNL     1      33.553 -19.231 -24.555  0.00  0.00    -0.089 HD
ATOM     22  H   UNL     1      34.693 -18.390 -25.432  0.00  0.00    -0.089 HD
ATOM     23  H   UNL     1      33.242 -17.669 -25.044  0.00  0.00    -0.089 HD
ENDBRANCH  19  20
BRANCH  19  24
ATOM     24  C   UNL     1      35.462 -18.866 -22.825  0.00  0.00    -0.012 C 
BRANCH  24  26
ATOM     25  N   UNL     1      37.114 -20.017 -20.015  0.00  0.00    -0.270 NA
ATOM     26  C   UNL     1      35.569 -18.738 -21.317  0.00  0.00    +0.046 C 
ATOM     27  C   UNL     1      34.858 -19.814 -20.562  0.00  0.00    -0.007 C 
ATOM     28  C   UNL     1      36.991 -19.026 -20.845  0.00  0.00    +0.130 C 
ATOM     29  C   UNL     1      35.815 -20.519 -19.822  0.00  0.00    +0.071 C 
ATOM     30  C   UNL     1      33.517 -20.143 -20.514  0.00  0.00    -0.024 C 
ATOM     31  C   UNL     1      35.445 -21.582 -19.015  0.00  0.00    +0.014 C 
ATOM     32  C   UNL     1      33.136 -21.213 -19.702  0.00  0.00    +0.052 C 
ATOM     33  C   UNL     1      34.092 -21.927 -18.960  0.00  0.00    -0.020 C 
ENDBRANCH  24  26
ENDBRANCH  19  24
ENDBRANCH  18  19
ENDBRANCH   1  18
TORSDOF 7
ENDMDL
MODEL 4
REMARK VINA RESULT:     -12.2      1.724      2.342
REMARK  Name = 11840906
REMARK  7 active torsions:
REMARK  status: ('A' for Active; 'I' for Inactive)
REMARK    1  A    between atoms: O_1  and  C_3
REMARK    2  A    between atoms: O_1  and  C_18
REMARK    3  A    between atoms: C_5  and  C_9
REMARK    4  A    between atoms: C_18  and  C_19
REMARK    5  A    between atoms: C_19  and  N_20
REMARK    6  A    between atoms: C_19  and  C_24
REMARK    7  A    between atoms: C_24  and  C_26
REMARK                            x       y       z     vdW  Elec       q    Type
REMARK                         _______ _______ _______ _____ _____    ______ ____
ROOT
ATOM      1  O   UNL     1      34.928 -13.911 -23.316  0.00  0.00    -0.476 OA
ENDROOT
BRANCH   1   3
ATOM      2  N   UNL     1      34.726 -17.043 -25.170  0.00  0.00    -0.239 NA
ATOM      3  C   UNL     1      34.964 -15.256 -23.577  0.00  0.00    +0.158 C 
ATOM      4  C   UNL     1      35.260 -16.159 -22.572  0.00  0.00    +0.040 C 
ATOM      5  C   UNL     1      35.290 -17.517 -22.867  0.00  0.00    +0.022 C 
ATOM      6  C   UNL     1      34.707 -15.731 -24.845  0.00  0.00    +0.136 C 
ATOM      7  C   UNL     1      35.018 -17.904 -24.169  0.00  0.00    +0.099 C 
BRANCH   5   9
ATOM      8  N   UNL     1      35.469 -22.127 -18.322  0.00  0.00    -0.242 NA
ATOM      9  C   UNL     1      35.593 -18.494 -21.847  0.00  0.00    +0.002 C 
ATOM     10  C   UNL     1      34.853 -20.231 -20.310  0.00  0.00    +0.003 C 
ATOM     11  C   UNL     1      34.572 -19.278 -21.303  0.00  0.00    +0.000 C 
ATOM     12  C   UNL     1      36.181 -20.389 -19.865  0.00  0.00    +0.019 C 
ATOM     13  C   UNL     1      36.905 -18.653 -21.403  0.00  0.00    +0.000 C 
ATOM     14  C   UNL     1      37.201 -19.596 -20.417  0.00  0.00    +0.002 C 
ATOM     15  C   UNL     1      33.851 -21.031 -19.748  0.00  0.00    +0.021 C 
ATOM     16  C   UNL     1      36.422 -21.345 -18.878  0.00  0.00    +0.099 C 
ATOM     17  C   UNL     1      34.208 -21.949 -18.773  0.00  0.00    +0.099 C 
ENDBRANCH   5   9
ENDBRANCH   1   3
BRANCH   1  18
ATOM     18  C   UNL     1      33.867 -13.173 -23.909  0.00  0.00    +0.184 C 
BRANCH  18  19
ATOM     19  C   UNL     1      34.432 -11.957 -24.651  0.00  0.00    -0.021 C 
BRANCH  19  20
ATOM     20  N   UNL     1      33.601 -11.700 -25.828  0.00  0.00    +0.384 N 
ATOM     21  H   UNL     1      34.006 -10.936 -26.370  0.00  0.00    -0.089 HD
ATOM     22  H   UNL     1      32.660 -11.444 -25.531  0.00  0.00    -0.089 HD
ATOM     23  H   UNL     1      33.560 -12.540 -26.405  0.00  0.00    -0.089 HD
ENDBRANCH  19  20
BRANCH  19  24
ATOM     24  C   UNL     1      34.494 -10.716 -23.735  0.00  0.00    -0.012 C 
BRANCH  24  26
ATOM     25  N   UNL     1      32.954  -7.877 -22.502  0.00  0.00    -0.270 NA
ATOM     26  C   UNL     1      33.163 -10.005 -23.572  0.00  0.00    +0.046 C 
ATOM     27  C   UNL     1      32.556 -10.155 -22.215  0.00  0.00    -0.007 C 
ATOM     28  C   UNL     1      33.349  -8.491 -23.576  0.00  0.00    +0.130 C 
ATOM     29  C   UNL     1      32.458  -8.879 -21.648  0.00  0.00    +0.071 C 
ATOM     30  C   UNL     1      32.122 -11.282 -21.543  0.00  0.00    -0.024 C 
ATOM     31  C   UNL     1      31.925  -8.704 -20.382  0.00  0.00    +0.014 C 
ATOM     32  C   UNL     1      31.583 -11.114 -20.266  0.00  0.00    +0.052 C 
ATOM     33  C   UNL     1      31.485  -9.836 -19.691  0.00  0.00    -0.020 C 
ENDBRANCH  24  26
ENDBRANCH  19  24
ENDBRANCH  18  19
ENDBRANCH   1  18
TORSDOF 7
ENDMDL
MODEL 5
REMARK VINA RESULT:     -11.8      3.099     11.886
REMARK  Name = 11840906
REMARK  7 active torsions:
REMARK  status: ('A' for Active; 'I' for Inactive)
REMARK    1  A    between atoms: O_1  and  C_3
REMARK    2  A    between atoms: O_1  and  C_18
REMARK    3  A    between atoms: C_5  and  C_9
REMARK    4  A    between atoms: C_18  and  C_19
REMARK    5  A    between atoms: C_19  and  N_20
REMARK    6  A    between atoms: C_19  and  C_24
REMARK    7  A    between atoms: C_24  and  C_26
REMARK                            x       y       z     vdW  Elec       q    Type
REMARK                         _______ _______ _______ _____ _____    ______ ____
ROOT
ATOM      1  O   UNL     1      34.816 -21.474 -19.943  0.00  0.00    -0.476 OA
ENDROOT
BRANCH   1   3
ATOM      2  N   UNL     1      37.615 -19.153 -20.211  0.00  0.00    -0.239 NA
ATOM      3  C   UNL     1      35.557 -20.392 -20.345  0.00  0.00    +0.158 C 
ATOM      4  C   UNL     1      35.037 -19.480 -21.245  0.00  0.00    +0.040 C 
ATOM      5  C   UNL     1      35.813 -18.393 -21.633  0.00  0.00    +0.022 C 
ATOM      6  C   UNL     1      36.832 -20.197 -19.858  0.00  0.00    +0.136 C 
ATOM      7  C   UNL     1      37.082 -18.276 -21.092  0.00  0.00    +0.099 C 
BRANCH   5   9
ATOM      8  N   UNL     1      33.774 -13.221 -24.954  0.00  0.00    -0.242 NA
ATOM      9  C   UNL     1      35.309 -17.416 -22.570  0.00  0.00    +0.002 C 
ATOM     10  C   UNL     1      34.762 -15.106 -23.111  0.00  0.00    +0.003 C 
ATOM     11  C   UNL     1      35.251 -16.067 -22.211  0.00  0.00    +0.000 C 
ATOM     12  C   UNL     1      34.328 -15.519 -24.387  0.00  0.00    +0.019 C 
ATOM     13  C   UNL     1      34.877 -17.819 -23.833  0.00  0.00    +0.000 C 
ATOM     14  C   UNL     1      34.388 -16.878 -24.739  0.00  0.00    +0.002 C 
ATOM     15  C   UNL     1      34.694 -13.747 -22.780  0.00  0.00    +0.021 C 
ATOM     16  C   UNL     1      33.849 -14.537 -25.255  0.00  0.00    +0.099 C 
ATOM     17  C   UNL     1      34.200 -12.861 -23.724  0.00  0.00    +0.099 C 
ENDBRANCH   5   9
ENDBRANCH   1   3
BRANCH   1  18
ATOM     18  C   UNL     1      35.104 -22.004 -18.656  0.00  0.00    +0.184 C 
BRANCH  18  19
ATOM     19  C   UNL     1      33.828 -22.024 -17.806  0.00  0.00    -0.021 C 
BRANCH  19  20
ATOM     20  N   UNL     1      32.670 -21.979 -18.699  0.00  0.00    +0.384 N 
ATOM     21  H   UNL     1      32.284 -22.918 -18.803  0.00  0.00    -0.089 HD
ATOM     22  H   UNL     1      32.959 -21.628 -19.613  0.00  0.00    -0.089 HD
ATOM     23  H   UNL     1      31.961 -21.361 -18.306  0.00  0.00    -0.089 HD
ENDBRANCH  19  20
BRANCH  19  24
ATOM     24  C   UNL     1      33.777 -23.269 -16.895  0.00  0.00    -0.012 C 
BRANCH  24  26
ATOM     25  N   UNL     1      33.000 -24.693 -13.842  0.00  0.00    -0.270 NA
ATOM     26  C   UNL     1      33.175 -23.005 -15.527  0.00  0.00    +0.046 C 
ATOM     27  C   UNL     1      31.760 -23.464 -15.387  0.00  0.00    -0.007 C 
ATOM     28  C   UNL     1      33.815 -23.898 -14.469  0.00  0.00    +0.130 C 
ATOM     29  C   UNL     1      31.728 -24.444 -14.386  0.00  0.00    +0.071 C 
ATOM     30  C   UNL     1      30.616 -23.066 -16.050  0.00  0.00    -0.024 C 
ATOM     31  C   UNL     1      30.537 -25.054 -14.032  0.00  0.00    +0.014 C 
ATOM     32  C   UNL     1      29.411 -23.678 -15.698  0.00  0.00    +0.052 C 
ATOM     33  C   UNL     1      29.372 -24.664 -14.698  0.00  0.00    -0.020 C 
ENDBRANCH  24  26
ENDBRANCH  19  24
ENDBRANCH  18  19
ENDBRANCH   1  18
TORSDOF 7
ENDMDL
MODEL 6
REMARK VINA RESULT:     -11.7      1.720      2.391
REMARK  Name = 11840906
REMARK  7 active torsions:
REMARK  status: ('A' for Active; 'I' for Inactive)
REMARK    1  A    between atoms: O_1  and  C_3
REMARK    2  A    between atoms: O_1  and  C_18
REMARK    3  A    between atoms: C_5  and  C_9
REMARK    4  A    between atoms: C_18  and  C_19
REMARK    5  A    between atoms: C_19  and  N_20
REMARK    6  A    between atoms: C_19  and  C_24
REMARK    7  A    between atoms: C_24  and  C_26
REMARK                            x       y       z     vdW  Elec       q    Type
REMARK                         _______ _______ _______ _____ _____    ______ ____
ROOT
ATOM      1  O   UNL     1      35.572 -14.721 -23.472  0.00  0.00    -0.476 OA
ENDROOT
BRANCH   1   3
ATOM      2  N   UNL     1      34.287 -17.844 -24.845  0.00  0.00    -0.239 NA
ATOM      3  C   UNL     1      35.224 -16.045 -23.552  0.00  0.00    +0.158 C 
ATOM      4  C   UNL     1      35.441 -16.894 -22.482  0.00  0.00    +0.040 C 
ATOM      5  C   UNL     1      35.078 -18.232 -22.593  0.00  0.00    +0.022 C 
ATOM      6  C   UNL     1      34.653 -16.551 -24.700  0.00  0.00    +0.136 C 
ATOM      7  C   UNL     1      34.509 -18.653 -23.784  0.00  0.00    +0.099 C 
BRANCH   5   9
ATOM      8  N   UNL     1      34.816 -22.508 -17.737  0.00  0.00    -0.242 NA
ATOM      9  C   UNL     1      35.286 -19.152 -21.500  0.00  0.00    +0.002 C 
ATOM     10  C   UNL     1      34.386 -20.720 -19.868  0.00  0.00    +0.003 C 
ATOM     11  C   UNL     1      34.198 -19.823 -20.933  0.00  0.00    +0.000 C 
ATOM     12  C   UNL     1      35.688 -20.938 -19.375  0.00  0.00    +0.019 C 
ATOM     13  C   UNL     1      36.572 -19.371 -21.007  0.00  0.00    +0.000 C 
ATOM     14  C   UNL     1      36.775 -20.259 -19.950  0.00  0.00    +0.002 C 
ATOM     15  C   UNL     1      33.315 -21.406 -19.281  0.00  0.00    +0.021 C 
ATOM     16  C   UNL     1      35.836 -21.836 -18.317  0.00  0.00    +0.099 C 
ATOM     17  C   UNL     1      33.582 -22.276 -18.235  0.00  0.00    +0.099 C 
ENDBRANCH   5   9
ENDBRANCH   1   3
BRANCH   1  18
ATOM     18  C   UNL     1      34.507 -13.779 -23.473  0.00  0.00    +0.184 C 
BRANCH  18  19
ATOM     19  C   UNL     1      33.685 -13.923 -22.188  0.00  0.00    -0.021 C 
BRANCH  19  20
ATOM     20  N   UNL     1      34.559 -13.673 -21.042  0.00  0.00    +0.384 N 
ATOM     21  H   UNL     1      35.395 -14.254 -21.119  0.00  0.00    -0.089 HD
ATOM     22  H   UNL     1      34.064 -13.902 -20.180  0.00  0.00    -0.089 HD
ATOM     23  H   UNL     1      34.829 -12.690 -21.029  0.00  0.00    -0.089 HD
ENDBRANCH  19  20
BRANCH  19  24
ATOM     24  C   UNL     1      32.475 -12.964 -22.182  0.00  0.00    -0.012 C 
BRANCH  24  26
ATOM     25  N   UNL     1      30.949 -10.211 -20.754  0.00  0.00    -0.270 NA
ATOM     26  C   UNL     1      32.719 -11.672 -21.424  0.00  0.00    +0.046 C 
ATOM     27  C   UNL     1      32.692 -10.449 -22.282  0.00  0.00    -0.007 C 
ATOM     28  C   UNL     1      31.540 -11.343 -20.515  0.00  0.00    +0.130 C 
ATOM     29  C   UNL     1      31.641  -9.638 -21.836  0.00  0.00    +0.071 C 
ATOM     30  C   UNL     1      33.502 -10.071 -23.336  0.00  0.00    -0.024 C 
ATOM     31  C   UNL     1      31.375  -8.424 -22.446  0.00  0.00    +0.014 C 
ATOM     32  C   UNL     1      33.239  -8.848 -23.956  0.00  0.00    +0.052 C 
ATOM     33  C   UNL     1      32.184  -8.032 -23.515  0.00  0.00    -0.020 C 
ENDBRANCH  24  26
ENDBRANCH  19  24
ENDBRANCH  18  19
ENDBRANCH   1  18
TORSDOF 7
ENDMDL
MODEL 7
REMARK VINA RESULT:     -11.6      3.203      6.078
REMARK  Name = 11840906
REMARK  7 active torsions:
REMARK  status: ('A' for Active; 'I' for Inactive)
REMARK    1  A    between atoms: O_1  and  C_3
REMARK    2  A    between atoms: O_1  and  C_18
REMARK    3  A    between atoms: C_5  and  C_9
REMARK    4  A    between atoms: C_18  and  C_19
REMARK    5  A    between atoms: C_19  and  N_20
REMARK    6  A    between atoms: C_19  and  C_24
REMARK    7  A    between atoms: C_24  and  C_26
REMARK                            x       y       z     vdW  Elec       q    Type
REMARK                         _______ _______ _______ _____ _____    ______ ____
ROOT
ATOM      1  O   UNL     1      31.619  -9.560 -21.752  0.00  0.00    -0.476 OA
ENDROOT
BRANCH   1   3
ATOM      2  N   UNL     1      33.903 -10.379 -24.473  0.00  0.00    -0.239 NA
ATOM      3  C   UNL     1      32.511 -10.270 -22.514  0.00  0.00    +0.158 C 
ATOM      4  C   UNL     1      32.913 -11.536 -22.128  0.00  0.00    +0.040 C 
ATOM      5  C   UNL     1      33.819 -12.231 -22.921  0.00  0.00    +0.022 C 
ATOM      6  C   UNL     1      33.022  -9.733 -23.677  0.00  0.00    +0.136 C 
ATOM      7  C   UNL     1      34.279 -11.615 -24.073  0.00  0.00    +0.099 C 
BRANCH   5   9
ATOM      8  N   UNL     1      35.833 -18.370 -22.470  0.00  0.00    -0.242 NA
ATOM      9  C   UNL     1      34.264 -13.555 -22.556  0.00  0.00    +0.002 C 
ATOM     10  C   UNL     1      34.967 -15.794 -23.207  0.00  0.00    +0.003 C 
ATOM     11  C   UNL     1      34.535 -14.502 -23.548  0.00  0.00    +0.000 C 
ATOM     12  C   UNL     1      35.127 -16.128 -21.847  0.00  0.00    +0.019 C 
ATOM     13  C   UNL     1      34.423 -13.892 -21.212  0.00  0.00    +0.000 C 
ATOM     14  C   UNL     1      34.852 -15.171 -20.856  0.00  0.00    +0.002 C 
ATOM     15  C   UNL     1      35.247 -16.762 -24.180  0.00  0.00    +0.021 C 
ATOM     16  C   UNL     1      35.559 -17.421 -21.546  0.00  0.00    +0.099 C 
ATOM     17  C   UNL     1      35.670 -18.014 -23.763  0.00  0.00    +0.099 C 
ENDBRANCH   5   9
ENDBRANCH   1   3
BRANCH   1  18
ATOM     18  C   UNL     1      31.998  -9.290 -20.409  0.00  0.00    +0.184 C 
BRANCH  18  19
ATOM     19  C   UNL     1      32.049  -7.777 -20.177  0.00  0.00    -0.021 C 
BRANCH  19  20
ATOM     20  N   UNL     1      33.356  -7.433 -19.615  0.00  0.00    +0.384 N 
ATOM     21  H   UNL     1      33.448  -6.418 -19.566  0.00  0.00    -0.089 HD
ATOM     22  H   UNL     1      34.092  -7.812 -20.211  0.00  0.00    -0.089 HD
ATOM     23  H   UNL     1      33.438  -7.828 -18.679  0.00  0.00    -0.089 HD
ENDBRANCH  19  20
BRANCH  19  24
ATOM     24  C   UNL     1      31.785  -6.997 -21.483  0.00  0.00    -0.012 C 
BRANCH  24  26
ATOM     25  N   UNL     1      32.270  -4.117 -23.331  0.00  0.00    -0.270 NA
ATOM     26  C   UNL     1      32.676  -5.783 -21.665  0.00  0.00    +0.046 C 
ATOM     27  C   UNL     1      33.656  -5.909 -22.786  0.00  0.00    -0.007 C 
ATOM     28  C   UNL     1      31.877  -4.594 -22.189  0.00  0.00    +0.130 C 
ATOM     29  C   UNL     1      33.366  -4.907 -23.720  0.00  0.00    +0.071 C 
ATOM     30  C   UNL     1      34.699  -6.795 -22.972  0.00  0.00    -0.024 C 
ATOM     31  C   UNL     1      34.120  -4.775 -24.874  0.00  0.00    +0.014 C 
ATOM     32  C   UNL     1      35.463  -6.669 -24.134  0.00  0.00    +0.052 C 
ATOM     33  C   UNL     1      35.176  -5.668 -25.077  0.00  0.00    -0.020 C 
ENDBRANCH  24  26
ENDBRANCH  19  24
ENDBRANCH  18  19
ENDBRANCH   1  18
TORSDOF 7
ENDMDL
MODEL 8
REMARK VINA RESULT:     -11.6      2.083     10.651
REMARK  Name = 11840906
REMARK  7 active torsions:
REMARK  status: ('A' for Active; 'I' for Inactive)
REMARK    1  A    between atoms: O_1  and  C_3
REMARK    2  A    between atoms: O_1  and  C_18
REMARK    3  A    between atoms: C_5  and  C_9
REMARK    4  A    between atoms: C_18  and  C_19
REMARK    5  A    between atoms: C_19  and  N_20
REMARK    6  A    between atoms: C_19  and  C_24
REMARK    7  A    between atoms: C_24  and  C_26
REMARK                            x       y       z     vdW  Elec       q    Type
REMARK                         _______ _______ _______ _____ _____    ______ ____
ROOT
ATOM      1  O   UNL     1      35.990 -17.262 -22.007  0.00  0.00    -0.476 OA
ENDROOT
BRANCH   1   3
ATOM      2  N   UNL     1      34.380 -16.312 -25.136  0.00  0.00    -0.239 NA
ATOM      3  C   UNL     1      35.323 -16.500 -22.931  0.00  0.00    +0.158 C 
ATOM      4  C   UNL     1      34.927 -15.211 -22.624  0.00  0.00    +0.040 C 
ATOM      5  C   UNL     1      34.252 -14.463 -23.583  0.00  0.00    +0.022 C 
ATOM      6  C   UNL     1      35.034 -17.008 -24.179  0.00  0.00    +0.136 C 
ATOM      7  C   UNL     1      34.006 -15.054 -24.811  0.00  0.00    +0.099 C 
BRANCH   5   9
ATOM      8  N   UNL     1      31.749  -8.902 -21.402  0.00  0.00    -0.242 NA
ATOM      9  C   UNL     1      33.822 -13.113 -23.305  0.00  0.00    +0.002 C 
ATOM     10  C   UNL     1      32.576 -11.543 -21.922  0.00  0.00    +0.003 C 
ATOM     11  C   UNL     1      33.003 -12.851 -22.203  0.00  0.00    +0.000 C 
ATOM     12  C   UNL     1      32.985 -10.491 -22.766  0.00  0.00    +0.019 C 
ATOM     13  C   UNL     1      34.223 -12.068 -24.137  0.00  0.00    +0.000 C 
ATOM     14  C   UNL     1      33.808 -10.763 -23.872  0.00  0.00    +0.002 C 
ATOM     15  C   UNL     1      31.756 -11.252 -20.825  0.00  0.00    +0.021 C 
ATOM     16  C   UNL     1      32.542  -9.205 -22.455  0.00  0.00    +0.099 C 
ATOM     17  C   UNL     1      31.378  -9.935 -20.615  0.00  0.00    +0.099 C 
ENDBRANCH   5   9
ENDBRANCH   1   3
BRANCH   1  18
ATOM     18  C   UNL     1      36.226 -18.622 -22.348  0.00  0.00    +0.184 C 
BRANCH  18  19
ATOM     19  C   UNL     1      36.537 -19.429 -21.084  0.00  0.00    -0.021 C 
BRANCH  19  20
ATOM     20  N   UNL     1      37.454 -18.653 -20.247  0.00  0.00    +0.384 N 
ATOM     21  H   UNL     1      37.324 -18.914 -19.269  0.00  0.00    -0.089 HD
ATOM     22  H   UNL     1      37.260 -17.658 -20.362  0.00  0.00    -0.089 HD
ATOM     23  H   UNL     1      38.415 -18.847 -20.526  0.00  0.00    -0.089 HD
ENDBRANCH  19  20
BRANCH  19  24
ATOM     24  C   UNL     1      35.249 -19.786 -20.311  0.00  0.00    -0.012 C 
BRANCH  24  26
ATOM     25  N   UNL     1      33.304 -22.149 -18.705  0.00  0.00    -0.270 NA
ATOM     26  C   UNL     1      35.107 -21.264 -20.003  0.00  0.00    +0.046 C 
ATOM     27  C   UNL     1      35.580 -21.650 -18.639  0.00  0.00    -0.007 C 
ATOM     28  C   UNL     1      33.639 -21.652 -19.857  0.00  0.00    +0.130 C 
ATOM     29  C   UNL     1      34.482 -22.162 -17.937  0.00  0.00    +0.071 C 
ATOM     30  C   UNL     1      36.836 -21.576 -18.069  0.00  0.00    -0.024 C 
ATOM     31  C   UNL     1      34.621 -22.608 -16.633  0.00  0.00    +0.014 C 
ATOM     32  C   UNL     1      36.983 -22.024 -16.754  0.00  0.00    +0.052 C 
ATOM     33  C   UNL     1      35.885 -22.535 -16.043  0.00  0.00    -0.020 C 
ENDBRANCH  24  26
ENDBRANCH  19  24
ENDBRANCH  18  19
ENDBRANCH   1  18
TORSDOF 7
ENDMDL
MODEL 9
REMARK VINA RESULT:     -11.4      3.468     11.763
REMARK  Name = 11840906
REMARK  7 active torsions:
REMARK  status: ('A' for Active; 'I' for Inactive)
REMARK    1  A    between atoms: O_1  and  C_3
REMARK    2  A    between atoms: O_1  and  C_18
REMARK    3  A    between atoms: C_5  and  C_9
REMARK    4  A    between atoms: C_18  and  C_19
REMARK    5  A    between atoms: C_19  and  N_20
REMARK    6  A    between atoms: C_19  and  C_24
REMARK    7  A    between atoms: C_24  and  C_26
REMARK                            x       y       z     vdW  Elec       q    Type
REMARK                         _______ _______ _______ _____ _____    ______ ____
ROOT
ATOM      1  O   UNL     1      31.864 -12.005 -21.811  0.00  0.00    -0.476 OA
ENDROOT
BRANCH   1   3
ATOM      2  N   UNL     1      31.951  -9.288 -19.383  0.00  0.00    -0.239 NA
ATOM      3  C   UNL     1      31.949 -10.734 -21.306  0.00  0.00    +0.158 C 
ATOM      4  C   UNL     1      32.112  -9.651 -22.151  0.00  0.00    +0.040 C 
ATOM      5  C   UNL     1      32.196  -8.373 -21.608  0.00  0.00    +0.022 C 
ATOM      6  C   UNL     1      31.875 -10.514 -19.947  0.00  0.00    +0.136 C 
ATOM      7  C   UNL     1      32.110  -8.247 -20.232  0.00  0.00    +0.099 C 
BRANCH   5   9
ATOM      8  N   UNL     1      34.024  -3.671 -25.668  0.00  0.00    -0.242 NA
ATOM      9  C   UNL     1      32.365  -7.216 -22.454  0.00  0.00    +0.002 C 
ATOM     10  C   UNL     1      33.716  -5.937 -24.026  0.00  0.00    +0.003 C 
ATOM     11  C   UNL     1      33.537  -7.059 -23.200  0.00  0.00    +0.000 C 
ATOM     12  C   UNL     1      32.696  -4.967 -24.096  0.00  0.00    +0.019 C 
ATOM     13  C   UNL     1      31.360  -6.252 -22.527  0.00  0.00    +0.000 C 
ATOM     14  C   UNL     1      31.522  -5.131 -23.343  0.00  0.00    +0.002 C 
ATOM     15  C   UNL     1      34.879  -5.754 -24.785  0.00  0.00    +0.021 C 
ATOM     16  C   UNL     1      32.909  -3.866 -24.928  0.00  0.00    +0.099 C 
ATOM     17  C   UNL     1      34.979  -4.621 -25.577  0.00  0.00    +0.099 C 
ENDBRANCH   5   9
ENDBRANCH   1   3
BRANCH   1  18
ATOM     18  C   UNL     1      32.901 -12.908 -21.450  0.00  0.00    +0.184 C 
BRANCH  18  19
ATOM     19  C   UNL     1      33.667 -13.347 -22.703  0.00  0.00    -0.021 C 
BRANCH  19  20
ATOM     20  N   UNL     1      34.397 -12.194 -23.232  0.00  0.00    +0.384 N 
ATOM     21  H   UNL     1      35.400 -12.361 -23.150  0.00  0.00    -0.089 HD
ATOM     22  H   UNL     1      34.147 -11.360 -22.701  0.00  0.00    -0.089 HD
ATOM     23  H   UNL     1      34.154 -12.059 -24.213  0.00  0.00    -0.089 HD
ENDBRANCH  19  20
BRANCH  19  24
ATOM     24  C   UNL     1      34.625 -14.517 -22.396  0.00  0.00    -0.012 C 
BRANCH  24  26
ATOM     25  N   UNL     1      33.773 -16.305 -25.230  0.00  0.00    -0.270 NA
ATOM     26  C   UNL     1      35.172 -15.203 -23.634  0.00  0.00    +0.046 C 
ATOM     27  C   UNL     1      35.292 -16.687 -23.504  0.00  0.00    -0.007 C 
ATOM     28  C   UNL     1      34.164 -15.152 -24.777  0.00  0.00    +0.130 C 
ATOM     29  C   UNL     1      34.455 -17.268 -24.465  0.00  0.00    +0.071 C 
ATOM     30  C   UNL     1      36.056 -17.456 -22.648  0.00  0.00    -0.024 C 
ATOM     31  C   UNL     1      34.361 -18.644 -24.584  0.00  0.00    +0.014 C 
ATOM     32  C   UNL     1      35.967 -18.845 -22.762  0.00  0.00    +0.052 C 
ATOM     33  C   UNL     1      35.126 -19.434 -23.721  0.00  0.00    -0.020 C 
ENDBRANCH  24  26
ENDBRANCH  19  24
ENDBRANCH  18  19
ENDBRANCH   1  18
TORSDOF 7
ENDMDL
