MODEL 1
REMARK VINA RESULT:     -11.2      0.000      0.000
REMARK  Name = 8969
REMARK  3 active torsions:
REMARK  status: ('A' for Active; 'I' for Inactive)
REMARK    1  A    between atoms: C_7  and  C_27
REMARK    2  A    between atoms: C_10  and  O_24
REMARK    3  A    between atoms: C_27  and  O_28
REMARK                            x       y       z     vdW  Elec       q    Type
REMARK                         _______ _______ _______ _____ _____    ______ ____
ROOT
ATOM      1  N   UNL     1      34.348 -23.024 -16.061  0.00  0.00    +0.392 N 
ATOM      2  N   UNL     1      33.162 -21.575 -19.302  0.00  0.00    -0.358 N 
ATOM      3  C   UNL     1      31.528 -23.677 -15.621  0.00  0.00    +0.009 C 
ATOM      4  C   UNL     1      32.582 -23.719 -14.493  0.00  0.00    -0.020 C 
ATOM      5  C   UNL     1      31.983 -22.676 -16.700  0.00  0.00    -0.015 C 
ATOM      6  C   UNL     1      33.393 -23.025 -17.204  0.00  0.00    -0.019 C 
ATOM      7  C   UNL     1      30.142 -23.338 -15.038  0.00  0.00    +0.126 C 
ATOM      8  C   UNL     1      33.976 -24.032 -15.059  0.00  0.00    -0.077 C 
ATOM      9  C   UNL     1      32.185 -24.721 -13.403  0.00  0.00    +0.000 C 
ATOM     10  C   UNL     1      29.736 -24.330 -13.935  0.00  0.00    +0.121 C 
ATOM     11  C   UNL     1      30.798 -24.402 -12.837  0.00  0.00    +0.030 C 
ATOM     12  C   UNL     1      33.882 -22.074 -18.253  0.00  0.00    +0.010 A 
ATOM     13  C   UNL     1      35.746 -23.199 -16.512  0.00  0.00    -0.072 C 
ATOM     14  C   UNL     1      35.177 -21.611 -18.358  0.00  0.00    -0.013 A 
ATOM     15  C   UNL     1      36.215 -21.995 -17.363  0.00  0.00    +0.005 C 
ATOM     16  C   UNL     1      35.244 -20.768 -19.499  0.00  0.00    +0.013 A 
ATOM     17  C   UNL     1      33.967 -20.763 -20.073  0.00  0.00    +0.056 A 
ATOM     18  C   UNL     1      36.263 -20.009 -20.108  0.00  0.00    +0.001 C 
ATOM     19  C   UNL     1      33.663 -20.033 -21.229  0.00  0.00    +0.017 C 
ATOM     20  C   UNL     1      35.971 -19.274 -21.263  0.00  0.00    +0.000 C 
ATOM     21  C   UNL     1      34.691 -19.287 -21.813  0.00  0.00    +0.001 C 
ATOM     22  H   UNL     1      34.291 -22.108 -15.617  0.00  0.00    -0.079 HD
ATOM     23  H   UNL     1      32.213 -21.766 -19.480  0.00  0.00    +0.166 HD
ENDROOT
BRANCH  10  24
ATOM     24  O   UNL     1      29.568 -25.633 -14.498  0.00  0.00    -0.384 OA
ATOM     25  H   UNL     1      29.838 -26.303 -13.851  0.00  0.00    +0.210 HD
ENDBRANCH  10  24
BRANCH   7  27
ATOM     26  O   UNL     1      28.743 -24.332 -16.732  0.00  0.00    -0.250 OA
ATOM     27  C   UNL     1      29.084 -23.337 -16.103  0.00  0.00    +0.319 C 
BRANCH  27  28
ATOM     28  O   UNL     1      28.581 -22.078 -16.246  0.00  0.00    -0.444 OA
ATOM     29  C   UNL     1      27.171 -21.951 -16.039  0.00  0.00    +0.256 C 
ENDBRANCH  27  28
ENDBRANCH   7  27
TORSDOF 3
ENDMDL
MODEL 2
REMARK VINA RESULT:      -8.7     12.523     15.752
REMARK  Name = 8969
REMARK  3 active torsions:
REMARK  status: ('A' for Active; 'I' for Inactive)
REMARK    1  A    between atoms: C_7  and  C_27
REMARK    2  A    between atoms: C_10  and  O_24
REMARK    3  A    between atoms: C_27  and  O_28
REMARK                            x       y       z     vdW  Elec       q    Type
REMARK                         _______ _______ _______ _____ _____    ______ ____
ROOT
ATOM      1  N   UNL     1      32.125  -7.932 -20.954  0.00  0.00    +0.392 N 
ATOM      2  N   UNL     1      33.705  -6.384 -23.973  0.00  0.00    -0.358 N 
ATOM      3  C   UNL     1      33.127 -10.457 -22.048  0.00  0.00    +0.009 C 
ATOM      4  C   UNL     1      32.072 -10.393 -20.922  0.00  0.00    -0.020 C 
ATOM      5  C   UNL     1      33.046  -9.170 -22.890  0.00  0.00    -0.015 C 
ATOM      6  C   UNL     1      33.190  -7.927 -21.996  0.00  0.00    -0.019 C 
ATOM      7  C   UNL     1      32.929 -11.734 -22.888  0.00  0.00    +0.126 C 
ATOM      8  C   UNL     1      32.238  -9.113 -20.088  0.00  0.00    -0.077 C 
ATOM      9  C   UNL     1      32.129 -11.646 -20.040  0.00  0.00    +0.000 C 
ATOM     10  C   UNL     1      32.974 -12.998 -22.012  0.00  0.00    +0.121 C 
ATOM     11  C   UNL     1      31.956 -12.918 -20.873  0.00  0.00    +0.030 C 
ATOM     12  C   UNL     1      33.111  -6.647 -22.771  0.00  0.00    +0.010 A 
ATOM     13  C   UNL     1      32.120  -6.681 -20.166  0.00  0.00    -0.072 C 
ATOM     14  C   UNL     1      32.475  -5.501 -22.342  0.00  0.00    -0.013 A 
ATOM     15  C   UNL     1      31.744  -5.466 -21.046  0.00  0.00    +0.005 C 
ATOM     16  C   UNL     1      32.661  -4.505 -23.338  0.00  0.00    +0.013 A 
ATOM     17  C   UNL     1      33.434  -5.084 -24.350  0.00  0.00    +0.056 A 
ATOM     18  C   UNL     1      32.252  -3.164 -23.481  0.00  0.00    +0.001 C 
ATOM     19  C   UNL     1      33.819  -4.383 -25.499  0.00  0.00    +0.017 C 
ATOM     20  C   UNL     1      32.628  -2.453 -24.627  0.00  0.00    +0.000 C 
ATOM     21  C   UNL     1      33.399  -3.055 -25.618  0.00  0.00    +0.001 C 
ATOM     22  H   UNL     1      31.228  -7.984 -21.436  0.00  0.00    -0.079 HD
ATOM     23  H   UNL     1      34.243  -7.023 -24.493  0.00  0.00    +0.166 HD
ENDROOT
BRANCH  10  24
ATOM     24  O   UNL     1      34.279 -13.148 -21.451  0.00  0.00    -0.384 OA
ATOM     25  H   UNL     1      34.234 -13.730 -20.676  0.00  0.00    +0.210 HD
ENDBRANCH  10  24
BRANCH   7  27
ATOM     26  O   UNL     1      34.639 -10.912 -24.375  0.00  0.00    -0.250 OA
ATOM     27  C   UNL     1      33.971 -11.851 -23.962  0.00  0.00    +0.319 C 
BRANCH  27  28
ATOM     28  O   UNL     1      34.045 -13.145 -24.386  0.00  0.00    -0.444 OA
ATOM     29  C   UNL     1      33.608 -13.377 -25.729  0.00  0.00    +0.256 C 
ENDBRANCH  27  28
ENDBRANCH   7  27
TORSDOF 3
ENDMDL
