MODEL 1
REMARK VINA RESULT:     -12.1      0.000      0.000
REMARK  Name = 11610526
REMARK  3 active torsions:
REMARK  status: ('A' for Active; 'I' for Inactive)
REMARK    1  A    between atoms: C_2  and  C_21
REMARK    2  A    between atoms: C_9  and  C_14
REMARK    3  A    between atoms: C_21  and  C_23
REMARK                            x       y       z     vdW  Elec       q    Type
REMARK                         _______ _______ _______ _____ _____    ______ ____
ROOT
ATOM      1  N   UNL     1      35.296 -17.193 -22.459  0.00  0.00    -0.388 NA
ATOM      2  C   UNL     1      35.490 -18.514 -22.471  0.00  0.00    +0.167 C 
ATOM      3  C   UNL     1      35.202 -19.376 -23.493  0.00  0.00    +0.031 C 
ATOM      4  C   UNL     1      34.757 -16.686 -23.590  0.00  0.00    +0.167 C 
ATOM      5  C   UNL     1      34.648 -18.818 -24.640  0.00  0.00    -0.015 C 
ATOM      6  C   UNL     1      34.419 -17.447 -24.697  0.00  0.00    +0.101 C 
ATOM      7  O   UNL     1      33.601 -15.024 -25.802  0.00  0.00    -0.270 OA
ATOM      8  N   UNL     1      34.522 -15.308 -23.658  0.00  0.00    -0.259 N 
ATOM      9  C   UNL     1      33.977 -14.581 -24.721  0.00  0.00    +0.255 C 
ATOM     10  H   UNL     1      34.769 -14.787 -22.860  0.00  0.00    +0.157 HD
ENDROOT
BRANCH   9  14
ATOM     11  F   UNL     1      34.332 -12.735 -26.802  0.00  0.00    -0.204 F 
ATOM     12  F   UNL     1      33.424 -13.483 -22.200  0.00  0.00    -0.204 F 
ATOM     13  F   UNL     1      33.606  -9.071 -23.897  0.00  0.00    -0.204 F 
ATOM     14  C   UNL     1      33.878 -13.115 -24.502  0.00  0.00    +0.109 C 
ATOM     15  C   UNL     1      34.065 -12.267 -25.575  0.00  0.00    +0.149 C 
ATOM     16  C   UNL     1      33.603 -12.649 -23.234  0.00  0.00    +0.149 C 
ATOM     17  C   UNL     1      33.972 -10.891 -25.368  0.00  0.00    +0.060 C 
ATOM     18  C   UNL     1      33.511 -11.272 -23.028  0.00  0.00    +0.060 C 
ATOM     19  C   UNL     1      33.696 -10.393 -24.095  0.00  0.00    +0.145 C 
ENDBRANCH   9  14
BRANCH   2  21
ATOM     20  O   UNL     1      37.009 -18.466 -20.667  0.00  0.00    -0.289 OA
ATOM     21  C   UNL     1      36.083 -19.058 -21.217  0.00  0.00    +0.202 C 
BRANCH  21  23
ATOM     22  N   UNL     1      34.278 -21.670 -18.371  0.00  0.00    +0.386 N 
ATOM     23  C   UNL     1      35.536 -20.328 -20.644  0.00  0.00    +0.060 C 
ATOM     24  C   UNL     1      34.058 -20.141 -20.303  0.00  0.00    -0.015 C 
ATOM     25  C   UNL     1      36.322 -20.727 -19.396  0.00  0.00    -0.015 C 
ATOM     26  C   UNL     1      33.497 -21.366 -19.577  0.00  0.00    -0.077 C 
ATOM     27  C   UNL     1      35.685 -21.932 -18.701  0.00  0.00    -0.077 C 
ATOM     28  C   UNL     1      33.698 -22.809 -17.660  0.00  0.00    -0.101 C 
ATOM     29  H   UNL     1      34.245 -20.853 -17.760  0.00  0.00    -0.080 HD
ENDBRANCH  21  23
ENDBRANCH   2  21
TORSDOF 3
ENDMDL
MODEL 2
REMARK VINA RESULT:     -12.1      0.005      1.592
REMARK  Name = 11610526
REMARK  3 active torsions:
REMARK  status: ('A' for Active; 'I' for Inactive)
REMARK    1  A    between atoms: C_2  and  C_21
REMARK    2  A    between atoms: C_9  and  C_14
REMARK    3  A    between atoms: C_21  and  C_23
REMARK                            x       y       z     vdW  Elec       q    Type
REMARK                         _______ _______ _______ _____ _____    ______ ____
ROOT
ATOM      1  N   UNL     1      35.297 -17.193 -22.462  0.00  0.00    -0.388 NA
ATOM      2  C   UNL     1      35.491 -18.514 -22.472  0.00  0.00    +0.167 C 
ATOM      3  C   UNL     1      35.204 -19.377 -23.494  0.00  0.00    +0.031 C 
ATOM      4  C   UNL     1      34.758 -16.687 -23.593  0.00  0.00    +0.167 C 
ATOM      5  C   UNL     1      34.652 -18.819 -24.642  0.00  0.00    -0.015 C 
ATOM      6  C   UNL     1      34.421 -17.448 -24.700  0.00  0.00    +0.101 C 
ATOM      7  O   UNL     1      33.604 -15.026 -25.806  0.00  0.00    -0.270 OA
ATOM      8  N   UNL     1      34.524 -15.308 -23.662  0.00  0.00    -0.259 N 
ATOM      9  C   UNL     1      33.979 -14.583 -24.726  0.00  0.00    +0.255 C 
ATOM     10  H   UNL     1      34.770 -14.787 -22.864  0.00  0.00    +0.157 HD
ENDROOT
BRANCH   9  14
ATOM     11  F   UNL     1      33.427 -13.484 -22.205  0.00  0.00    -0.204 F 
ATOM     12  F   UNL     1      34.331 -12.737 -26.808  0.00  0.00    -0.204 F 
ATOM     13  F   UNL     1      33.605  -9.072 -23.906  0.00  0.00    -0.204 F 
ATOM     14  C   UNL     1      33.879 -13.116 -24.507  0.00  0.00    +0.109 C 
ATOM     15  C   UNL     1      33.604 -12.649 -23.238  0.00  0.00    +0.149 C 
ATOM     16  C   UNL     1      34.065 -12.270 -25.580  0.00  0.00    +0.149 C 
ATOM     17  C   UNL     1      33.511 -11.272 -23.034  0.00  0.00    +0.060 C 
ATOM     18  C   UNL     1      33.970 -10.893 -25.375  0.00  0.00    +0.060 C 
ATOM     19  C   UNL     1      33.693 -10.394 -24.102  0.00  0.00    +0.145 C 
ENDBRANCH   9  14
BRANCH   2  21
ATOM     20  O   UNL     1      37.009 -18.464 -20.667  0.00  0.00    -0.289 OA
ATOM     21  C   UNL     1      36.084 -19.057 -21.218  0.00  0.00    +0.202 C 
BRANCH  21  23
ATOM     22  N   UNL     1      34.279 -21.670 -18.372  0.00  0.00    +0.386 N 
ATOM     23  C   UNL     1      35.538 -20.328 -20.645  0.00  0.00    +0.060 C 
ATOM     24  C   UNL     1      34.059 -20.142 -20.305  0.00  0.00    -0.015 C 
ATOM     25  C   UNL     1      36.323 -20.726 -19.397  0.00  0.00    -0.015 C 
ATOM     26  C   UNL     1      33.499 -21.367 -19.579  0.00  0.00    -0.077 C 
ATOM     27  C   UNL     1      35.687 -21.931 -18.702  0.00  0.00    -0.077 C 
ATOM     28  C   UNL     1      33.700 -22.810 -17.662  0.00  0.00    -0.101 C 
ATOM     29  H   UNL     1      34.246 -20.853 -17.762  0.00  0.00    -0.080 HD
ENDBRANCH  21  23
ENDBRANCH   2  21
TORSDOF 3
ENDMDL
MODEL 3
REMARK VINA RESULT:     -12.0      1.024      1.891
REMARK  Name = 11610526
REMARK  3 active torsions:
REMARK  status: ('A' for Active; 'I' for Inactive)
REMARK    1  A    between atoms: C_2  and  C_21
REMARK    2  A    between atoms: C_9  and  C_14
REMARK    3  A    between atoms: C_21  and  C_23
REMARK                            x       y       z     vdW  Elec       q    Type
REMARK                         _______ _______ _______ _____ _____    ______ ____
ROOT
ATOM      1  N   UNL     1      35.245 -16.520 -22.259  0.00  0.00    -0.388 NA
ATOM      2  C   UNL     1      35.581 -17.788 -22.509  0.00  0.00    +0.167 C 
ATOM      3  C   UNL     1      35.479 -18.441 -23.706  0.00  0.00    +0.031 C 
ATOM      4  C   UNL     1      34.754 -15.840 -23.318  0.00  0.00    +0.167 C 
ATOM      5  C   UNL     1      34.970 -17.709 -24.774  0.00  0.00    -0.015 C 
ATOM      6  C   UNL     1      34.599 -16.382 -24.584  0.00  0.00    +0.101 C 
ATOM      7  O   UNL     1      33.622 -13.865 -25.270  0.00  0.00    -0.270 OA
ATOM      8  N   UNL     1      34.378 -14.503 -23.138  0.00  0.00    -0.259 N 
ATOM      9  C   UNL     1      33.852 -13.624 -24.089  0.00  0.00    +0.255 C 
ATOM     10  H   UNL     1      34.497 -14.139 -22.232  0.00  0.00    +0.157 HD
ENDROOT
BRANCH   9  14
ATOM     11  F   UNL     1      32.199 -13.136 -21.877  0.00  0.00    -0.204 F 
ATOM     12  F   UNL     1      34.950 -11.352 -25.314  0.00  0.00    -0.204 F 
ATOM     13  F   UNL     1      32.813  -8.459 -22.241  0.00  0.00    -0.204 F 
ATOM     14  C   UNL     1      33.575 -12.250 -23.597  0.00  0.00    +0.109 C 
ATOM     15  C   UNL     1      32.751 -12.087 -22.503  0.00  0.00    +0.149 C 
ATOM     16  C   UNL     1      34.151 -11.180 -24.251  0.00  0.00    +0.149 C 
ATOM     17  C   UNL     1      32.492 -10.796 -22.042  0.00  0.00    +0.060 C 
ATOM     18  C   UNL     1      33.891  -9.890 -23.789  0.00  0.00    +0.060 C 
ATOM     19  C   UNL     1      33.061  -9.698 -22.685  0.00  0.00    +0.145 C 
ENDBRANCH   9  14
BRANCH   2  21
ATOM     20  O   UNL     1      37.047 -18.050 -20.681  0.00  0.00    -0.289 OA
ATOM     21  C   UNL     1      36.119 -18.524 -21.331  0.00  0.00    +0.202 C 
BRANCH  21  23
ATOM     22  N   UNL     1      34.253 -21.480 -18.889  0.00  0.00    +0.386 N 
ATOM     23  C   UNL     1      35.512 -19.841 -20.957  0.00  0.00    +0.060 C 
ATOM     24  C   UNL     1      34.062 -19.631 -20.522  0.00  0.00    -0.015 C 
ATOM     25  C   UNL     1      36.315 -20.493 -19.833  0.00  0.00    -0.015 C 
ATOM     26  C   UNL     1      33.450 -20.929 -19.989  0.00  0.00    -0.077 C 
ATOM     27  C   UNL     1      35.628 -21.761 -19.324  0.00  0.00    -0.077 C 
ATOM     28  C   UNL     1      33.627 -22.690 -18.356  0.00  0.00    -0.101 C 
ATOM     29  H   UNL     1      34.295 -20.779 -18.148  0.00  0.00    -0.080 HD
ENDBRANCH  21  23
ENDBRANCH   2  21
TORSDOF 3
ENDMDL
MODEL 4
REMARK VINA RESULT:     -11.7      3.227      5.892
REMARK  Name = 11610526
REMARK  3 active torsions:
REMARK  status: ('A' for Active; 'I' for Inactive)
REMARK    1  A    between atoms: C_2  and  C_21
REMARK    2  A    between atoms: C_9  and  C_14
REMARK    3  A    between atoms: C_21  and  C_23
REMARK                            x       y       z     vdW  Elec       q    Type
REMARK                         _______ _______ _______ _____ _____    ______ ____
ROOT
ATOM      1  N   UNL     1      34.588 -21.241 -19.355  0.00  0.00    -0.388 NA
ATOM      2  C   UNL     1      34.942 -22.037 -18.343  0.00  0.00    +0.167 C 
ATOM      3  C   UNL     1      36.166 -22.093 -17.734  0.00  0.00    +0.031 C 
ATOM      4  C   UNL     1      35.562 -20.417 -19.801  0.00  0.00    +0.167 C 
ATOM      5  C   UNL     1      37.142 -21.230 -18.220  0.00  0.00    -0.015 C 
ATOM      6  C   UNL     1      36.842 -20.373 -19.273  0.00  0.00    +0.101 C 
ATOM      7  O   UNL     1      37.293 -18.399 -21.186  0.00  0.00    -0.270 OA
ATOM      8  N   UNL     1      35.269 -19.549 -20.860  0.00  0.00    -0.259 N 
ATOM      9  C   UNL     1      36.121 -18.624 -21.471  0.00  0.00    +0.255 C 
ATOM     10  H   UNL     1      34.354 -19.598 -21.219  0.00  0.00    +0.157 HD
ENDROOT
BRANCH   9  14
ATOM     11  F   UNL     1      35.451 -19.744 -23.953  0.00  0.00    -0.204 F 
ATOM     12  F   UNL     1      35.558 -15.891 -21.176  0.00  0.00    -0.204 F 
ATOM     13  F   UNL     1      33.815 -15.607 -25.564  0.00  0.00    -0.204 F 
ATOM     14  C   UNL     1      35.507 -17.821 -22.560  0.00  0.00    +0.109 C 
ATOM     15  C   UNL     1      35.205 -18.441 -23.755  0.00  0.00    +0.149 C 
ATOM     16  C   UNL     1      35.259 -16.482 -22.342  0.00  0.00    +0.149 C 
ATOM     17  C   UNL     1      34.629 -17.687 -24.777  0.00  0.00    +0.060 C 
ATOM     18  C   UNL     1      34.684 -15.728 -23.365  0.00  0.00    +0.060 C 
ATOM     19  C   UNL     1      34.369 -16.331 -24.583  0.00  0.00    +0.145 C 
ENDBRANCH   9  14
BRANCH   2  21
ATOM     20  O   UNL     1      33.474 -23.870 -18.570  0.00  0.00    -0.289 OA
ATOM     21  C   UNL     1      33.858 -22.940 -17.864  0.00  0.00    +0.202 C 
BRANCH  21  23
ATOM     22  N   UNL     1      31.652 -23.743 -14.304  0.00  0.00    +0.386 N 
ATOM     23  C   UNL     1      33.249 -22.695 -16.518  0.00  0.00    +0.060 C 
ATOM     24  C   UNL     1      33.811 -23.700 -15.512  0.00  0.00    -0.015 C 
ATOM     25  C   UNL     1      31.728 -22.816 -16.596  0.00  0.00    -0.015 C 
ATOM     26  C   UNL     1      33.105 -23.583 -14.159  0.00  0.00    -0.077 C 
ATOM     27  C   UNL     1      31.093 -22.728 -15.207  0.00  0.00    -0.077 C 
ATOM     28  C   UNL     1      30.998 -23.682 -12.997  0.00  0.00    -0.101 C 
ATOM     29  H   UNL     1      31.476 -24.661 -14.715  0.00  0.00    -0.080 HD
ENDBRANCH  21  23
ENDBRANCH   2  21
TORSDOF 3
ENDMDL
MODEL 5
REMARK VINA RESULT:     -11.7      3.220      5.975
REMARK  Name = 11610526
REMARK  3 active torsions:
REMARK  status: ('A' for Active; 'I' for Inactive)
REMARK    1  A    between atoms: C_2  and  C_21
REMARK    2  A    between atoms: C_9  and  C_14
REMARK    3  A    between atoms: C_21  and  C_23
REMARK                            x       y       z     vdW  Elec       q    Type
REMARK                         _______ _______ _______ _____ _____    ______ ____
ROOT
ATOM      1  N   UNL     1      34.586 -21.235 -19.365  0.00  0.00    -0.388 NA
ATOM      2  C   UNL     1      34.941 -22.033 -18.354  0.00  0.00    +0.167 C 
ATOM      3  C   UNL     1      36.163 -22.088 -17.743  0.00  0.00    +0.031 C 
ATOM      4  C   UNL     1      35.560 -20.410 -19.809  0.00  0.00    +0.167 C 
ATOM      5  C   UNL     1      37.140 -21.223 -18.227  0.00  0.00    -0.015 C 
ATOM      6  C   UNL     1      36.840 -20.365 -19.279  0.00  0.00    +0.101 C 
ATOM      7  O   UNL     1      37.291 -18.388 -21.189  0.00  0.00    -0.270 OA
ATOM      8  N   UNL     1      35.268 -19.541 -20.867  0.00  0.00    -0.259 N 
ATOM      9  C   UNL     1      36.119 -18.614 -21.475  0.00  0.00    +0.255 C 
ATOM     10  H   UNL     1      34.354 -19.590 -21.227  0.00  0.00    +0.157 HD
ENDROOT
BRANCH   9  14
ATOM     11  F   UNL     1      35.554 -15.883 -21.178  0.00  0.00    -0.204 F 
ATOM     12  F   UNL     1      35.452 -19.732 -23.960  0.00  0.00    -0.204 F 
ATOM     13  F   UNL     1      33.813 -15.596 -25.568  0.00  0.00    -0.204 F 
ATOM     14  C   UNL     1      35.506 -17.810 -22.565  0.00  0.00    +0.109 C 
ATOM     15  C   UNL     1      35.256 -16.471 -22.345  0.00  0.00    +0.149 C 
ATOM     16  C   UNL     1      35.205 -18.429 -23.760  0.00  0.00    +0.149 C 
ATOM     17  C   UNL     1      34.680 -15.718 -23.368  0.00  0.00    +0.060 C 
ATOM     18  C   UNL     1      34.628 -17.675 -24.782  0.00  0.00    +0.060 C 
ATOM     19  C   UNL     1      34.366 -16.319 -24.586  0.00  0.00    +0.145 C 
ENDBRANCH   9  14
BRANCH   2  21
ATOM     20  O   UNL     1      33.477 -23.868 -18.584  0.00  0.00    -0.289 OA
ATOM     21  C   UNL     1      33.857 -22.937 -17.878  0.00  0.00    +0.202 C 
BRANCH  21  23
ATOM     22  N   UNL     1      31.652 -23.748 -14.319  0.00  0.00    +0.386 N 
ATOM     23  C   UNL     1      33.245 -22.694 -16.533  0.00  0.00    +0.060 C 
ATOM     24  C   UNL     1      33.812 -23.692 -15.524  0.00  0.00    -0.015 C 
ATOM     25  C   UNL     1      31.725 -22.826 -16.613  0.00  0.00    -0.015 C 
ATOM     26  C   UNL     1      33.103 -23.577 -14.172  0.00  0.00    -0.077 C 
ATOM     27  C   UNL     1      31.087 -22.739 -15.225  0.00  0.00    -0.077 C 
ATOM     28  C   UNL     1      30.996 -23.688 -13.013  0.00  0.00    -0.101 C 
ATOM     29  H   UNL     1      31.483 -24.668 -14.728  0.00  0.00    -0.080 HD
ENDBRANCH  21  23
ENDBRANCH   2  21
TORSDOF 3
ENDMDL
MODEL 6
REMARK VINA RESULT:     -11.2      7.361     12.387
REMARK  Name = 11610526
REMARK  3 active torsions:
REMARK  status: ('A' for Active; 'I' for Inactive)
REMARK    1  A    between atoms: C_2  and  C_21
REMARK    2  A    between atoms: C_9  and  C_14
REMARK    3  A    between atoms: C_21  and  C_23
REMARK                            x       y       z     vdW  Elec       q    Type
REMARK                         _______ _______ _______ _____ _____    ______ ____
ROOT
ATOM      1  N   UNL     1      34.536 -22.788 -17.485  0.00  0.00    -0.388 NA
ATOM      2  C   UNL     1      33.385 -22.273 -17.923  0.00  0.00    +0.167 C 
ATOM      3  C   UNL     1      32.190 -22.253 -17.257  0.00  0.00    +0.031 C 
ATOM      4  C   UNL     1      34.482 -23.341 -16.253  0.00  0.00    +0.167 C 
ATOM      5  C   UNL     1      32.174 -22.830 -15.992  0.00  0.00    -0.015 C 
ATOM      6  C   UNL     1      33.338 -23.387 -15.473  0.00  0.00    +0.101 C 
ATOM      7  O   UNL     1      34.957 -24.686 -13.616  0.00  0.00    -0.270 OA
ATOM      8  N   UNL     1      35.649 -23.903 -15.721  0.00  0.00    -0.259 N 
ATOM      9  C   UNL     1      35.814 -24.522 -14.478  0.00  0.00    +0.255 C 
ATOM     10  H   UNL     1      36.449 -23.860 -16.292  0.00  0.00    +0.157 HD
ENDROOT
BRANCH   9  14
ATOM     11  F   UNL     1      37.516 -23.170 -12.706  0.00  0.00    -0.204 F 
ATOM     12  F   UNL     1      36.877 -26.831 -15.664  0.00  0.00    -0.204 F 
ATOM     13  F   UNL     1      40.987 -26.314 -13.380  0.00  0.00    -0.204 F 
ATOM     14  C   UNL     1      37.191 -24.999 -14.186  0.00  0.00    +0.109 C 
ATOM     15  C   UNL     1      37.970 -24.281 -13.302  0.00  0.00    +0.149 C 
ATOM     16  C   UNL     1      37.644 -26.143 -14.807  0.00  0.00    +0.149 C 
ATOM     17  C   UNL     1      39.263 -24.729 -13.029  0.00  0.00    +0.060 C 
ATOM     18  C   UNL     1      38.937 -26.590 -14.533  0.00  0.00    +0.060 C 
ATOM     19  C   UNL     1      39.747 -25.883 -13.644  0.00  0.00    +0.145 C 
ENDBRANCH   9  14
BRANCH   2  21
ATOM     20  O   UNL     1      32.715 -22.065 -20.175  0.00  0.00    -0.289 OA
ATOM     21  C   UNL     1      33.461 -21.669 -19.283  0.00  0.00    +0.202 C 
BRANCH  21  23
ATOM     22  N   UNL     1      36.403 -19.398 -21.373  0.00  0.00    +0.386 N 
ATOM     23  C   UNL     1      34.455 -20.579 -19.540  0.00  0.00    +0.060 C 
ATOM     24  C   UNL     1      34.034 -19.783 -20.775  0.00  0.00    -0.015 C 
ATOM     25  C   UNL     1      35.849 -21.172 -19.740  0.00  0.00    -0.015 C 
ATOM     26  C   UNL     1      35.100 -18.755 -21.162  0.00  0.00    -0.077 C 
ATOM     27  C   UNL     1      36.853 -20.097 -20.161  0.00  0.00    -0.077 C 
ATOM     28  C   UNL     1      37.398 -18.411 -21.793  0.00  0.00    -0.101 C 
ATOM     29  H   UNL     1      36.297 -20.091 -22.115  0.00  0.00    -0.080 HD
ENDBRANCH  21  23
ENDBRANCH   2  21
TORSDOF 3
ENDMDL
MODEL 7
REMARK VINA RESULT:     -11.1      6.090      9.432
REMARK  Name = 11610526
REMARK  3 active torsions:
REMARK  status: ('A' for Active; 'I' for Inactive)
REMARK    1  A    between atoms: C_2  and  C_21
REMARK    2  A    between atoms: C_9  and  C_14
REMARK    3  A    between atoms: C_21  and  C_23
REMARK                            x       y       z     vdW  Elec       q    Type
REMARK                         _______ _______ _______ _____ _____    ______ ____
ROOT
ATOM      1  N   UNL     1      34.965 -23.157 -15.212  0.00  0.00    -0.388 NA
ATOM      2  C   UNL     1      34.490 -23.901 -14.209  0.00  0.00    +0.167 C 
ATOM      3  C   UNL     1      33.243 -24.456 -14.119  0.00  0.00    +0.031 C 
ATOM      4  C   UNL     1      34.098 -22.949 -16.227  0.00  0.00    +0.167 C 
ATOM      5  C   UNL     1      32.380 -24.220 -15.184  0.00  0.00    -0.015 C 
ATOM      6  C   UNL     1      32.808 -23.454 -16.262  0.00  0.00    +0.101 C 
ATOM      7  O   UNL     1      32.638 -22.166 -18.726  0.00  0.00    -0.270 OA
ATOM      8  N   UNL     1      34.520 -22.179 -17.318  0.00  0.00    -0.259 N 
ATOM      9  C   UNL     1      33.792 -21.843 -18.463  0.00  0.00    +0.255 C 
ATOM     10  H   UNL     1      35.439 -21.831 -17.272  0.00  0.00    +0.157 HD
ENDROOT
BRANCH   9  14
ATOM     11  F   UNL     1      32.473 -20.157 -20.275  0.00  0.00    -0.204 F 
ATOM     12  F   UNL     1      36.590 -21.896 -18.664  0.00  0.00    -0.204 F 
ATOM     13  F   UNL     1      36.558 -18.786 -22.229  0.00  0.00    -0.204 F 
ATOM     14  C   UNL     1      34.528 -21.029 -19.465  0.00  0.00    +0.109 C 
ATOM     15  C   UNL     1      33.811 -20.223 -20.325  0.00  0.00    +0.149 C 
ATOM     16  C   UNL     1      35.905 -21.107 -19.504  0.00  0.00    +0.149 C 
ATOM     17  C   UNL     1      34.503 -19.459 -21.265  0.00  0.00    +0.060 C 
ATOM     18  C   UNL     1      36.595 -20.344 -20.446  0.00  0.00    +0.060 C 
ATOM     19  C   UNL     1      35.895 -19.520 -21.327  0.00  0.00    +0.145 C 
ENDBRANCH   9  14
BRANCH   2  21
ATOM     20  O   UNL     1      35.296 -23.550 -12.020  0.00  0.00    -0.289 OA
ATOM     21  C   UNL     1      35.457 -24.119 -13.097  0.00  0.00    +0.202 C 
BRANCH  21  23
ATOM     22  N   UNL     1      38.976 -25.701 -14.912  0.00  0.00    +0.386 N 
ATOM     23  C   UNL     1      36.620 -25.038 -13.313  0.00  0.00    +0.060 C 
ATOM     24  C   UNL     1      37.923 -24.246 -13.211  0.00  0.00    -0.015 C 
ATOM     25  C   UNL     1      36.513 -25.712 -14.680  0.00  0.00    -0.015 C 
ATOM     26  C   UNL     1      39.129 -25.115 -13.574  0.00  0.00    -0.077 C 
ATOM     27  C   UNL     1      37.767 -26.531 -14.993  0.00  0.00    -0.077 C 
ATOM     28  C   UNL     1      40.160 -26.485 -15.265  0.00  0.00    -0.101 C 
ATOM     29  H   UNL     1      38.878 -24.937 -15.582  0.00  0.00    -0.080 HD
ENDBRANCH  21  23
ENDBRANCH   2  21
TORSDOF 3
ENDMDL
MODEL 8
REMARK VINA RESULT:     -11.0      4.846      7.397
REMARK  Name = 11610526
REMARK  3 active torsions:
REMARK  status: ('A' for Active; 'I' for Inactive)
REMARK    1  A    between atoms: C_2  and  C_21
REMARK    2  A    between atoms: C_9  and  C_14
REMARK    3  A    between atoms: C_21  and  C_23
REMARK                            x       y       z     vdW  Elec       q    Type
REMARK                         _______ _______ _______ _____ _____    ______ ____
ROOT
ATOM      1  N   UNL     1      35.543 -22.129 -17.558  0.00  0.00    -0.388 NA
ATOM      2  C   UNL     1      35.941 -22.598 -16.373  0.00  0.00    +0.167 C 
ATOM      3  C   UNL     1      37.054 -22.220 -15.674  0.00  0.00    +0.031 C 
ATOM      4  C   UNL     1      36.345 -21.185 -18.097  0.00  0.00    +0.167 C 
ATOM      5  C   UNL     1      37.855 -21.245 -16.260  0.00  0.00    -0.015 C 
ATOM      6  C   UNL     1      37.500 -20.712 -17.495  0.00  0.00    +0.101 C 
ATOM      7  O   UNL     1      37.716 -19.095 -19.752  0.00  0.00    -0.270 OA
ATOM      8  N   UNL     1      35.996 -20.641 -19.339  0.00  0.00    -0.259 N 
ATOM      9  C   UNL     1      36.677 -19.664 -20.070  0.00  0.00    +0.255 C 
ATOM     10  H   UNL     1      35.172 -20.992 -19.748  0.00  0.00    +0.157 HD
ENDROOT
BRANCH   9  14
ATOM     11  F   UNL     1      38.116 -18.434 -22.139  0.00  0.00    -0.204 F 
ATOM     12  F   UNL     1      33.953 -20.104 -20.575  0.00  0.00    -0.204 F 
ATOM     13  F   UNL     1      34.272 -18.186 -24.887  0.00  0.00    -0.204 F 
ATOM     14  C   UNL     1      36.037 -19.270 -21.352  0.00  0.00    +0.109 C 
ATOM     15  C   UNL     1      36.809 -18.669 -22.325  0.00  0.00    +0.149 C 
ATOM     16  C   UNL     1      34.692 -19.519 -21.528  0.00  0.00    +0.149 C 
ATOM     17  C   UNL     1      36.208 -18.300 -23.528  0.00  0.00    +0.060 C 
ATOM     18  C   UNL     1      34.091 -19.149 -22.732  0.00  0.00    +0.060 C 
ATOM     19  C   UNL     1      34.849 -18.540 -23.732  0.00  0.00    +0.145 C 
ENDBRANCH   9  14
BRANCH   2  21
ATOM     20  O   UNL     1      35.452 -24.792 -15.657  0.00  0.00    -0.289 OA
ATOM     21  C   UNL     1      35.048 -23.640 -15.793  0.00  0.00    +0.202 C 
BRANCH  21  23
ATOM     22  N   UNL     1      30.834 -24.005 -15.245  0.00  0.00    +0.386 N 
ATOM     23  C   UNL     1      33.659 -23.260 -15.382  0.00  0.00    +0.060 C 
ATOM     24  C   UNL     1      33.131 -24.271 -14.365  0.00  0.00    -0.015 C 
ATOM     25  C   UNL     1      32.742 -23.207 -16.603  0.00  0.00    -0.015 C 
ATOM     26  C   UNL     1      31.661 -24.007 -14.031  0.00  0.00    -0.077 C 
ATOM     27  C   UNL     1      31.286 -22.978 -16.194  0.00  0.00    -0.077 C 
ATOM     28  C   UNL     1      29.426 -23.804 -14.904  0.00  0.00    -0.101 C 
ATOM     29  H   UNL     1      30.935 -24.915 -15.696  0.00  0.00    -0.080 HD
ENDBRANCH  21  23
ENDBRANCH   2  21
TORSDOF 3
ENDMDL
MODEL 9
REMARK VINA RESULT:     -10.9      5.853     11.516
REMARK  Name = 11610526
REMARK  3 active torsions:
REMARK  status: ('A' for Active; 'I' for Inactive)
REMARK    1  A    between atoms: C_2  and  C_21
REMARK    2  A    between atoms: C_9  and  C_14
REMARK    3  A    between atoms: C_21  and  C_23
REMARK                            x       y       z     vdW  Elec       q    Type
REMARK                         _______ _______ _______ _____ _____    ______ ____
ROOT
ATOM      1  N   UNL     1      35.830 -21.362 -18.647  0.00  0.00    -0.388 NA
ATOM      2  C   UNL     1      35.136 -20.749 -19.609  0.00  0.00    +0.167 C 
ATOM      3  C   UNL     1      33.786 -20.818 -19.818  0.00  0.00    +0.031 C 
ATOM      4  C   UNL     1      35.092 -22.125 -17.810  0.00  0.00    +0.167 C 
ATOM      5  C   UNL     1      33.061 -21.613 -18.936  0.00  0.00    -0.015 C 
ATOM      6  C   UNL     1      33.719 -22.282 -17.910  0.00  0.00    +0.101 C 
ATOM      7  O   UNL     1      33.996 -23.931 -15.682  0.00  0.00    -0.270 OA
ATOM      8  N   UNL     1      35.745 -22.802 -16.773  0.00  0.00    -0.259 N 
ATOM      9  C   UNL     1      35.181 -23.637 -15.804  0.00  0.00    +0.255 C 
ATOM     10  H   UNL     1      36.720 -22.677 -16.721  0.00  0.00    +0.157 HD
ENDROOT
BRANCH   9  14
ATOM     11  F   UNL     1      35.874 -26.354 -15.758  0.00  0.00    -0.204 F 
ATOM     12  F   UNL     1      36.408 -22.034 -13.856  0.00  0.00    -0.204 F 
ATOM     13  F   UNL     1      38.774 -25.723 -12.073  0.00  0.00    -0.204 F 
ATOM     14  C   UNL     1      36.137 -24.192 -14.811  0.00  0.00    +0.109 C 
ATOM     15  C   UNL     1      36.430 -25.540 -14.850  0.00  0.00    +0.149 C 
ATOM     16  C   UNL     1      36.701 -23.342 -13.883  0.00  0.00    +0.149 C 
ATOM     17  C   UNL     1      37.327 -26.060 -13.917  0.00  0.00    +0.060 C 
ATOM     18  C   UNL     1      37.598 -23.864 -12.950  0.00  0.00    +0.060 C 
ATOM     19  C   UNL     1      37.911 -25.223 -12.968  0.00  0.00    +0.145 C 
ENDBRANCH   9  14
BRANCH   2  21
ATOM     20  O   UNL     1      37.185 -20.039 -20.536  0.00  0.00    -0.289 OA
ATOM     21  C   UNL     1      35.963 -19.913 -20.524  0.00  0.00    +0.202 C 
BRANCH  21  23
ATOM     22  N   UNL     1      35.499 -17.105 -23.699  0.00  0.00    +0.386 N 
ATOM     23  C   UNL     1      35.284 -18.925 -21.420  0.00  0.00    +0.060 C 
ATOM     24  C   UNL     1      35.329 -19.427 -22.863  0.00  0.00    -0.015 C 
ATOM     25  C   UNL     1      35.962 -17.560 -21.311  0.00  0.00    -0.015 C 
ATOM     26  C   UNL     1      34.780 -18.378 -23.832  0.00  0.00    -0.077 C 
ATOM     27  C   UNL     1      35.391 -16.574 -22.333  0.00  0.00    -0.077 C 
ATOM     28  C   UNL     1      34.998 -16.130 -24.667  0.00  0.00    -0.101 C 
ATOM     29  H   UNL     1      36.487 -17.279 -23.890  0.00  0.00    -0.080 HD
ENDBRANCH  21  23
ENDBRANCH   2  21
TORSDOF 3
ENDMDL
