MODEL 1
REMARK VINA RESULT:     -12.5      0.000      0.000
REMARK  Name = 9999276
REMARK  5 active torsions:
REMARK  status: ('A' for Active; 'I' for Inactive)
REMARK    1  A    between atoms: C_3  and  C_11
REMARK    2  A    between atoms: C_6  and  C_20
REMARK    3  A    between atoms: C_14  and  N_19
REMARK    4  A    between atoms: C_25  and  C_27
REMARK    5  A    between atoms: C_27  and  O_28
REMARK                            x       y       z     vdW  Elec       q    Type
REMARK                         _______ _______ _______ _____ _____    ______ ____
ROOT
ATOM      1  N   UNL     1      34.920 -23.009 -16.416  0.00  0.00    -0.400 NA
ATOM      2  N   UNL     1      33.047 -24.757 -13.817  0.00  0.00    -0.242 NA
ATOM      3  C   UNL     1      34.583 -23.734 -15.324  0.00  0.00    +0.149 C 
ATOM      4  C   UNL     1      33.290 -24.024 -14.921  0.00  0.00    +0.107 C 
ATOM      5  C   UNL     1      32.259 -23.514 -15.727  0.00  0.00    +0.005 C 
ATOM      6  C   UNL     1      33.901 -22.539 -17.162  0.00  0.00    +0.131 C 
ATOM      7  C   UNL     1      32.567 -22.759 -16.866  0.00  0.00    +0.030 C 
ATOM      8  C   UNL     1      30.936 -23.786 -15.354  0.00  0.00    +0.056 C 
ATOM      9  C   UNL     1      30.675 -24.540 -14.217  0.00  0.00    -0.001 C 
ATOM     10  C   UNL     1      31.755 -24.998 -13.490  0.00  0.00    +0.095 C 
ENDROOT
BRANCH   3  11
ATOM     11  C   UNL     1      35.731 -24.205 -14.576  0.00  0.00    +0.033 C 
ATOM     12  C   UNL     1      36.262 -23.424 -13.551  0.00  0.00    +0.027 C 
ATOM     13  C   UNL     1      36.303 -25.439 -14.884  0.00  0.00    +0.003 C 
ATOM     14  C   UNL     1      37.367 -23.878 -12.831  0.00  0.00    +0.143 C 
ATOM     15  C   UNL     1      37.408 -25.893 -14.164  0.00  0.00    +0.002 C 
ATOM     16  C   UNL     1      37.941 -25.112 -13.138  0.00  0.00    +0.024 C 
BRANCH  14  19
ATOM     17  O   UNL     1      39.119 -23.224 -11.489  0.00  0.00    -0.126 OA
ATOM     18  O   UNL     1      37.162 -22.267 -11.199  0.00  0.00    -0.126 OA
ATOM     19  N   UNL     1      37.909 -23.083 -11.787  0.00  0.00    +0.058 N 
ENDBRANCH  14  19
ENDBRANCH   3  11
BRANCH   6  20
ATOM     20  C   UNL     1      34.292 -21.769 -18.318  0.00  0.00    +0.030 C 
ATOM     21  C   UNL     1      35.642 -21.632 -18.647  0.00  0.00    +0.003 C 
ATOM     22  C   UNL     1      33.320 -21.156 -19.113  0.00  0.00    +0.003 C 
ATOM     23  C   UNL     1      36.019 -20.889 -19.766  0.00  0.00    +0.007 C 
ATOM     24  C   UNL     1      33.697 -20.412 -20.232  0.00  0.00    +0.007 C 
ATOM     25  C   UNL     1      35.046 -20.279 -20.557  0.00  0.00    +0.075 C 
BRANCH  25  27
ATOM     26  O   UNL     1      34.803 -19.428 -22.780  0.00  0.00    -0.245 OA
ATOM     27  C   UNL     1      35.438 -19.503 -21.723  0.00  0.00    +0.338 C 
BRANCH  27  28
ATOM     28  O   UNL     1      36.612 -18.840 -21.536  0.00  0.00    -0.477 OA
ATOM     29  H   UNL     1      37.303 -18.922 -22.165  0.00  0.00    +0.295 HD
ENDBRANCH  27  28
ENDBRANCH  25  27
ENDBRANCH   6  20
TORSDOF 5
ENDMDL
MODEL 2
REMARK VINA RESULT:     -11.8      1.599      1.940
REMARK  Name = 9999276
REMARK  5 active torsions:
REMARK  status: ('A' for Active; 'I' for Inactive)
REMARK    1  A    between atoms: C_3  and  C_11
REMARK    2  A    between atoms: C_6  and  C_20
REMARK    3  A    between atoms: C_14  and  N_19
REMARK    4  A    between atoms: C_25  and  C_27
REMARK    5  A    between atoms: C_27  and  O_28
REMARK                            x       y       z     vdW  Elec       q    Type
REMARK                         _______ _______ _______ _____ _____    ______ ____
ROOT
ATOM      1  N   UNL     1      34.949 -22.759 -16.560  0.00  0.00    -0.400 NA
ATOM      2  N   UNL     1      33.185 -24.631 -13.969  0.00  0.00    -0.242 NA
ATOM      3  C   UNL     1      34.654 -23.489 -15.457  0.00  0.00    +0.149 C 
ATOM      4  C   UNL     1      33.386 -23.905 -15.086  0.00  0.00    +0.107 C 
ATOM      5  C   UNL     1      32.334 -23.527 -15.938  0.00  0.00    +0.005 C 
ATOM      6  C   UNL     1      33.911 -22.419 -17.349  0.00  0.00    +0.131 C 
ATOM      7  C   UNL     1      32.599 -22.773 -17.088  0.00  0.00    +0.030 C 
ATOM      8  C   UNL     1      31.036 -23.929 -15.597  0.00  0.00    +0.056 C 
ATOM      9  C   UNL     1      30.818 -24.677 -14.448  0.00  0.00    -0.001 C 
ATOM     10  C   UNL     1      31.916 -24.999 -13.675  0.00  0.00    +0.095 C 
ENDROOT
BRANCH   3  11
ATOM     11  C   UNL     1      35.820 -23.816 -14.662  0.00  0.00    +0.033 C 
ATOM     12  C   UNL     1      36.624 -24.896 -15.018  0.00  0.00    +0.027 C 
ATOM     13  C   UNL     1      36.133 -23.049 -13.540  0.00  0.00    +0.003 C 
ATOM     14  C   UNL     1      37.747 -25.211 -14.252  0.00  0.00    +0.143 C 
ATOM     15  C   UNL     1      37.255 -23.364 -12.773  0.00  0.00    +0.002 C 
ATOM     16  C   UNL     1      38.061 -24.445 -13.128  0.00  0.00    +0.024 C 
BRANCH  14  19
ATOM     17  O   UNL     1      39.605 -26.534 -13.945  0.00  0.00    -0.126 OA
ATOM     18  O   UNL     1      38.228 -27.023 -15.587  0.00  0.00    -0.126 OA
ATOM     19  N   UNL     1      38.568 -26.311 -14.613  0.00  0.00    +0.058 N 
ENDBRANCH  14  19
ENDBRANCH   3  11
BRANCH   6  20
ATOM     20  C   UNL     1      34.257 -21.642 -18.514  0.00  0.00    +0.030 C 
ATOM     21  C   UNL     1      35.593 -21.506 -18.897  0.00  0.00    +0.003 C 
ATOM     22  C   UNL     1      33.255 -21.019 -19.263  0.00  0.00    +0.003 C 
ATOM     23  C   UNL     1      35.926 -20.755 -20.025  0.00  0.00    +0.007 C 
ATOM     24  C   UNL     1      33.589 -20.268 -20.391  0.00  0.00    +0.007 C 
ATOM     25  C   UNL     1      34.923 -20.136 -20.771  0.00  0.00    +0.075 C 
BRANCH  25  27
ATOM     26  O   UNL     1      34.609 -19.293 -22.988  0.00  0.00    -0.245 OA
ATOM     27  C   UNL     1      35.270 -19.352 -21.946  0.00  0.00    +0.338 C 
BRANCH  27  28
ATOM     28  O   UNL     1      36.432 -18.661 -21.786  0.00  0.00    -0.477 OA
ATOM     29  H   UNL     1      36.428 -17.724 -21.805  0.00  0.00    +0.295 HD
ENDBRANCH  27  28
ENDBRANCH  25  27
ENDBRANCH   6  20
TORSDOF 5
ENDMDL
MODEL 3
REMARK VINA RESULT:     -11.4      3.373      5.411
REMARK  Name = 9999276
REMARK  5 active torsions:
REMARK  status: ('A' for Active; 'I' for Inactive)
REMARK    1  A    between atoms: C_3  and  C_11
REMARK    2  A    between atoms: C_6  and  C_20
REMARK    3  A    between atoms: C_14  and  N_19
REMARK    4  A    between atoms: C_25  and  C_27
REMARK    5  A    between atoms: C_27  and  O_28
REMARK                            x       y       z     vdW  Elec       q    Type
REMARK                         _______ _______ _______ _____ _____    ______ ____
ROOT
ATOM      1  N   UNL     1      33.255 -22.489 -17.186  0.00  0.00    -0.400 NA
ATOM      2  N   UNL     1      34.021 -24.248 -14.081  0.00  0.00    -0.242 NA
ATOM      3  C   UNL     1      33.155 -23.193 -16.034  0.00  0.00    +0.149 C 
ATOM      4  C   UNL     1      34.214 -23.545 -15.214  0.00  0.00    +0.107 C 
ATOM      5  C   UNL     1      35.489 -23.126 -15.631  0.00  0.00    +0.005 C 
ATOM      6  C   UNL     1      34.496 -22.107 -17.549  0.00  0.00    +0.131 C 
ATOM      7  C   UNL     1      35.634 -22.395 -16.817  0.00  0.00    +0.030 C 
ATOM      8  C   UNL     1      36.587 -23.462 -14.828  0.00  0.00    +0.056 C 
ATOM      9  C   UNL     1      36.398 -24.187 -13.659  0.00  0.00    -0.001 C 
ATOM     10  C   UNL     1      35.107 -24.553 -13.333  0.00  0.00    +0.095 C 
ENDROOT
BRANCH   3  11
ATOM     11  C   UNL     1      31.793 -23.565 -15.711  0.00  0.00    +0.033 C 
ATOM     12  C   UNL     1      30.730 -22.971 -16.387  0.00  0.00    +0.027 C 
ATOM     13  C   UNL     1      31.549 -24.518 -14.721  0.00  0.00    +0.003 C 
ATOM     14  C   UNL     1      29.418 -23.330 -16.075  0.00  0.00    +0.143 C 
ATOM     15  C   UNL     1      30.238 -24.877 -14.410  0.00  0.00    +0.002 C 
ATOM     16  C   UNL     1      29.172 -24.282 -15.086  0.00  0.00    +0.024 C 
BRANCH  14  19
ATOM     17  O   UNL     1      27.833 -23.326 -17.744  0.00  0.00    -0.126 OA
ATOM     18  O   UNL     1      27.913 -21.613 -16.368  0.00  0.00    -0.126 OA
ATOM     19  N   UNL     1      28.333 -22.725 -16.764  0.00  0.00    +0.058 N 
ENDBRANCH  14  19
ENDBRANCH   3  11
BRANCH   6  20
ATOM     20  C   UNL     1      34.571 -21.359 -18.781  0.00  0.00    +0.030 C 
ATOM     21  C   UNL     1      33.402 -20.937 -19.418  0.00  0.00    +0.003 C 
ATOM     22  C   UNL     1      35.814 -21.057 -19.342  0.00  0.00    +0.003 C 
ATOM     23  C   UNL     1      33.475 -20.214 -20.609  0.00  0.00    +0.007 C 
ATOM     24  C   UNL     1      35.886 -20.334 -20.534  0.00  0.00    +0.007 C 
ATOM     25  C   UNL     1      34.718 -19.913 -21.166  0.00  0.00    +0.075 C 
BRANCH  25  27
ATOM     26  O   UNL     1      33.871 -19.013 -23.215  0.00  0.00    -0.245 OA
ATOM     27  C   UNL     1      34.795 -19.159 -22.408  0.00  0.00    +0.338 C 
BRANCH  27  28
ATOM     28  O   UNL     1      36.024 -18.609 -22.608  0.00  0.00    -0.477 OA
ATOM     29  H   UNL     1      36.796 -19.095 -22.393  0.00  0.00    +0.295 HD
ENDBRANCH  27  28
ENDBRANCH  25  27
ENDBRANCH   6  20
TORSDOF 5
ENDMDL
MODEL 4
REMARK VINA RESULT:     -10.2      2.160      7.007
REMARK  Name = 9999276
REMARK  5 active torsions:
REMARK  status: ('A' for Active; 'I' for Inactive)
REMARK    1  A    between atoms: C_3  and  C_11
REMARK    2  A    between atoms: C_6  and  C_20
REMARK    3  A    between atoms: C_14  and  N_19
REMARK    4  A    between atoms: C_25  and  C_27
REMARK    5  A    between atoms: C_27  and  O_28
REMARK                            x       y       z     vdW  Elec       q    Type
REMARK                         _______ _______ _______ _____ _____    ______ ____
ROOT
ATOM      1  N   UNL     1      35.075 -23.006 -16.769  0.00  0.00    -0.400 NA
ATOM      2  N   UNL     1      31.485 -22.378 -16.979  0.00  0.00    -0.242 NA
ATOM      3  C   UNL     1      33.854 -22.568 -17.158  0.00  0.00    +0.149 C 
ATOM      4  C   UNL     1      32.658 -22.858 -16.522  0.00  0.00    +0.107 C 
ATOM      5  C   UNL     1      32.742 -23.675 -15.382  0.00  0.00    +0.005 C 
ATOM      6  C   UNL     1      35.110 -23.786 -15.671  0.00  0.00    +0.131 C 
ATOM      7  C   UNL     1      33.987 -24.147 -14.948  0.00  0.00    +0.030 C 
ATOM      8  C   UNL     1      31.554 -23.991 -14.710  0.00  0.00    +0.056 C 
ATOM      9  C   UNL     1      30.340 -23.501 -15.174  0.00  0.00    -0.001 C 
ATOM     10  C   UNL     1      30.360 -22.705 -16.302  0.00  0.00    +0.095 C 
ENDROOT
BRANCH   3  11
ATOM     11  C   UNL     1      33.897 -21.736 -18.343  0.00  0.00    +0.033 C 
ATOM     12  C   UNL     1      35.114 -21.225 -18.790  0.00  0.00    +0.027 C 
ATOM     13  C   UNL     1      32.720 -21.446 -19.032  0.00  0.00    +0.003 C 
ATOM     14  C   UNL     1      35.155 -20.423 -19.931  0.00  0.00    +0.143 C 
ATOM     15  C   UNL     1      32.761 -20.645 -20.173  0.00  0.00    +0.002 C 
ATOM     16  C   UNL     1      33.978 -20.132 -20.621  0.00  0.00    +0.024 C 
BRANCH  14  19
ATOM     17  O   UNL     1      36.462 -19.446 -21.554  0.00  0.00    -0.126 OA
ATOM     18  O   UNL     1      37.376 -19.913 -19.611  0.00  0.00    -0.126 OA
ATOM     19  N   UNL     1      36.394 -19.901 -20.388  0.00  0.00    +0.058 N 
ENDBRANCH  14  19
ENDBRANCH   3  11
BRANCH   6  20
ATOM     20  C   UNL     1      36.425 -24.237 -15.283  0.00  0.00    +0.030 C 
ATOM     21  C   UNL     1      36.617 -25.549 -14.844  0.00  0.00    +0.003 C 
ATOM     22  C   UNL     1      37.512 -23.361 -15.343  0.00  0.00    +0.003 C 
ATOM     23  C   UNL     1      37.888 -25.984 -14.470  0.00  0.00    +0.007 C 
ATOM     24  C   UNL     1      38.784 -23.797 -14.968  0.00  0.00    +0.007 C 
ATOM     25  C   UNL     1      38.971 -25.107 -14.532  0.00  0.00    +0.075 C 
BRANCH  25  27
ATOM     26  O   UNL     1      40.543 -26.588 -13.502  0.00  0.00    -0.245 OA
ATOM     27  C   UNL     1      40.297 -25.560 -14.141  0.00  0.00    +0.338 C 
BRANCH  27  28
ATOM     28  O   UNL     1      41.280 -24.716 -14.559  0.00  0.00    -0.477 OA
ATOM     29  H   UNL     1      41.437 -24.597 -15.476  0.00  0.00    +0.295 HD
ENDBRANCH  27  28
ENDBRANCH  25  27
ENDBRANCH   6  20
TORSDOF 5
ENDMDL
MODEL 5
REMARK VINA RESULT:     -10.0      2.228      4.682
REMARK  Name = 9999276
REMARK  5 active torsions:
REMARK  status: ('A' for Active; 'I' for Inactive)
REMARK    1  A    between atoms: C_3  and  C_11
REMARK    2  A    between atoms: C_6  and  C_20
REMARK    3  A    between atoms: C_14  and  N_19
REMARK    4  A    between atoms: C_25  and  C_27
REMARK    5  A    between atoms: C_27  and  O_28
REMARK                            x       y       z     vdW  Elec       q    Type
REMARK                         _______ _______ _______ _____ _____    ______ ____
ROOT
ATOM      1  N   UNL     1      34.532 -21.756 -17.915  0.00  0.00    -0.400 NA
ATOM      2  N   UNL     1      35.741 -23.526 -14.960  0.00  0.00    -0.242 NA
ATOM      3  C   UNL     1      34.600 -22.472 -16.768  0.00  0.00    +0.149 C 
ATOM      4  C   UNL     1      35.766 -22.809 -16.100  0.00  0.00    +0.107 C 
ATOM      5  C   UNL     1      36.966 -22.361 -16.680  0.00  0.00    +0.005 C 
ATOM      6  C   UNL     1      35.705 -21.346 -18.436  0.00  0.00    +0.131 C 
ATOM      7  C   UNL     1      36.936 -21.617 -17.867  0.00  0.00    +0.030 C 
ATOM      8  C   UNL     1      38.168 -22.681 -16.036  0.00  0.00    +0.056 C 
ATOM      9  C   UNL     1      38.151 -23.419 -14.860  0.00  0.00    -0.001 C 
ATOM     10  C   UNL     1      36.923 -23.814 -14.368  0.00  0.00    +0.095 C 
ENDROOT
BRANCH   3  11
ATOM     11  C   UNL     1      33.301 -22.875 -16.269  0.00  0.00    +0.033 C 
ATOM     12  C   UNL     1      33.201 -23.546 -15.051  0.00  0.00    +0.027 C 
ATOM     13  C   UNL     1      32.154 -22.592 -17.009  0.00  0.00    +0.003 C 
ATOM     14  C   UNL     1      31.950 -23.934 -14.571  0.00  0.00    +0.143 C 
ATOM     15  C   UNL     1      30.903 -22.980 -16.529  0.00  0.00    +0.002 C 
ATOM     16  C   UNL     1      30.801 -23.652 -15.311  0.00  0.00    +0.024 C 
BRANCH  14  19
ATOM     17  O   UNL     1      32.887 -24.798 -12.654  0.00  0.00    -0.126 OA
ATOM     18  O   UNL     1      30.720 -25.015 -12.954  0.00  0.00    -0.126 OA
ATOM     19  N   UNL     1      31.847 -24.617 -13.331  0.00  0.00    +0.058 N 
ENDBRANCH  14  19
ENDBRANCH   3  11
BRANCH   6  20
ATOM     20  C   UNL     1      35.599 -20.586 -19.659  0.00  0.00    +0.030 C 
ATOM     21  C   UNL     1      34.351 -20.381 -20.253  0.00  0.00    +0.003 C 
ATOM     22  C   UNL     1      36.745 -20.055 -20.255  0.00  0.00    +0.003 C 
ATOM     23  C   UNL     1      34.250 -19.646 -21.434  0.00  0.00    +0.007 C 
ATOM     24  C   UNL     1      36.644 -19.320 -21.437  0.00  0.00    +0.007 C 
ATOM     25  C   UNL     1      35.397 -19.117 -22.026  0.00  0.00    +0.075 C 
BRANCH  25  27
ATOM     26  O   UNL     1      34.520 -18.597 -24.191  0.00  0.00    -0.245 OA
ATOM     27  C   UNL     1      35.292 -18.351 -23.259  0.00  0.00    +0.338 C 
BRANCH  27  28
ATOM     28  O   UNL     1      36.154 -17.299 -23.292  0.00  0.00    -0.477 OA
ATOM     29  H   UNL     1      36.655 -17.077 -22.531  0.00  0.00    +0.295 HD
ENDBRANCH  27  28
ENDBRANCH  25  27
ENDBRANCH   6  20
TORSDOF 5
ENDMDL
MODEL 6
REMARK VINA RESULT:      -9.7      3.730      7.238
REMARK  Name = 9999276
REMARK  5 active torsions:
REMARK  status: ('A' for Active; 'I' for Inactive)
REMARK    1  A    between atoms: C_3  and  C_11
REMARK    2  A    between atoms: C_6  and  C_20
REMARK    3  A    between atoms: C_14  and  N_19
REMARK    4  A    between atoms: C_25  and  C_27
REMARK    5  A    between atoms: C_27  and  O_28
REMARK                            x       y       z     vdW  Elec       q    Type
REMARK                         _______ _______ _______ _____ _____    ______ ____
ROOT
ATOM      1  N   UNL     1      32.628 -22.415 -16.717  0.00  0.00    -0.400 NA
ATOM      2  N   UNL     1      35.992 -23.572 -15.899  0.00  0.00    -0.242 NA
ATOM      3  C   UNL     1      33.963 -22.639 -16.731  0.00  0.00    +0.149 C 
ATOM      4  C   UNL     1      34.659 -23.402 -15.807  0.00  0.00    +0.107 C 
ATOM      5  C   UNL     1      33.896 -23.983 -14.780  0.00  0.00    +0.005 C 
ATOM      6  C   UNL     1      31.935 -22.991 -15.715  0.00  0.00    +0.131 C 
ATOM      7  C   UNL     1      32.511 -23.775 -14.732  0.00  0.00    +0.030 C 
ATOM      8  C   UNL     1      34.562 -24.763 -13.826  0.00  0.00    +0.056 C 
ATOM      9  C   UNL     1      35.936 -24.944 -13.912  0.00  0.00    -0.001 C 
ATOM     10  C   UNL     1      36.599 -24.333 -14.958  0.00  0.00    +0.095 C 
ENDROOT
BRANCH   3  11
ATOM     11  C   UNL     1      34.639 -21.990 -17.836  0.00  0.00    +0.033 C 
ATOM     12  C   UNL     1      33.895 -21.375 -18.841  0.00  0.00    +0.027 C 
ATOM     13  C   UNL     1      36.032 -21.983 -17.891  0.00  0.00    +0.003 C 
ATOM     14  C   UNL     1      34.546 -20.751 -19.905  0.00  0.00    +0.143 C 
ATOM     15  C   UNL     1      36.683 -21.358 -18.955  0.00  0.00    +0.002 C 
ATOM     16  C   UNL     1      35.940 -20.743 -19.963  0.00  0.00    +0.024 C 
BRANCH  14  19
ATOM     17  O   UNL     1      34.400 -19.553 -21.866  0.00  0.00    -0.126 OA
ATOM     18  O   UNL     1      32.539 -20.163 -20.867  0.00  0.00    -0.126 OA
ATOM     19  N   UNL     1      33.789 -20.124 -20.931  0.00  0.00    +0.058 N 
ENDBRANCH  14  19
ENDBRANCH   3  11
BRANCH   6  20
ATOM     20  C   UNL     1      30.514 -22.733 -15.727  0.00  0.00    +0.030 C 
ATOM     21  C   UNL     1      29.875 -22.268 -14.575  0.00  0.00    +0.003 C 
ATOM     22  C   UNL     1      29.773 -22.951 -16.891  0.00  0.00    +0.003 C 
ATOM     23  C   UNL     1      28.503 -22.018 -14.588  0.00  0.00    +0.007 C 
ATOM     24  C   UNL     1      28.400 -22.701 -16.903  0.00  0.00    +0.007 C 
ATOM     25  C   UNL     1      27.766 -22.236 -15.752  0.00  0.00    +0.075 C 
BRANCH  25  27
ATOM     26  O   UNL     1      25.569 -22.133 -14.808  0.00  0.00    -0.245 OA
ATOM     27  C   UNL     1      26.334 -21.977 -15.766  0.00  0.00    +0.338 C 
BRANCH  27  28
ATOM     28  O   UNL     1      25.898 -21.528 -16.975  0.00  0.00    -0.477 OA
ATOM     29  H   UNL     1      25.078 -21.079 -17.041  0.00  0.00    +0.295 HD
ENDBRANCH  27  28
ENDBRANCH  25  27
ENDBRANCH   6  20
TORSDOF 5
ENDMDL
