MODEL 1
REMARK VINA RESULT:     -12.1      0.000      0.000
REMARK  Name = 24808489
REMARK  4 active torsions:
REMARK  status: ('A' for Active; 'I' for Inactive)
REMARK    1  A    between atoms: N_1  and  C_10
REMARK    2  A    between atoms: N_1  and  C_21
REMARK    3  A    between atoms: C_18  and  C_24
REMARK    4  A    between atoms: C_24  and  N_25
REMARK                            x       y       z     vdW  Elec       q    Type
REMARK                         _______ _______ _______ _____ _____    ______ ____
ROOT
ATOM      1  N   UNL     1      34.563 -22.403 -18.743  0.00  0.00    -0.311 N 
ATOM      2  H   UNL     1      35.142 -23.198 -18.761  0.00  0.00    +0.152 HD
ENDROOT
BRANCH   1  10
ATOM      3 BR   UNL     1      27.980 -22.484 -16.592  0.00  0.00    -0.049 Br
ATOM      4  O   UNL     1      35.746 -23.045 -16.591  0.00  0.00    -0.270 OA
ATOM      5  O   UNL     1      33.440 -23.874 -12.711  0.00  0.00    -0.270 OA
ATOM      6  N   UNL     1      34.555 -23.451 -14.674  0.00  0.00    -0.248 N 
ATOM      7  C   UNL     1      33.356 -22.844 -16.694  0.00  0.00    +0.068 C 
ATOM      8  C   UNL     1      32.087 -22.947 -15.941  0.00  0.00    +0.010 C 
ATOM      9  C   UNL     1      32.122 -23.299 -14.581  0.00  0.00    +0.054 C 
ATOM     10  C   UNL     1      33.444 -22.515 -17.995  0.00  0.00    +0.066 C 
ATOM     11  C   UNL     1      34.663 -23.114 -16.016  0.00  0.00    +0.253 C 
ATOM     12  C   UNL     1      30.829 -22.706 -16.521  0.00  0.00    +0.007 C 
ATOM     13  C   UNL     1      33.408 -23.567 -13.899  0.00  0.00    +0.252 C 
ATOM     14  C   UNL     1      30.939 -23.407 -13.832  0.00  0.00    +0.005 C 
ATOM     15  C   UNL     1      29.651 -22.814 -15.774  0.00  0.00    +0.035 C 
ATOM     16  C   UNL     1      29.707 -23.164 -14.431  0.00  0.00    +0.007 C 
ATOM     17  H   UNL     1      35.405 -23.634 -14.210  0.00  0.00    +0.158 HD
ENDBRANCH   1  10
BRANCH   1  21
ATOM     18  C   UNL     1      35.900 -19.128 -21.004  0.00  0.00    -0.043 C 
ATOM     19  C   UNL     1      36.816 -19.910 -20.298  0.00  0.00    -0.005 C 
ATOM     20  C   UNL     1      34.540 -19.435 -20.958  0.00  0.00    -0.005 C 
ATOM     21  C   UNL     1      35.011 -21.304 -19.501  0.00  0.00    +0.048 C 
ATOM     22  C   UNL     1      36.371 -20.997 -19.547  0.00  0.00    +0.014 C 
ATOM     23  C   UNL     1      34.095 -20.523 -20.207  0.00  0.00    +0.014 C 
BRANCH  18  24
ATOM     24  C   UNL     1      36.376 -17.965 -21.806  0.00  0.00    -0.050 C 
BRANCH  24  25
ATOM     25  N   UNL     1      35.317 -17.376 -22.611  0.00  0.00    +0.390 N 
ATOM     26  C   UNL     1      35.382 -15.915 -22.637  0.00  0.00    -0.077 C 
ATOM     27  C   UNL     1      35.388 -17.784 -24.014  0.00  0.00    -0.077 C 
ATOM     28  C   UNL     1      34.474 -15.553 -23.803  0.00  0.00    -0.025 C 
ATOM     29  C   UNL     1      34.476 -16.783 -24.706  0.00  0.00    -0.025 C 
ATOM     30  H   UNL     1      34.458 -17.704 -22.168  0.00  0.00    -0.079 HD
ENDBRANCH  24  25
ENDBRANCH  18  24
ENDBRANCH   1  21
TORSDOF 4
ENDMDL
MODEL 2
REMARK VINA RESULT:     -11.7      0.632      1.313
REMARK  Name = 24808489
REMARK  4 active torsions:
REMARK  status: ('A' for Active; 'I' for Inactive)
REMARK    1  A    between atoms: N_1  and  C_10
REMARK    2  A    between atoms: N_1  and  C_21
REMARK    3  A    between atoms: C_18  and  C_24
REMARK    4  A    between atoms: C_24  and  N_25
REMARK                            x       y       z     vdW  Elec       q    Type
REMARK                         _______ _______ _______ _____ _____    ______ ____
ROOT
ATOM      1  N   UNL     1      34.845 -22.138 -18.526  0.00  0.00    -0.311 N 
ATOM      2  H   UNL     1      35.578 -22.765 -18.330  0.00  0.00    +0.152 HD
ENDROOT
BRANCH   1  10
ATOM      3 BR   UNL     1      28.182 -22.579 -16.689  0.00  0.00    -0.049 Br
ATOM      4  O   UNL     1      35.954 -22.964 -16.397  0.00  0.00    -0.270 OA
ATOM      5  O   UNL     1      33.509 -24.226 -12.724  0.00  0.00    -0.270 OA
ATOM      6  N   UNL     1      34.695 -23.585 -14.584  0.00  0.00    -0.248 N 
ATOM      7  C   UNL     1      33.566 -22.807 -16.586  0.00  0.00    +0.068 C 
ATOM      8  C   UNL     1      32.269 -23.013 -15.904  0.00  0.00    +0.010 C 
ATOM      9  C   UNL     1      32.257 -23.497 -14.585  0.00  0.00    +0.054 C 
ATOM     10  C   UNL     1      33.699 -22.349 -17.843  0.00  0.00    +0.066 C 
ATOM     11  C   UNL     1      34.850 -23.114 -15.880  0.00  0.00    +0.253 C 
ATOM     12  C   UNL     1      31.031 -22.744 -16.513  0.00  0.00    +0.007 C 
ATOM     13  C   UNL     1      33.519 -23.803 -13.876  0.00  0.00    +0.252 C 
ATOM     14  C   UNL     1      31.046 -23.706 -13.904  0.00  0.00    +0.005 C 
ATOM     15  C   UNL     1      29.826 -22.952 -15.833  0.00  0.00    +0.035 C 
ATOM     16  C   UNL     1      29.834 -23.432 -14.530  0.00  0.00    +0.007 C 
ATOM     17  H   UNL     1      35.528 -23.794 -14.103  0.00  0.00    +0.158 HD
ENDBRANCH   1  10
BRANCH   1  21
ATOM     18  C   UNL     1      35.702 -19.172 -21.371  0.00  0.00    -0.043 C 
ATOM     19  C   UNL     1      34.382 -19.565 -21.149  0.00  0.00    -0.005 C 
ATOM     20  C   UNL     1      36.737 -19.764 -20.648  0.00  0.00    -0.005 C 
ATOM     21  C   UNL     1      35.133 -21.144 -19.481  0.00  0.00    +0.048 C 
ATOM     22  C   UNL     1      34.098 -20.551 -20.204  0.00  0.00    +0.014 C 
ATOM     23  C   UNL     1      36.453 -20.750 -19.703  0.00  0.00    +0.014 C 
BRANCH  18  24
ATOM     24  C   UNL     1      36.006 -18.119 -22.381  0.00  0.00    -0.050 C 
BRANCH  24  25
ATOM     25  N   UNL     1      35.128 -16.964 -22.261  0.00  0.00    +0.390 N 
ATOM     26  C   UNL     1      35.357 -16.213 -21.028  0.00  0.00    -0.077 C 
ATOM     27  C   UNL     1      35.328 -15.996 -23.339  0.00  0.00    -0.077 C 
ATOM     28  C   UNL     1      34.648 -14.894 -21.294  0.00  0.00    -0.025 C 
ATOM     29  C   UNL     1      34.626 -14.753 -22.813  0.00  0.00    -0.025 C 
ATOM     30  H   UNL     1      34.189 -17.365 -22.287  0.00  0.00    -0.079 HD
ENDBRANCH  24  25
ENDBRANCH  18  24
ENDBRANCH   1  21
TORSDOF 4
ENDMDL
MODEL 3
REMARK VINA RESULT:     -11.6      2.573      3.326
REMARK  Name = 24808489
REMARK  4 active torsions:
REMARK  status: ('A' for Active; 'I' for Inactive)
REMARK    1  A    between atoms: N_1  and  C_10
REMARK    2  A    between atoms: N_1  and  C_21
REMARK    3  A    between atoms: C_18  and  C_24
REMARK    4  A    between atoms: C_24  and  N_25
REMARK                            x       y       z     vdW  Elec       q    Type
REMARK                         _______ _______ _______ _____ _____    ______ ____
ROOT
ATOM      1  N   UNL     1      33.785 -22.303 -18.311  0.00  0.00    -0.311 N 
ATOM      2  H   UNL     1      32.903 -22.654 -18.568  0.00  0.00    +0.152 HD
ENDROOT
BRANCH   1  10
ATOM      3 BR   UNL     1      37.958 -24.564 -13.267  0.00  0.00    -0.049 Br
ATOM      4  O   UNL     1      31.556 -22.333 -17.097  0.00  0.00    -0.270 OA
ATOM      5  O   UNL     1      31.197 -23.671 -12.721  0.00  0.00    -0.270 OA
ATOM      6  N   UNL     1      31.421 -23.009 -14.909  0.00  0.00    -0.248 N 
ATOM      7  C   UNL     1      33.585 -23.004 -16.004  0.00  0.00    +0.068 C 
ATOM      8  C   UNL     1      34.193 -23.498 -14.749  0.00  0.00    +0.010 C 
ATOM      9  C   UNL     1      33.372 -23.724 -13.632  0.00  0.00    +0.054 C 
ATOM     10  C   UNL     1      34.271 -22.754 -17.134  0.00  0.00    +0.066 C 
ATOM     11  C   UNL     1      32.113 -22.745 -16.082  0.00  0.00    +0.253 C 
ATOM     12  C   UNL     1      35.568 -23.760 -14.613  0.00  0.00    +0.007 C 
ATOM     13  C   UNL     1      31.915 -23.473 -13.697  0.00  0.00    +0.252 C 
ATOM     14  C   UNL     1      33.911 -24.193 -12.422  0.00  0.00    +0.005 C 
ATOM     15  C   UNL     1      36.103 -24.226 -13.408  0.00  0.00    +0.035 C 
ATOM     16  C   UNL     1      35.275 -24.443 -12.314  0.00  0.00    +0.007 C 
ATOM     17  H   UNL     1      30.450 -22.844 -14.940  0.00  0.00    +0.158 HD
ENDBRANCH   1  10
BRANCH   1  21
ATOM     18  C   UNL     1      35.529 -19.610 -21.018  0.00  0.00    -0.043 C 
ATOM     19  C   UNL     1      36.338 -20.412 -20.213  0.00  0.00    -0.005 C 
ATOM     20  C   UNL     1      34.140 -19.703 -20.924  0.00  0.00    -0.005 C 
ATOM     21  C   UNL     1      34.369 -21.399 -19.219  0.00  0.00    +0.048 C 
ATOM     22  C   UNL     1      35.758 -21.306 -19.313  0.00  0.00    +0.014 C 
ATOM     23  C   UNL     1      33.560 -20.597 -20.024  0.00  0.00    +0.014 C 
BRANCH  18  24
ATOM     24  C   UNL     1      36.149 -18.654 -21.980  0.00  0.00    -0.050 C 
BRANCH  24  25
ATOM     25  N   UNL     1      35.156 -17.894 -22.725  0.00  0.00    +0.390 N 
ATOM     26  C   UNL     1      35.528 -16.487 -22.877  0.00  0.00    -0.077 C 
ATOM     27  C   UNL     1      34.982 -18.390 -24.090  0.00  0.00    -0.077 C 
ATOM     28  C   UNL     1      34.593 -16.004 -23.976  0.00  0.00    -0.025 C 
ATOM     29  C   UNL     1      34.233 -17.255 -24.771  0.00  0.00    -0.025 C 
ATOM     30  H   UNL     1      34.302 -17.998 -22.176  0.00  0.00    -0.079 HD
ENDBRANCH  24  25
ENDBRANCH  18  24
ENDBRANCH   1  21
TORSDOF 4
ENDMDL
MODEL 4
REMARK VINA RESULT:     -10.6      1.062      1.575
REMARK  Name = 24808489
REMARK  4 active torsions:
REMARK  status: ('A' for Active; 'I' for Inactive)
REMARK    1  A    between atoms: N_1  and  C_10
REMARK    2  A    between atoms: N_1  and  C_21
REMARK    3  A    between atoms: C_18  and  C_24
REMARK    4  A    between atoms: C_24  and  N_25
REMARK                            x       y       z     vdW  Elec       q    Type
REMARK                         _______ _______ _______ _____ _____    ______ ____
ROOT
ATOM      1  N   UNL     1      35.791 -21.941 -18.542  0.00  0.00    -0.311 N 
ATOM      2  H   UNL     1      36.601 -22.483 -18.406  0.00  0.00    +0.152 HD
ENDROOT
BRANCH   1  10
ATOM      3 BR   UNL     1      29.347 -23.355 -16.433  0.00  0.00    -0.049 Br
ATOM      4  O   UNL     1      37.089 -22.517 -16.437  0.00  0.00    -0.270 OA
ATOM      5  O   UNL     1      35.001 -24.026 -12.639  0.00  0.00    -0.270 OA
ATOM      6  N   UNL     1      36.006 -23.268 -14.560  0.00  0.00    -0.248 N 
ATOM      7  C   UNL     1      34.700 -22.740 -16.535  0.00  0.00    +0.068 C 
ATOM      8  C   UNL     1      33.477 -23.122 -15.798  0.00  0.00    +0.010 C 
ATOM      9  C   UNL     1      33.586 -23.560 -14.468  0.00  0.00    +0.054 C 
ATOM     10  C   UNL     1      34.716 -22.306 -17.808  0.00  0.00    +0.066 C 
ATOM     11  C   UNL     1      36.040 -22.820 -15.873  0.00  0.00    +0.253 C 
ATOM     12  C   UNL     1      32.191 -23.069 -16.364  0.00  0.00    +0.007 C 
ATOM     13  C   UNL     1      34.905 -23.644 -13.801  0.00  0.00    +0.252 C 
ATOM     14  C   UNL     1      32.447 -23.933 -13.734  0.00  0.00    +0.005 C 
ATOM     15  C   UNL     1      31.058 -23.440 -15.633  0.00  0.00    +0.035 C 
ATOM     16  C   UNL     1      31.186 -23.871 -14.319  0.00  0.00    +0.007 C 
ATOM     17  H   UNL     1      36.878 -23.329 -14.107  0.00  0.00    +0.158 HD
ENDBRANCH   1  10
BRANCH   1  21
ATOM     18  C   UNL     1      36.141 -18.810 -21.315  0.00  0.00    -0.043 C 
ATOM     19  C   UNL     1      34.894 -19.383 -21.063  0.00  0.00    -0.005 C 
ATOM     20  C   UNL     1      37.271 -19.278 -20.646  0.00  0.00    -0.005 C 
ATOM     21  C   UNL     1      35.909 -20.891 -19.473  0.00  0.00    +0.048 C 
ATOM     22  C   UNL     1      34.778 -20.424 -20.142  0.00  0.00    +0.014 C 
ATOM     23  C   UNL     1      37.155 -20.318 -19.725  0.00  0.00    +0.014 C 
BRANCH  18  24
ATOM     24  C   UNL     1      36.264 -17.698 -22.301  0.00  0.00    -0.050 C 
BRANCH  24  25
ATOM     25  N   UNL     1      35.044 -17.499 -23.069  0.00  0.00    +0.390 N 
ATOM     26  C   UNL     1      35.099 -16.299 -23.904  0.00  0.00    -0.077 C 
ATOM     27  C   UNL     1      34.783 -18.597 -23.998  0.00  0.00    -0.077 C 
ATOM     28  C   UNL     1      33.941 -16.502 -24.870  0.00  0.00    -0.025 C 
ATOM     29  C   UNL     1      33.731 -18.012 -24.929  0.00  0.00    -0.025 C 
ATOM     30  H   UNL     1      34.315 -17.427 -22.359  0.00  0.00    -0.079 HD
ENDBRANCH  24  25
ENDBRANCH  18  24
ENDBRANCH   1  21
TORSDOF 4
ENDMDL
MODEL 5
REMARK VINA RESULT:     -10.3      2.720      3.579
REMARK  Name = 24808489
REMARK  4 active torsions:
REMARK  status: ('A' for Active; 'I' for Inactive)
REMARK    1  A    between atoms: N_1  and  C_10
REMARK    2  A    between atoms: N_1  and  C_21
REMARK    3  A    between atoms: C_18  and  C_24
REMARK    4  A    between atoms: C_24  and  N_25
REMARK                            x       y       z     vdW  Elec       q    Type
REMARK                         _______ _______ _______ _____ _____    ______ ____
ROOT
ATOM      1  N   UNL     1      35.266 -21.727 -19.839  0.00  0.00    -0.311 N 
ATOM      2  H   UNL     1      34.990 -22.430 -20.469  0.00  0.00    +0.152 HD
ENDROOT
BRANCH   1  10
ATOM      3 BR   UNL     1      37.598 -23.493 -13.561  0.00  0.00    -0.049 Br
ATOM      4  O   UNL     1      32.763 -21.921 -19.459  0.00  0.00    -0.270 OA
ATOM      5  O   UNL     1      31.017 -23.175 -15.405  0.00  0.00    -0.270 OA
ATOM      6  N   UNL     1      31.933 -22.551 -17.417  0.00  0.00    -0.248 N 
ATOM      7  C   UNL     1      34.335 -22.386 -17.706  0.00  0.00    +0.068 C 
ATOM      8  C   UNL     1      34.508 -22.794 -16.294  0.00  0.00    +0.010 C 
ATOM      9  C   UNL     1      33.371 -23.063 -15.514  0.00  0.00    +0.054 C 
ATOM     10  C   UNL     1      35.348 -22.105 -18.545  0.00  0.00    +0.066 C 
ATOM     11  C   UNL     1      32.966 -22.257 -18.295  0.00  0.00    +0.253 C 
ATOM     12  C   UNL     1      35.766 -22.932 -15.683  0.00  0.00    +0.007 C 
ATOM     13  C   UNL     1      32.011 -22.940 -16.085  0.00  0.00    +0.252 C 
ATOM     14  C   UNL     1      33.492 -23.453 -14.170  0.00  0.00    +0.005 C 
ATOM     15  C   UNL     1      35.886 -23.321 -14.345  0.00  0.00    +0.035 C 
ATOM     16  C   UNL     1      34.750 -23.581 -13.590  0.00  0.00    +0.007 C 
ATOM     17  H   UNL     1      31.023 -22.471 -17.786  0.00  0.00    +0.158 HD
ENDBRANCH   1  10
BRANCH   1  21
ATOM     18  C   UNL     1      36.030 -17.963 -21.532  0.00  0.00    -0.043 C 
ATOM     19  C   UNL     1      34.757 -18.525 -21.628  0.00  0.00    -0.005 C 
ATOM     20  C   UNL     1      37.049 -18.651 -20.874  0.00  0.00    -0.005 C 
ATOM     21  C   UNL     1      35.523 -20.465 -20.408  0.00  0.00    +0.048 C 
ATOM     22  C   UNL     1      34.504 -19.776 -21.065  0.00  0.00    +0.014 C 
ATOM     23  C   UNL     1      36.796 -19.902 -20.312  0.00  0.00    +0.014 C 
BRANCH  18  24
ATOM     24  C   UNL     1      36.301 -16.626 -22.134  0.00  0.00    -0.050 C 
BRANCH  24  25
ATOM     25  N   UNL     1      35.084 -15.856 -22.347  0.00  0.00    +0.390 N 
ATOM     26  C   UNL     1      34.868 -14.852 -21.305  0.00  0.00    -0.077 C 
ATOM     27  C   UNL     1      35.112 -15.103 -23.600  0.00  0.00    -0.077 C 
ATOM     28  C   UNL     1      33.812 -13.945 -21.918  0.00  0.00    -0.025 C 
ATOM     29  C   UNL     1      33.970 -14.112 -23.426  0.00  0.00    -0.025 C 
ATOM     30  H   UNL     1      34.344 -16.559 -22.348  0.00  0.00    -0.079 HD
ENDBRANCH  24  25
ENDBRANCH  18  24
ENDBRANCH   1  21
TORSDOF 4
ENDMDL
MODEL 6
REMARK VINA RESULT:     -10.0      8.491     13.305
REMARK  Name = 24808489
REMARK  4 active torsions:
REMARK  status: ('A' for Active; 'I' for Inactive)
REMARK    1  A    between atoms: N_1  and  C_10
REMARK    2  A    between atoms: N_1  and  C_21
REMARK    3  A    between atoms: C_18  and  C_24
REMARK    4  A    between atoms: C_24  and  N_25
REMARK                            x       y       z     vdW  Elec       q    Type
REMARK                         _______ _______ _______ _____ _____    ______ ____
ROOT
ATOM      1  N   UNL     1      32.107 -11.159 -22.059  0.00  0.00    -0.311 N 
ATOM      2  H   UNL     1      31.306 -11.383 -21.535  0.00  0.00    +0.152 HD
ENDROOT
BRANCH   1  10
ATOM      3 BR   UNL     1      32.582  -5.225 -25.599  0.00  0.00    -0.049 Br
ATOM      4  O   UNL     1      32.333 -10.286 -19.686  0.00  0.00    -0.270 OA
ATOM      5  O   UNL     1      32.889  -5.819 -18.790  0.00  0.00    -0.270 OA
ATOM      6  N   UNL     1      32.609  -8.046 -19.283  0.00  0.00    -0.248 N 
ATOM      7  C   UNL     1      32.399  -8.807 -21.576  0.00  0.00    +0.068 C 
ATOM      8  C   UNL     1      32.532  -7.405 -22.027  0.00  0.00    +0.010 C 
ATOM      9  C   UNL     1      32.699  -6.389 -21.071  0.00  0.00    +0.054 C 
ATOM     10  C   UNL     1      32.236  -9.858 -22.399  0.00  0.00    +0.066 C 
ATOM     11  C   UNL     1      32.440  -9.140 -20.118  0.00  0.00    +0.253 C 
ATOM     12  C   UNL     1      32.501  -7.028 -23.382  0.00  0.00    +0.007 C 
ATOM     13  C   UNL     1      32.742  -6.706 -19.626  0.00  0.00    +0.252 C 
ATOM     14  C   UNL     1      32.829  -5.045 -21.460  0.00  0.00    +0.005 C 
ATOM     15  C   UNL     1      32.630  -5.690 -23.767  0.00  0.00    +0.035 C 
ATOM     16  C   UNL     1      32.794  -4.699 -22.807  0.00  0.00    +0.007 C 
ATOM     17  H   UNL     1      32.638  -8.244 -18.318  0.00  0.00    +0.158 HD
ENDBRANCH   1  10
BRANCH   1  21
ATOM     18  C   UNL     1      34.662 -14.373 -22.936  0.00  0.00    -0.043 C 
ATOM     19  C   UNL     1      34.046 -14.292 -21.687  0.00  0.00    -0.005 C 
ATOM     20  C   UNL     1      34.430 -13.386 -23.893  0.00  0.00    -0.005 C 
ATOM     21  C   UNL     1      32.965 -12.237 -22.353  0.00  0.00    +0.048 C 
ATOM     22  C   UNL     1      33.198 -13.223 -21.396  0.00  0.00    +0.014 C 
ATOM     23  C   UNL     1      33.581 -12.318 -23.602  0.00  0.00    +0.014 C 
BRANCH  18  24
ATOM     24  C   UNL     1      35.570 -15.514 -23.246  0.00  0.00    -0.050 C 
BRANCH  24  25
ATOM     25  N   UNL     1      34.870 -16.790 -23.268  0.00  0.00    +0.390 N 
ATOM     26  C   UNL     1      34.913 -17.428 -24.584  0.00  0.00    -0.077 C 
ATOM     27  C   UNL     1      35.460 -17.766 -22.353  0.00  0.00    -0.077 C 
ATOM     28  C   UNL     1      34.491 -18.858 -24.283  0.00  0.00    -0.025 C 
ATOM     29  C   UNL     1      34.847 -19.080 -22.816  0.00  0.00    -0.025 C 
ATOM     30  H   UNL     1      33.915 -16.552 -22.999  0.00  0.00    -0.079 HD
ENDBRANCH  24  25
ENDBRANCH  18  24
ENDBRANCH   1  21
TORSDOF 4
ENDMDL
MODEL 7
REMARK VINA RESULT:     -10.0      7.612     12.518
REMARK  Name = 24808489
REMARK  4 active torsions:
REMARK  status: ('A' for Active; 'I' for Inactive)
REMARK    1  A    between atoms: N_1  and  C_10
REMARK    2  A    between atoms: N_1  and  C_21
REMARK    3  A    between atoms: C_18  and  C_24
REMARK    4  A    between atoms: C_24  and  N_25
REMARK                            x       y       z     vdW  Elec       q    Type
REMARK                         _______ _______ _______ _____ _____    ______ ____
ROOT
ATOM      1  N   UNL     1      32.609 -12.368 -22.900  0.00  0.00    -0.311 N 
ATOM      2  H   UNL     1      31.651 -12.554 -22.774  0.00  0.00    +0.152 HD
ENDROOT
BRANCH   1  10
ATOM      3 BR   UNL     1      35.066  -6.250 -25.022  0.00  0.00    -0.049 Br
ATOM      4  O   UNL     1      31.607 -11.699 -20.666  0.00  0.00    -0.270 OA
ATOM      5  O   UNL     1      31.785  -7.379 -19.126  0.00  0.00    -0.270 OA
ATOM      6  N   UNL     1      31.718  -9.528 -19.933  0.00  0.00    -0.248 N 
ATOM      7  C   UNL     1      32.696 -10.094 -22.080  0.00  0.00    +0.068 C 
ATOM      8  C   UNL     1      33.095  -8.679 -22.243  0.00  0.00    +0.010 C 
ATOM      9  C   UNL     1      32.782  -7.756 -21.230  0.00  0.00    +0.054 C 
ATOM     10  C   UNL     1      32.943 -11.061 -22.981  0.00  0.00    +0.066 C 
ATOM     11  C   UNL     1      31.964 -10.538 -20.852  0.00  0.00    +0.253 C 
ATOM     12  C   UNL     1      33.783  -8.200 -23.371  0.00  0.00    +0.007 C 
ATOM     13  C   UNL     1      32.059  -8.184 -20.011  0.00  0.00    +0.252 C 
ATOM     14  C   UNL     1      33.143  -6.404 -21.347  0.00  0.00    +0.005 C 
ATOM     15  C   UNL     1      34.143  -6.853 -23.487  0.00  0.00    +0.035 C 
ATOM     16  C   UNL     1      33.823  -5.956 -22.475  0.00  0.00    +0.007 C 
ATOM     17  H   UNL     1      31.236  -9.801 -19.119  0.00  0.00    +0.158 HD
ENDBRANCH   1  10
BRANCH   1  21
ATOM     18  C   UNL     1      35.102 -15.739 -23.109  0.00  0.00    -0.043 C 
ATOM     19  C   UNL     1      34.932 -15.071 -21.896  0.00  0.00    -0.005 C 
ATOM     20  C   UNL     1      34.444 -15.286 -24.253  0.00  0.00    -0.005 C 
ATOM     21  C   UNL     1      33.446 -13.498 -22.971  0.00  0.00    +0.048 C 
ATOM     22  C   UNL     1      34.104 -13.951 -21.827  0.00  0.00    +0.014 C 
ATOM     23  C   UNL     1      33.616 -14.166 -24.184  0.00  0.00    +0.014 C 
BRANCH  18  24
ATOM     24  C   UNL     1      35.988 -16.936 -23.183  0.00  0.00    -0.050 C 
BRANCH  24  25
ATOM     25  N   UNL     1      35.910 -17.759 -21.985  0.00  0.00    +0.390 N 
ATOM     26  C   UNL     1      34.966 -18.867 -22.128  0.00  0.00    -0.077 C 
ATOM     27  C   UNL     1      37.188 -18.389 -21.656  0.00  0.00    -0.077 C 
ATOM     28  C   UNL     1      35.331 -19.779 -20.966  0.00  0.00    -0.025 C 
ATOM     29  C   UNL     1      36.790 -19.462 -20.654  0.00  0.00    -0.025 C 
ATOM     30  H   UNL     1      35.615 -17.107 -21.257  0.00  0.00    -0.079 HD
ENDBRANCH  24  25
ENDBRANCH  18  24
ENDBRANCH   1  21
TORSDOF 4
ENDMDL
MODEL 8
REMARK VINA RESULT:      -9.7      7.623     10.995
REMARK  Name = 24808489
REMARK  4 active torsions:
REMARK  status: ('A' for Active; 'I' for Inactive)
REMARK    1  A    between atoms: N_1  and  C_10
REMARK    2  A    between atoms: N_1  and  C_21
REMARK    3  A    between atoms: C_18  and  C_24
REMARK    4  A    between atoms: C_24  and  N_25
REMARK                            x       y       z     vdW  Elec       q    Type
REMARK                         _______ _______ _______ _____ _____    ______ ____
ROOT
ATOM      1  N   UNL     1      34.824 -13.003 -24.117  0.00  0.00    -0.311 N 
ATOM      2  H   UNL     1      35.287 -12.723 -24.939  0.00  0.00    +0.152 HD
ENDROOT
BRANCH   1  10
ATOM      3 BR   UNL     1      37.358 -18.590 -20.904  0.00  0.00    -0.049 Br
ATOM      4  O   UNL     1      33.113 -14.097 -25.640  0.00  0.00    -0.270 OA
ATOM      5  O   UNL     1      32.462 -18.640 -25.682  0.00  0.00    -0.270 OA
ATOM      6  N   UNL     1      32.819 -16.371 -25.629  0.00  0.00    -0.248 N 
ATOM      7  C   UNL     1      34.472 -15.395 -24.145  0.00  0.00    +0.068 C 
ATOM      8  C   UNL     1      34.793 -16.752 -23.652  0.00  0.00    +0.010 C 
ATOM      9  C   UNL     1      34.104 -17.856 -24.180  0.00  0.00    +0.054 C 
ATOM     10  C   UNL     1      35.066 -14.269 -23.714  0.00  0.00    +0.066 C 
ATOM     11  C   UNL     1      33.422 -15.200 -25.194  0.00  0.00    +0.253 C 
ATOM     12  C   UNL     1      35.767 -17.001 -22.668  0.00  0.00    +0.007 C 
ATOM     13  C   UNL     1      33.064 -17.676 -25.219  0.00  0.00    +0.252 C 
ATOM     14  C   UNL     1      34.380 -19.160 -23.738  0.00  0.00    +0.005 C 
ATOM     15  C   UNL     1      36.041 -18.300 -22.229  0.00  0.00    +0.035 C 
ATOM     16  C   UNL     1      35.348 -19.378 -22.763  0.00  0.00    +0.007 C 
ATOM     17  H   UNL     1      32.125 -16.264 -26.319  0.00  0.00    +0.158 HD
ENDBRANCH   1  10
BRANCH   1  21
ATOM     18  C   UNL     1      32.371 -10.099 -22.335  0.00  0.00    -0.043 C 
ATOM     19  C   UNL     1      32.331 -11.419 -21.883  0.00  0.00    -0.005 C 
ATOM     20  C   UNL     1      33.225  -9.745 -23.378  0.00  0.00    -0.005 C 
ATOM     21  C   UNL     1      34.001 -12.029 -23.520  0.00  0.00    +0.048 C 
ATOM     22  C   UNL     1      33.146 -12.383 -22.476  0.00  0.00    +0.014 C 
ATOM     23  C   UNL     1      34.040 -10.709 -23.971  0.00  0.00    +0.014 C 
BRANCH  18  24
ATOM     24  C   UNL     1      31.499  -9.069 -21.701  0.00  0.00    -0.050 C 
BRANCH  24  25
ATOM     25  N   UNL     1      32.212  -7.830 -21.429  0.00  0.00    +0.390 N 
ATOM     26  C   UNL     1      31.525  -6.659 -21.972  0.00  0.00    -0.077 C 
ATOM     27  C   UNL     1      32.341  -7.564 -19.997  0.00  0.00    -0.077 C 
ATOM     28  C   UNL     1      32.204  -5.501 -21.256  0.00  0.00    -0.025 C 
ATOM     29  C   UNL     1      32.743  -6.097 -19.959  0.00  0.00    -0.025 C 
ATOM     30  H   UNL     1      33.123  -7.967 -21.868  0.00  0.00    -0.079 HD
ENDBRANCH  24  25
ENDBRANCH  18  24
ENDBRANCH   1  21
TORSDOF 4
ENDMDL
MODEL 9
REMARK VINA RESULT:      -9.6      9.710     15.210
REMARK  Name = 24808489
REMARK  4 active torsions:
REMARK  status: ('A' for Active; 'I' for Inactive)
REMARK    1  A    between atoms: N_1  and  C_10
REMARK    2  A    between atoms: N_1  and  C_21
REMARK    3  A    between atoms: C_18  and  C_24
REMARK    4  A    between atoms: C_24  and  N_25
REMARK                            x       y       z     vdW  Elec       q    Type
REMARK                         _______ _______ _______ _____ _____    ______ ____
ROOT
ATOM      1  N   UNL     1      33.444  -9.534 -22.820  0.00  0.00    -0.311 N 
ATOM      2  H   UNL     1      33.208  -9.499 -21.865  0.00  0.00    +0.152 HD
ENDROOT
BRANCH   1  10
ATOM      3 BR   UNL     1      35.776  -4.410 -26.854  0.00  0.00    -0.049 Br
ATOM      4  O   UNL     1      31.652  -8.298 -21.514  0.00  0.00    -0.270 OA
ATOM      5  O   UNL     1      30.785  -3.845 -22.208  0.00  0.00    -0.270 OA
ATOM      6  N   UNL     1      31.251  -6.072 -21.892  0.00  0.00    -0.248 N 
ATOM      7  C   UNL     1      32.978  -7.188 -23.179  0.00  0.00    +0.068 C 
ATOM      8  C   UNL     1      33.244  -5.913 -23.880  0.00  0.00    +0.010 C 
ATOM      9  C   UNL     1      32.493  -4.774 -23.543  0.00  0.00    +0.054 C 
ATOM     10  C   UNL     1      33.634  -8.337 -23.417  0.00  0.00    +0.066 C 
ATOM     11  C   UNL     1      31.917  -7.266 -22.126  0.00  0.00    +0.253 C 
ATOM     12  C   UNL     1      34.226  -5.775 -24.877  0.00  0.00    +0.007 C 
ATOM     13  C   UNL     1      31.442  -4.838 -22.503  0.00  0.00    +0.252 C 
ATOM     14  C   UNL     1      32.716  -3.545 -24.185  0.00  0.00    +0.005 C 
ATOM     15  C   UNL     1      34.447  -4.551 -25.516  0.00  0.00    +0.035 C 
ATOM     16  C   UNL     1      33.693  -3.437 -25.170  0.00  0.00    +0.007 C 
ATOM     17  H   UNL     1      30.548  -6.103 -21.203  0.00  0.00    +0.158 HD
ENDBRANCH   1  10
BRANCH   1  21
ATOM     18  C   UNL     1      33.722 -13.378 -24.482  0.00  0.00    -0.043 C 
ATOM     19  C   UNL     1      33.190 -13.208 -23.204  0.00  0.00    -0.005 C 
ATOM     20  C   UNL     1      34.163 -12.272 -25.208  0.00  0.00    -0.005 C 
ATOM     21  C   UNL     1      33.538 -10.824 -23.377  0.00  0.00    +0.048 C 
ATOM     22  C   UNL     1      33.098 -11.930 -22.652  0.00  0.00    +0.014 C 
ATOM     23  C   UNL     1      34.071 -10.994 -24.655  0.00  0.00    +0.014 C 
BRANCH  18  24
ATOM     24  C   UNL     1      33.821 -14.744 -25.072  0.00  0.00    -0.050 C 
BRANCH  24  25
ATOM     25  N   UNL     1      34.155 -15.755 -24.079  0.00  0.00    +0.390 N 
ATOM     26  C   UNL     1      34.276 -17.091 -24.662  0.00  0.00    -0.077 C 
ATOM     27  C   UNL     1      35.445 -15.502 -23.438  0.00  0.00    -0.077 C 
ATOM     28  C   UNL     1      34.990 -17.876 -23.571  0.00  0.00    -0.025 C 
ATOM     29  C   UNL     1      35.756 -16.831 -22.765  0.00  0.00    -0.025 C 
ATOM     30  H   UNL     1      33.387 -15.706 -23.410  0.00  0.00    -0.079 HD
ENDBRANCH  24  25
ENDBRANCH  18  24
ENDBRANCH   1  21
TORSDOF 4
ENDMDL
