MODEL 1
REMARK VINA RESULT:     -12.2      0.000      0.000
REMARK  Name = 24779676
REMARK  4 active torsions:
REMARK  status: ('A' for Active; 'I' for Inactive)
REMARK    1  A    between atoms: N_2  and  C_22
REMARK    2  A    between atoms: N_3  and  C_14
REMARK    3  A    between atoms: C_10  and  C_21
REMARK    4  A    between atoms: C_22  and  C_24
REMARK                            x       y       z     vdW  Elec       q    Type
REMARK                         _______ _______ _______ _____ _____    ______ ____
ROOT
ATOM      1  N   UNL     1      32.985 -23.873 -14.297  0.00  0.00    -0.123 N 
ATOM      2  N   UNL     1      34.338 -22.577 -17.834  0.00  0.00    -0.254 N 
ATOM      3  N   UNL     1      35.081 -24.797 -13.723  0.00  0.00    -0.274 N 
ATOM      4  N   UNL     1      34.715 -23.686 -15.784  0.00  0.00    -0.295 NA
ATOM      5  N   UNL     1      32.580 -22.765 -16.331  0.00  0.00    -0.314 NA
ATOM      6  N   UNL     1      32.424 -24.262 -13.138  0.00  0.00    -0.170 NA
ATOM      7  C   UNL     1      34.308 -24.120 -14.626  0.00  0.00    +0.279 C 
ATOM      8  C   UNL     1      32.137 -23.208 -15.134  0.00  0.00    +0.219 C 
ATOM      9  C   UNL     1      33.838 -23.008 -16.628  0.00  0.00    +0.203 C 
ATOM     10  C   UNL     1      30.931 -23.159 -14.472  0.00  0.00    +0.203 C 
ATOM     11  C   UNL     1      31.168 -23.822 -13.251  0.00  0.00    +0.116 C 
ATOM     12  H   UNL     1      35.281 -22.761 -18.052  0.00  0.00    +0.161 HD
ATOM     13  H   UNL     1      34.642 -25.067 -12.883  0.00  0.00    +0.156 HD
ENDROOT
BRANCH   3  14
ATOM     14  C   UNL     1      36.425 -25.145 -13.863  0.00  0.00    +0.051 C 
ATOM     15  C   UNL     1      37.407 -24.427 -13.179  0.00  0.00    +0.015 C 
ATOM     16  C   UNL     1      36.787 -26.211 -14.687  0.00  0.00    +0.015 C 
ATOM     17  C   UNL     1      38.750 -24.777 -13.320  0.00  0.00    +0.001 C 
ATOM     18  C   UNL     1      38.130 -26.561 -14.826  0.00  0.00    +0.001 C 
ATOM     19  C   UNL     1      39.112 -25.843 -14.143  0.00  0.00    +0.000 C 
ENDBRANCH   3  14
BRANCH  10  21
ATOM     20  N   UNL     1      28.746 -22.078 -15.320  0.00  0.00    -0.195 NA
ATOM     21  C   UNL     1      29.728 -22.564 -14.939  0.00  0.00    +0.087 C 
ENDBRANCH  10  21
BRANCH   2  22
ATOM     22  C   UNL     1      33.535 -21.871 -18.781  0.00  0.00    +0.125 C 
BRANCH  22  24
ATOM     23 CL   UNL     1      36.953 -18.263 -22.168  0.00  0.00    -0.082 Cl
ATOM     24  C   UNL     1      34.389 -20.969 -19.628  0.00  0.00    -0.002 C 
ATOM     25  C   UNL     1      33.794 -20.107 -20.550  0.00  0.00    -0.002 C 
ATOM     26  C   UNL     1      35.777 -20.994 -19.492  0.00  0.00    -0.002 C 
ATOM     27  C   UNL     1      34.587 -19.271 -21.335  0.00  0.00    +0.011 C 
ATOM     28  C   UNL     1      36.570 -20.157 -20.277  0.00  0.00    +0.011 C 
ATOM     29  C   UNL     1      35.974 -19.296 -21.199  0.00  0.00    +0.058 C 
ENDBRANCH  22  24
ENDBRANCH   2  22
TORSDOF 4
ENDMDL
MODEL 2
REMARK VINA RESULT:     -11.2      1.494      5.389
REMARK  Name = 24779676
REMARK  4 active torsions:
REMARK  status: ('A' for Active; 'I' for Inactive)
REMARK    1  A    between atoms: N_2  and  C_22
REMARK    2  A    between atoms: N_3  and  C_14
REMARK    3  A    between atoms: C_10  and  C_21
REMARK    4  A    between atoms: C_22  and  C_24
REMARK                            x       y       z     vdW  Elec       q    Type
REMARK                         _______ _______ _______ _____ _____    ______ ____
ROOT
ATOM      1  N   UNL     1      33.959 -23.777 -14.173  0.00  0.00    -0.123 N 
ATOM      2  N   UNL     1      34.448 -22.283 -17.854  0.00  0.00    -0.254 N 
ATOM      3  N   UNL     1      31.606 -23.729 -14.360  0.00  0.00    -0.274 N 
ATOM      4  N   UNL     1      33.024 -23.003 -16.114  0.00  0.00    -0.295 NA
ATOM      5  N   UNL     1      35.402 -23.065 -15.889  0.00  0.00    -0.314 NA
ATOM      6  N   UNL     1      33.914 -24.282 -12.928  0.00  0.00    -0.170 NA
ATOM      7  C   UNL     1      32.829 -23.488 -14.922  0.00  0.00    +0.279 C 
ATOM      8  C   UNL     1      35.222 -23.569 -14.648  0.00  0.00    +0.219 C 
ATOM      9  C   UNL     1      34.320 -22.796 -16.585  0.00  0.00    +0.203 C 
ATOM     10  C   UNL     1      36.065 -23.967 -13.636  0.00  0.00    +0.203 C 
ATOM     11  C   UNL     1      35.206 -24.396 -12.604  0.00  0.00    +0.116 C 
ATOM     12  H   UNL     1      33.635 -22.082 -18.373  0.00  0.00    +0.161 HD
ATOM     13  H   UNL     1      31.606 -24.099 -13.447  0.00  0.00    +0.156 HD
ENDROOT
BRANCH   3  14
ATOM     14  C   UNL     1      30.356 -23.506 -14.942  0.00  0.00    +0.051 C 
ATOM     15  C   UNL     1      29.691 -22.299 -14.723  0.00  0.00    +0.015 C 
ATOM     16  C   UNL     1      29.774 -24.490 -15.740  0.00  0.00    +0.015 C 
ATOM     17  C   UNL     1      28.443 -22.077 -15.306  0.00  0.00    +0.001 C 
ATOM     18  C   UNL     1      28.526 -24.267 -16.323  0.00  0.00    +0.001 C 
ATOM     19  C   UNL     1      27.860 -23.060 -16.105  0.00  0.00    +0.000 C 
ENDBRANCH   3  14
BRANCH  10  21
ATOM     20  N   UNL     1      38.646 -23.923 -13.667  0.00  0.00    -0.195 NA
ATOM     21  C   UNL     1      37.485 -23.943 -13.653  0.00  0.00    +0.087 C 
ENDBRANCH  10  21
BRANCH   2  22
ATOM     22  C   UNL     1      35.724 -22.029 -18.445  0.00  0.00    +0.125 C 
BRANCH  22  24
ATOM     23 CL   UNL     1      35.294 -17.726 -22.625  0.00  0.00    -0.082 Cl
ATOM     24  C   UNL     1      35.616 -20.954 -19.490  0.00  0.00    -0.002 C 
ATOM     25  C   UNL     1      34.372 -20.630 -20.033  0.00  0.00    -0.002 C 
ATOM     26  C   UNL     1      36.760 -20.278 -19.916  0.00  0.00    -0.002 C 
ATOM     27  C   UNL     1      34.273 -19.632 -21.003  0.00  0.00    +0.011 C 
ATOM     28  C   UNL     1      36.660 -19.280 -20.886  0.00  0.00    +0.011 C 
ATOM     29  C   UNL     1      35.417 -18.957 -21.428  0.00  0.00    +0.058 C 
ENDBRANCH  22  24
ENDBRANCH   2  22
TORSDOF 4
ENDMDL
MODEL 3
REMARK VINA RESULT:     -10.1      2.648      6.838
REMARK  Name = 24779676
REMARK  4 active torsions:
REMARK  status: ('A' for Active; 'I' for Inactive)
REMARK    1  A    between atoms: N_2  and  C_22
REMARK    2  A    between atoms: N_3  and  C_14
REMARK    3  A    between atoms: C_10  and  C_21
REMARK    4  A    between atoms: C_22  and  C_24
REMARK                            x       y       z     vdW  Elec       q    Type
REMARK                         _______ _______ _______ _____ _____    ______ ____
ROOT
ATOM      1  N   UNL     1      32.247 -22.769 -16.562  0.00  0.00    -0.123 N 
ATOM      2  N   UNL     1      36.062 -23.321 -15.481  0.00  0.00    -0.254 N 
ATOM      3  N   UNL     1      32.867 -21.583 -18.507  0.00  0.00    -0.274 N 
ATOM      4  N   UNL     1      34.472 -22.451 -16.995  0.00  0.00    -0.295 NA
ATOM      5  N   UNL     1      33.807 -23.645 -15.035  0.00  0.00    -0.314 NA
ATOM      6  N   UNL     1      30.935 -22.644 -16.826  0.00  0.00    -0.170 NA
ATOM      7  C   UNL     1      33.243 -22.255 -17.376  0.00  0.00    +0.279 C 
ATOM      8  C   UNL     1      32.524 -23.452 -15.413  0.00  0.00    +0.219 C 
ATOM      9  C   UNL     1      34.740 -23.150 -15.819  0.00  0.00    +0.203 C 
ATOM     10  C   UNL     1      31.301 -23.798 -14.887  0.00  0.00    +0.203 C 
ATOM     11  C   UNL     1      30.360 -23.275 -15.798  0.00  0.00    +0.116 C 
ATOM     12  H   UNL     1      36.757 -22.949 -16.071  0.00  0.00    +0.161 HD
ATOM     13  H   UNL     1      31.899 -21.509 -18.674  0.00  0.00    +0.156 HD
ENDROOT
BRANCH   3  14
ATOM     14  C   UNL     1      33.709 -20.992 -19.451  0.00  0.00    +0.051 C 
ATOM     15  C   UNL     1      33.176 -20.164 -20.439  0.00  0.00    +0.015 C 
ATOM     16  C   UNL     1      35.082 -21.230 -19.407  0.00  0.00    +0.015 C 
ATOM     17  C   UNL     1      34.017 -19.573 -21.381  0.00  0.00    +0.001 C 
ATOM     18  C   UNL     1      35.924 -20.638 -20.349  0.00  0.00    +0.001 C 
ATOM     19  C   UNL     1      35.391 -19.810 -21.336  0.00  0.00    +0.000 C 
ENDBRANCH   3  14
BRANCH  10  21
ATOM     20  N   UNL     1      30.871 -25.115 -12.709  0.00  0.00    -0.195 NA
ATOM     21  C   UNL     1      31.064 -24.523 -13.688  0.00  0.00    +0.087 C 
ENDBRANCH  10  21
BRANCH   2  22
ATOM     22  C   UNL     1      36.459 -24.020 -14.300  0.00  0.00    +0.125 C 
BRANCH  22  24
ATOM     23 CL   UNL     1      41.022 -27.751 -15.499  0.00  0.00    -0.082 Cl
ATOM     24  C   UNL     1      37.599 -24.953 -14.599  0.00  0.00    -0.002 C 
ATOM     25  C   UNL     1      37.342 -26.264 -15.004  0.00  0.00    -0.002 C 
ATOM     26  C   UNL     1      38.916 -24.508 -14.474  0.00  0.00    -0.002 C 
ATOM     27  C   UNL     1      38.401 -27.128 -15.282  0.00  0.00    +0.011 C 
ATOM     28  C   UNL     1      39.974 -25.373 -14.752  0.00  0.00    +0.011 C 
ATOM     29  C   UNL     1      39.716 -26.683 -15.156  0.00  0.00    +0.058 C 
ENDBRANCH  22  24
ENDBRANCH   2  22
TORSDOF 4
ENDMDL
MODEL 4
REMARK VINA RESULT:      -9.6      3.051      7.332
REMARK  Name = 24779676
REMARK  4 active torsions:
REMARK  status: ('A' for Active; 'I' for Inactive)
REMARK    1  A    between atoms: N_2  and  C_22
REMARK    2  A    between atoms: N_3  and  C_14
REMARK    3  A    between atoms: C_10  and  C_21
REMARK    4  A    between atoms: C_22  and  C_24
REMARK                            x       y       z     vdW  Elec       q    Type
REMARK                         _______ _______ _______ _____ _____    ______ ____
ROOT
ATOM      1  N   UNL     1      36.741 -22.834 -16.107  0.00  0.00    -0.123 N 
ATOM      2  N   UNL     1      32.777 -23.256 -16.467  0.00  0.00    -0.254 N 
ATOM      3  N   UNL     1      36.870 -21.472 -18.032  0.00  0.00    -0.274 N 
ATOM      4  N   UNL     1      34.817 -22.363 -17.253  0.00  0.00    -0.295 NA
ATOM      5  N   UNL     1      34.725 -23.738 -15.302  0.00  0.00    -0.314 NA
ATOM      6  N   UNL     1      38.066 -22.760 -15.888  0.00  0.00    -0.170 NA
ATOM      7  C   UNL     1      36.105 -22.205 -17.165  0.00  0.00    +0.279 C 
ATOM      8  C   UNL     1      36.063 -23.587 -15.192  0.00  0.00    +0.219 C 
ATOM      9  C   UNL     1      34.138 -23.135 -16.312  0.00  0.00    +0.203 C 
ATOM     10  C   UNL     1      37.017 -24.040 -14.310  0.00  0.00    +0.203 C 
ATOM     11  C   UNL     1      38.229 -23.501 -14.788  0.00  0.00    +0.116 C 
ATOM     12  H   UNL     1      32.341 -22.803 -17.225  0.00  0.00    +0.161 HD
ATOM     13  H   UNL     1      37.836 -21.437 -17.845  0.00  0.00    +0.156 HD
ENDROOT
BRANCH   3  14
ATOM     14  C   UNL     1      36.427 -20.769 -19.154  0.00  0.00    +0.051 C 
ATOM     15  C   UNL     1      35.121 -20.940 -19.612  0.00  0.00    +0.015 C 
ATOM     16  C   UNL     1      37.291 -19.897 -19.816  0.00  0.00    +0.015 C 
ATOM     17  C   UNL     1      34.679 -20.236 -20.733  0.00  0.00    +0.001 C 
ATOM     18  C   UNL     1      36.848 -19.194 -20.936  0.00  0.00    +0.001 C 
ATOM     19  C   UNL     1      35.542 -19.364 -21.395  0.00  0.00    +0.000 C 
ENDBRANCH   3  14
BRANCH  10  21
ATOM     20  N   UNL     1      36.627 -25.544 -12.249  0.00  0.00    -0.195 NA
ATOM     21  C   UNL     1      36.802 -24.868 -13.176  0.00  0.00    +0.087 C 
ENDBRANCH  10  21
BRANCH   2  22
ATOM     22  C   UNL     1      31.975 -24.021 -15.565  0.00  0.00    +0.125 C 
BRANCH  22  24
ATOM     23 CL   UNL     1      26.325 -21.959 -15.499  0.00  0.00    -0.082 Cl
ATOM     24  C   UNL     1      30.563 -23.505 -15.550  0.00  0.00    -0.002 C 
ATOM     25  C   UNL     1      29.601 -24.076 -16.384  0.00  0.00    -0.002 C 
ATOM     26  C   UNL     1      30.213 -22.456 -14.698  0.00  0.00    -0.002 C 
ATOM     27  C   UNL     1      28.292 -23.597 -16.368  0.00  0.00    +0.011 C 
ATOM     28  C   UNL     1      28.903 -21.978 -14.683  0.00  0.00    +0.011 C 
ATOM     29  C   UNL     1      27.942 -22.549 -15.518  0.00  0.00    +0.058 C 
ENDBRANCH  22  24
ENDBRANCH   2  22
TORSDOF 4
ENDMDL
