MODEL 1
REMARK VINA RESULT:     -12.1      0.000      0.000
REMARK  Name = 11167602
REMARK  6 active torsions:
REMARK  status: ('A' for Active; 'I' for Inactive)
REMARK    1  A    between atoms: C_2  and  N_10
REMARK    2  A    between atoms: C_3  and  O_25
REMARK    3  A    between atoms: N_9  and  C_15
REMARK    4  A    between atoms: C_16  and  C_24
REMARK    5  A    between atoms: O_25  and  C_27
REMARK    6  A    between atoms: C_29  and  C_34
REMARK                            x       y       z     vdW  Elec       q    Type
REMARK                         _______ _______ _______ _____ _____    ______ ____
ROOT
ATOM      1  F   UNL     1      34.426 -17.188 -25.252  0.00  0.00    -0.203 F 
ATOM      2  C   UNL     1      34.977 -16.098 -23.216  0.00  0.00    +0.079 C 
ATOM      3  C   UNL     1      35.549 -18.558 -22.079  0.00  0.00    +0.148 C 
ATOM      4  C   UNL     1      34.834 -17.246 -23.978  0.00  0.00    +0.157 C 
ATOM      5  C   UNL     1      35.401 -16.153 -21.898  0.00  0.00    +0.020 C 
ATOM      6  C   UNL     1      35.122 -18.485 -23.405  0.00  0.00    +0.068 C 
ATOM      7  C   UNL     1      35.688 -17.392 -21.325  0.00  0.00    +0.039 C 
ENDROOT
BRANCH   2  10
ATOM      8  O   UNL     1      34.891 -13.380 -21.979  0.00  0.00    -0.252 OA
ATOM      9  N   UNL     1      34.323 -12.580 -24.106  0.00  0.00    -0.268 N 
ATOM     10  N   UNL     1      34.687 -14.839 -23.795  0.00  0.00    -0.266 N 
ATOM     11  C   UNL     1      34.659 -13.585 -23.166  0.00  0.00    +0.308 C 
ATOM     12  H   UNL     1      34.164 -12.892 -25.026  0.00  0.00    +0.156 HD
ATOM     13  H   UNL     1      34.478 -14.845 -24.757  0.00  0.00    +0.156 HD
BRANCH   9  15
ATOM     14 CL   UNL     1      33.789  -6.755 -23.256  0.00  0.00    -0.082 Cl
ATOM     15  C   UNL     1      34.188 -11.206 -23.902  0.00  0.00    +0.052 C 
ATOM     16  C   UNL     1      32.943  -9.334 -23.018  0.00  0.00    +0.083 C 
ATOM     17  C   UNL     1      33.077 -10.708 -23.222  0.00  0.00    +0.019 C 
ATOM     18  C   UNL     1      35.165 -10.332 -24.377  0.00  0.00    +0.016 C 
ATOM     19  C   UNL     1      33.920  -8.460 -23.492  0.00  0.00    +0.062 C 
ATOM     20  C   UNL     1      35.031  -8.959 -24.172  0.00  0.00    +0.013 C 
BRANCH  16  24
ATOM     21  F   UNL     1      30.998  -7.942 -22.992  0.00  0.00    -0.166 F 
ATOM     22  F   UNL     1      30.867  -9.833 -21.938  0.00  0.00    -0.166 F 
ATOM     23  F   UNL     1      32.062  -8.213 -21.116  0.00  0.00    -0.166 F 
ATOM     24  C   UNL     1      31.739  -8.841 -22.283  0.00  0.00    +0.419 C 
ENDBRANCH  16  24
ENDBRANCH   9  15
ENDBRANCH   2  10
BRANCH   3  25
ATOM     25  O   UNL     1      35.830 -19.767 -21.519  0.00  0.00    -0.453 OA
BRANCH  25  27
ATOM     26  N   UNL     1      33.082 -21.328 -18.821  0.00  0.00    -0.239 NA
ATOM     27  C   UNL     1      34.915 -20.288 -20.621  0.00  0.00    +0.149 C 
ATOM     28  C   UNL     1      35.359 -21.106 -19.604  0.00  0.00    +0.061 C 
ATOM     29  C   UNL     1      34.404 -21.600 -18.730  0.00  0.00    +0.137 C 
ATOM     30  C   UNL     1      33.579 -19.976 -20.763  0.00  0.00    +0.058 C 
ATOM     31  C   UNL     1      32.704 -20.522 -19.838  0.00  0.00    +0.102 C 
BRANCH  29  34
ATOM     32  O   UNL     1      34.131 -23.487 -17.366  0.00  0.00    -0.268 OA
ATOM     33  N   UNL     1      35.947 -22.116 -16.920  0.00  0.00    -0.298 N 
ATOM     34  C   UNL     1      34.794 -22.468 -17.633  0.00  0.00    +0.264 C 
ATOM     35  C   UNL     1      36.475 -22.889 -15.820  0.00  0.00    +0.111 C 
ATOM     36  H   UNL     1      36.423 -21.295 -17.183  0.00  0.00    +0.150 HD
ENDBRANCH  29  34
ENDBRANCH  25  27
ENDBRANCH   3  25
TORSDOF 6
ENDMDL
MODEL 2
REMARK VINA RESULT:     -12.0      2.290      3.404
REMARK  Name = 11167602
REMARK  6 active torsions:
REMARK  status: ('A' for Active; 'I' for Inactive)
REMARK    1  A    between atoms: C_2  and  N_10
REMARK    2  A    between atoms: C_3  and  O_25
REMARK    3  A    between atoms: N_9  and  C_15
REMARK    4  A    between atoms: C_16  and  C_24
REMARK    5  A    between atoms: O_25  and  C_27
REMARK    6  A    between atoms: C_29  and  C_34
REMARK                            x       y       z     vdW  Elec       q    Type
REMARK                         _______ _______ _______ _____ _____    ______ ____
ROOT
ATOM      1  F   UNL     1      34.759 -13.765 -20.894  0.00  0.00    -0.203 F 
ATOM      2  C   UNL     1      34.020 -13.685 -23.149  0.00  0.00    +0.079 C 
ATOM      3  C   UNL     1      34.929 -16.275 -23.518  0.00  0.00    +0.148 C 
ATOM      4  C   UNL     1      34.615 -14.351 -22.091  0.00  0.00    +0.157 C 
ATOM      5  C   UNL     1      33.868 -14.287 -24.388  0.00  0.00    +0.020 C 
ATOM      6  C   UNL     1      35.073 -15.655 -22.277  0.00  0.00    +0.068 C 
ATOM      7  C   UNL     1      34.327 -15.591 -24.574  0.00  0.00    +0.039 C 
ENDROOT
BRANCH   2  10
ATOM      8  O   UNL     1      35.011 -11.111 -24.297  0.00  0.00    -0.252 OA
ATOM      9  N   UNL     1      33.300 -10.069 -23.083  0.00  0.00    -0.268 N 
ATOM     10  N   UNL     1      33.553 -12.362 -22.964  0.00  0.00    -0.266 N 
ATOM     11  C   UNL     1      34.057 -11.180 -23.529  0.00  0.00    +0.308 C 
ATOM     12  H   UNL     1      32.561 -10.276 -22.467  0.00  0.00    +0.156 HD
ATOM     13  H   UNL     1      32.779 -12.258 -22.364  0.00  0.00    +0.156 HD
BRANCH   9  15
ATOM     14 CL   UNL     1      34.030  -4.362 -24.441  0.00  0.00    -0.082 Cl
ATOM     15  C   UNL     1      33.463  -8.720 -23.401  0.00  0.00    +0.052 C 
ATOM     16  C   UNL     1      32.608  -6.461 -23.440  0.00  0.00    +0.083 C 
ATOM     17  C   UNL     1      32.444  -7.810 -23.122  0.00  0.00    +0.019 C 
ATOM     18  C   UNL     1      34.645  -8.283 -23.998  0.00  0.00    +0.016 C 
ATOM     19  C   UNL     1      33.791  -6.024 -24.035  0.00  0.00    +0.062 C 
ATOM     20  C   UNL     1      34.809  -6.935 -24.315  0.00  0.00    +0.013 C 
BRANCH  16  24
ATOM     21  F   UNL     1      31.876  -4.468 -22.337  0.00  0.00    -0.166 F 
ATOM     22  F   UNL     1      30.928  -4.952 -24.227  0.00  0.00    -0.166 F 
ATOM     23  F   UNL     1      30.472  -6.124 -22.453  0.00  0.00    -0.166 F 
ATOM     24  C   UNL     1      31.494  -5.517 -23.122  0.00  0.00    +0.419 C 
ENDBRANCH  16  24
ENDBRANCH   9  15
ENDBRANCH   2  10
BRANCH   3  25
ATOM     25  O   UNL     1      35.375 -17.548 -23.700  0.00  0.00    -0.453 OA
BRANCH  25  27
ATOM     26  N   UNL     1      36.260 -19.788 -20.313  0.00  0.00    -0.239 NA
ATOM     27  C   UNL     1      35.669 -18.294 -22.571  0.00  0.00    +0.149 C 
ATOM     28  C   UNL     1      34.666 -19.010 -21.955  0.00  0.00    +0.061 C 
ATOM     29  C   UNL     1      35.012 -19.742 -20.830  0.00  0.00    +0.137 C 
ATOM     30  C   UNL     1      36.961 -18.304 -22.088  0.00  0.00    +0.058 C 
ATOM     31  C   UNL     1      37.204 -19.065 -20.957  0.00  0.00    +0.102 C 
BRANCH  29  34
ATOM     32  O   UNL     1      32.798 -20.360 -20.367  0.00  0.00    -0.268 OA
ATOM     33  N   UNL     1      34.470 -21.464 -19.198  0.00  0.00    -0.298 N 
ATOM     34  C   UNL     1      34.009 -20.522 -20.126  0.00  0.00    +0.264 C 
ATOM     35  C   UNL     1      33.600 -22.331 -18.438  0.00  0.00    +0.111 C 
ATOM     36  H   UNL     1      35.441 -21.539 -19.055  0.00  0.00    +0.150 HD
ENDBRANCH  29  34
ENDBRANCH  25  27
ENDBRANCH   3  25
TORSDOF 6
ENDMDL
MODEL 3
REMARK VINA RESULT:     -12.0      3.913      6.784
REMARK  Name = 11167602
REMARK  6 active torsions:
REMARK  status: ('A' for Active; 'I' for Inactive)
REMARK    1  A    between atoms: C_2  and  N_10
REMARK    2  A    between atoms: C_3  and  O_25
REMARK    3  A    between atoms: N_9  and  C_15
REMARK    4  A    between atoms: C_16  and  C_24
REMARK    5  A    between atoms: O_25  and  C_27
REMARK    6  A    between atoms: C_29  and  C_34
REMARK                            x       y       z     vdW  Elec       q    Type
REMARK                         _______ _______ _______ _____ _____    ______ ____
ROOT
ATOM      1  F   UNL     1      37.510 -20.564 -17.714  0.00  0.00    -0.203 F 
ATOM      2  C   UNL     1      35.623 -21.207 -19.003  0.00  0.00    +0.079 C 
ATOM      3  C   UNL     1      34.916 -23.016 -17.029  0.00  0.00    +0.148 C 
ATOM      4  C   UNL     1      36.413 -21.317 -17.871  0.00  0.00    +0.157 C 
ATOM      5  C   UNL     1      34.486 -21.982 -19.169  0.00  0.00    +0.020 C 
ATOM      6  C   UNL     1      36.057 -22.228 -16.877  0.00  0.00    +0.068 C 
ATOM      7  C   UNL     1      34.131 -22.893 -18.175  0.00  0.00    +0.039 C 
ENDROOT
BRANCH   2  10
ATOM      8  O   UNL     1      33.922 -19.341 -20.599  0.00  0.00    -0.252 OA
ATOM      9  N   UNL     1      35.899 -18.661 -21.657  0.00  0.00    -0.268 N 
ATOM     10  N   UNL     1      35.980 -20.282 -20.013  0.00  0.00    -0.266 N 
ATOM     11  C   UNL     1      35.138 -19.424 -20.737  0.00  0.00    +0.308 C 
ATOM     12  H   UNL     1      36.868 -18.835 -21.656  0.00  0.00    +0.156 HD
ATOM     13  H   UNL     1      36.938 -20.236 -20.236  0.00  0.00    +0.156 HD
BRANCH   9  15
ATOM     14 CL   UNL     1      34.033 -14.601 -25.527  0.00  0.00    -0.082 Cl
ATOM     15  C   UNL     1      35.457 -17.697 -22.563  0.00  0.00    +0.052 C 
ATOM     16  C   UNL     1      34.762 -15.432 -23.035  0.00  0.00    +0.083 C 
ATOM     17  C   UNL     1      35.203 -16.396 -22.128  0.00  0.00    +0.019 C 
ATOM     18  C   UNL     1      35.270 -18.034 -23.903  0.00  0.00    +0.016 C 
ATOM     19  C   UNL     1      34.576 -15.768 -24.375  0.00  0.00    +0.062 C 
ATOM     20  C   UNL     1      34.829 -17.069 -24.810  0.00  0.00    +0.013 C 
BRANCH  16  24
ATOM     21  F   UNL     1      35.122 -13.078 -23.261  0.00  0.00    -0.166 F 
ATOM     22  F   UNL     1      33.182 -13.709 -22.526  0.00  0.00    -0.166 F 
ATOM     23  F   UNL     1      34.934 -13.874 -21.248  0.00  0.00    -0.166 F 
ATOM     24  C   UNL     1      34.504 -14.049 -22.530  0.00  0.00    +0.419 C 
ENDBRANCH  16  24
ENDBRANCH   9  15
ENDBRANCH   2  10
BRANCH   3  25
ATOM     25  O   UNL     1      34.569 -23.906 -16.058  0.00  0.00    -0.453 OA
BRANCH  25  27
ATOM     26  N   UNL     1      31.141 -23.114 -13.846  0.00  0.00    -0.239 NA
ATOM     27  C   UNL     1      33.427 -23.641 -15.322  0.00  0.00    +0.149 C 
ATOM     28  C   UNL     1      32.274 -23.265 -15.976  0.00  0.00    +0.061 C 
ATOM     29  C   UNL     1      31.158 -23.013 -15.194  0.00  0.00    +0.137 C 
ATOM     30  C   UNL     1      33.469 -23.760 -13.949  0.00  0.00    +0.058 C 
ATOM     31  C   UNL     1      32.300 -23.485 -13.257  0.00  0.00    +0.102 C 
BRANCH  29  34
ATOM     32  O   UNL     1      29.874 -22.255 -17.003  0.00  0.00    -0.268 OA
ATOM     33  N   UNL     1      28.755 -22.673 -15.016  0.00  0.00    -0.298 N 
ATOM     34  C   UNL     1      29.906 -22.613 -15.812  0.00  0.00    +0.264 C 
ATOM     35  C   UNL     1      27.434 -22.330 -15.491  0.00  0.00    +0.111 C 
ATOM     36  H   UNL     1      28.851 -22.963 -14.080  0.00  0.00    +0.150 HD
ENDBRANCH  29  34
ENDBRANCH  25  27
ENDBRANCH   3  25
TORSDOF 6
ENDMDL
MODEL 4
REMARK VINA RESULT:     -11.9      2.418      3.540
REMARK  Name = 11167602
REMARK  6 active torsions:
REMARK  status: ('A' for Active; 'I' for Inactive)
REMARK    1  A    between atoms: C_2  and  N_10
REMARK    2  A    between atoms: C_3  and  O_25
REMARK    3  A    between atoms: N_9  and  C_15
REMARK    4  A    between atoms: C_16  and  C_24
REMARK    5  A    between atoms: O_25  and  C_27
REMARK    6  A    between atoms: C_29  and  C_34
REMARK                            x       y       z     vdW  Elec       q    Type
REMARK                         _______ _______ _______ _____ _____    ______ ____
ROOT
ATOM      1  F   UNL     1      33.174 -13.652 -26.108  0.00  0.00    -0.203 F 
ATOM      2  C   UNL     1      34.291 -13.540 -24.015  0.00  0.00    +0.079 C 
ATOM      3  C   UNL     1      34.515 -16.301 -24.011  0.00  0.00    +0.148 C 
ATOM      4  C   UNL     1      33.777 -14.264 -25.079  0.00  0.00    +0.157 C 
ATOM      5  C   UNL     1      34.916 -14.169 -22.950  0.00  0.00    +0.020 C 
ATOM      6  C   UNL     1      33.889 -15.653 -25.077  0.00  0.00    +0.068 C 
ATOM      7  C   UNL     1      35.027 -15.559 -22.948  0.00  0.00    +0.039 C 
ENDROOT
BRANCH   2  10
ATOM      8  O   UNL     1      32.687 -11.733 -22.259  0.00  0.00    -0.252 OA
ATOM      9  N   UNL     1      33.581  -9.959 -23.501  0.00  0.00    -0.268 N 
ATOM     10  N   UNL     1      34.180 -12.130 -24.014  0.00  0.00    -0.266 N 
ATOM     11  C   UNL     1      33.407 -11.324 -23.164  0.00  0.00    +0.308 C 
ATOM     12  H   UNL     1      34.192  -9.779 -24.252  0.00  0.00    +0.156 HD
ATOM     13  H   UNL     1      34.710 -11.656 -24.696  0.00  0.00    +0.156 HD
BRANCH   9  15
ATOM     14 CL   UNL     1      31.113  -5.223 -20.967  0.00  0.00    -0.082 Cl
ATOM     15  C   UNL     1      33.001  -8.836 -22.911  0.00  0.00    +0.052 C 
ATOM     16  C   UNL     1      32.315  -6.523 -23.039  0.00  0.00    +0.083 C 
ATOM     17  C   UNL     1      32.896  -7.645 -23.631  0.00  0.00    +0.019 C 
ATOM     18  C   UNL     1      32.526  -8.904 -21.602  0.00  0.00    +0.016 C 
ATOM     19  C   UNL     1      31.839  -6.591 -21.731  0.00  0.00    +0.062 C 
ATOM     20  C   UNL     1      31.945  -7.781 -21.011  0.00  0.00    +0.013 C 
BRANCH  16  24
ATOM     21  F   UNL     1      32.655  -5.410 -25.129  0.00  0.00    -0.166 F 
ATOM     22  F   UNL     1      30.948  -4.782 -23.948  0.00  0.00    -0.166 F 
ATOM     23  F   UNL     1      32.960  -4.251 -23.315  0.00  0.00    -0.166 F 
ATOM     24  C   UNL     1      32.220  -5.267 -23.845  0.00  0.00    +0.419 C 
ENDBRANCH  16  24
ENDBRANCH   9  15
ENDBRANCH   2  10
BRANCH   3  25
ATOM     25  O   UNL     1      34.624 -17.658 -24.009  0.00  0.00    -0.453 OA
BRANCH  25  27
ATOM     26  N   UNL     1      36.047 -19.477 -20.554  0.00  0.00    -0.239 NA
ATOM     27  C   UNL     1      35.097 -18.264 -22.857  0.00  0.00    +0.149 C 
ATOM     28  C   UNL     1      34.242 -19.036 -22.102  0.00  0.00    +0.061 C 
ATOM     29  C   UNL     1      34.765 -19.622 -20.959  0.00  0.00    +0.137 C 
ATOM     30  C   UNL     1      36.414 -18.080 -22.493  0.00  0.00    +0.058 C 
ATOM     31  C   UNL     1      36.839 -18.707 -21.333  0.00  0.00    +0.102 C 
BRANCH  29  34
ATOM     32  O   UNL     1      32.685 -20.356 -20.163  0.00  0.00    -0.268 OA
ATOM     33  N   UNL     1      34.574 -21.360 -19.266  0.00  0.00    -0.298 N 
ATOM     34  C   UNL     1      33.926 -20.451 -20.111  0.00  0.00    +0.264 C 
ATOM     35  C   UNL     1      33.879 -22.267 -18.383  0.00  0.00    +0.111 C 
ATOM     36  H   UNL     1      35.558 -21.382 -19.275  0.00  0.00    +0.150 HD
ENDBRANCH  29  34
ENDBRANCH  25  27
ENDBRANCH   3  25
TORSDOF 6
ENDMDL
MODEL 5
REMARK VINA RESULT:     -11.6      4.077      7.190
REMARK  Name = 11167602
REMARK  6 active torsions:
REMARK  status: ('A' for Active; 'I' for Inactive)
REMARK    1  A    between atoms: C_2  and  N_10
REMARK    2  A    between atoms: C_3  and  O_25
REMARK    3  A    between atoms: N_9  and  C_15
REMARK    4  A    between atoms: C_16  and  C_24
REMARK    5  A    between atoms: O_25  and  C_27
REMARK    6  A    between atoms: C_29  and  C_34
REMARK                            x       y       z     vdW  Elec       q    Type
REMARK                         _______ _______ _______ _____ _____    ______ ____
ROOT
ATOM      1  F   UNL     1      33.952 -22.021 -19.595  0.00  0.00    -0.203 F 
ATOM      2  C   UNL     1      36.032 -21.229 -18.769  0.00  0.00    +0.079 C 
ATOM      3  C   UNL     1      35.644 -22.694 -16.450  0.00  0.00    +0.148 C 
ATOM      4  C   UNL     1      34.880 -21.986 -18.629  0.00  0.00    +0.157 C 
ATOM      5  C   UNL     1      36.995 -21.191 -17.773  0.00  0.00    +0.020 C 
ATOM      6  C   UNL     1      34.685 -22.723 -17.462  0.00  0.00    +0.068 C 
ATOM      7  C   UNL     1      36.799 -21.927 -16.605  0.00  0.00    +0.039 C 
ENDROOT
BRANCH   2  10
ATOM      8  O   UNL     1      34.236 -19.284 -20.151  0.00  0.00    -0.252 OA
ATOM      9  N   UNL     1      35.944 -19.042 -21.736  0.00  0.00    -0.268 N 
ATOM     10  N   UNL     1      36.234 -20.481 -19.953  0.00  0.00    -0.266 N 
ATOM     11  C   UNL     1      35.353 -19.576 -20.565  0.00  0.00    +0.308 C 
ATOM     12  H   UNL     1      36.849 -19.369 -21.944  0.00  0.00    +0.156 HD
ATOM     13  H   UNL     1      37.100 -20.613 -20.403  0.00  0.00    +0.156 HD
BRANCH   9  15
ATOM     14 CL   UNL     1      33.697 -15.144 -25.569  0.00  0.00    -0.082 Cl
ATOM     15  C   UNL     1      35.414 -18.115 -22.634  0.00  0.00    +0.052 C 
ATOM     16  C   UNL     1      34.735 -15.855 -23.152  0.00  0.00    +0.083 C 
ATOM     17  C   UNL     1      35.265 -16.782 -22.253  0.00  0.00    +0.019 C 
ATOM     18  C   UNL     1      35.033 -18.523 -23.912  0.00  0.00    +0.016 C 
ATOM     19  C   UNL     1      34.355 -16.263 -24.430  0.00  0.00    +0.062 C 
ATOM     20  C   UNL     1      34.504 -17.596 -24.810  0.00  0.00    +0.013 C 
BRANCH  16  24
ATOM     21  F   UNL     1      35.303 -13.553 -23.467  0.00  0.00    -0.166 F 
ATOM     22  F   UNL     1      33.307 -13.982 -22.733  0.00  0.00    -0.166 F 
ATOM     23  F   UNL     1      35.024 -14.247 -21.425  0.00  0.00    -0.166 F 
ATOM     24  C   UNL     1      34.594 -14.436 -22.706  0.00  0.00    +0.419 C 
ENDBRANCH  16  24
ENDBRANCH   9  15
ENDBRANCH   2  10
BRANCH   3  25
ATOM     25  O   UNL     1      35.453 -23.413 -15.310  0.00  0.00    -0.453 OA
BRANCH  25  27
ATOM     26  N   UNL     1      38.782 -24.215 -12.955  0.00  0.00    -0.239 NA
ATOM     27  C   UNL     1      36.562 -23.682 -14.525  0.00  0.00    +0.149 C 
ATOM     28  C   UNL     1      37.593 -24.431 -15.049  0.00  0.00    +0.061 C 
ATOM     29  C   UNL     1      38.682 -24.670 -14.224  0.00  0.00    +0.137 C 
ATOM     30  C   UNL     1      36.610 -23.192 -13.237  0.00  0.00    +0.058 C 
ATOM     31  C   UNL     1      37.741 -23.487 -12.493  0.00  0.00    +0.102 C 
BRANCH  29  34
ATOM     32  O   UNL     1      40.975 -25.076 -14.490  0.00  0.00    -0.268 OA
ATOM     33  N   UNL     1      39.515 -26.637 -15.389  0.00  0.00    -0.298 N 
ATOM     34  C   UNL     1      39.808 -25.451 -14.705  0.00  0.00    +0.264 C 
ATOM     35  C   UNL     1      40.523 -27.532 -15.907  0.00  0.00    +0.111 C 
ATOM     36  H   UNL     1      38.569 -26.874 -15.526  0.00  0.00    +0.150 HD
ENDBRANCH  29  34
ENDBRANCH  25  27
ENDBRANCH   3  25
TORSDOF 6
ENDMDL
MODEL 6
REMARK VINA RESULT:     -11.6      6.434     12.674
REMARK  Name = 11167602
REMARK  6 active torsions:
REMARK  status: ('A' for Active; 'I' for Inactive)
REMARK    1  A    between atoms: C_2  and  N_10
REMARK    2  A    between atoms: C_3  and  O_25
REMARK    3  A    between atoms: N_9  and  C_15
REMARK    4  A    between atoms: C_16  and  C_24
REMARK    5  A    between atoms: O_25  and  C_27
REMARK    6  A    between atoms: C_29  and  C_34
REMARK                            x       y       z     vdW  Elec       q    Type
REMARK                         _______ _______ _______ _____ _____    ______ ____
ROOT
ATOM      1  F   UNL     1      33.246 -20.616 -19.876  0.00  0.00    -0.203 F 
ATOM      2  C   UNL     1      35.545 -20.944 -19.383  0.00  0.00    +0.079 C 
ATOM      3  C   UNL     1      36.206 -19.094 -21.336  0.00  0.00    +0.148 C 
ATOM      4  C   UNL     1      34.535 -20.331 -20.105  0.00  0.00    +0.157 C 
ATOM      5  C   UNL     1      36.879 -20.650 -19.615  0.00  0.00    +0.020 C 
ATOM      6  C   UNL     1      34.868 -19.399 -21.089  0.00  0.00    +0.068 C 
ATOM      7  C   UNL     1      37.212 -19.719 -20.599  0.00  0.00    +0.039 C 
ENDROOT
BRANCH   2  10
ATOM      8  O   UNL     1      36.574 -21.247 -16.595  0.00  0.00    -0.252 OA
ATOM      9  N   UNL     1      35.124 -23.077 -16.405  0.00  0.00    -0.268 N 
ATOM     10  N   UNL     1      35.211 -21.888 -18.384  0.00  0.00    -0.266 N 
ATOM     11  C   UNL     1      35.727 -21.989 -17.082  0.00  0.00    +0.308 C 
ATOM     12  H   UNL     1      34.458 -23.585 -16.923  0.00  0.00    +0.156 HD
ATOM     13  H   UNL     1      34.534 -22.558 -18.633  0.00  0.00    +0.156 HD
BRANCH   9  15
ATOM     14 CL   UNL     1      36.033 -24.963 -10.877  0.00  0.00    -0.082 Cl
ATOM     15  C   UNL     1      35.348 -23.525 -15.103  0.00  0.00    +0.052 C 
ATOM     16  C   UNL     1      36.848 -24.372 -13.410  0.00  0.00    +0.083 C 
ATOM     17  C   UNL     1      36.626 -23.926 -14.713  0.00  0.00    +0.019 C 
ATOM     18  C   UNL     1      34.293 -23.571 -14.191  0.00  0.00    +0.016 C 
ATOM     19  C   UNL     1      35.794 -24.418 -12.499  0.00  0.00    +0.062 C 
ATOM     20  C   UNL     1      34.517 -24.018 -12.889  0.00  0.00    +0.013 C 
BRANCH  16  24
ATOM     21  F   UNL     1      38.759 -24.063 -12.005  0.00  0.00    -0.166 F 
ATOM     22  F   UNL     1      38.317 -26.092 -12.630  0.00  0.00    -0.166 F 
ATOM     23  F   UNL     1      39.115 -24.664 -14.063  0.00  0.00    -0.166 F 
ATOM     24  C   UNL     1      38.232 -24.790 -13.031  0.00  0.00    +0.419 C 
ENDBRANCH  16  24
ENDBRANCH   9  15
ENDBRANCH   2  10
BRANCH   3  25
ATOM     25  O   UNL     1      36.531 -18.185 -22.296  0.00  0.00    -0.453 OA
BRANCH  25  27
ATOM     26  N   UNL     1      33.632 -17.236 -25.118  0.00  0.00    -0.239 NA
ATOM     27  C   UNL     1      35.565 -17.868 -23.235  0.00  0.00    +0.149 C 
ATOM     28  C   UNL     1      35.306 -16.544 -23.516  0.00  0.00    +0.061 C 
ATOM     29  C   UNL     1      34.331 -16.279 -24.465  0.00  0.00    +0.137 C 
ATOM     30  C   UNL     1      34.883 -18.885 -23.869  0.00  0.00    +0.058 C 
ATOM     31  C   UNL     1      33.927 -18.516 -24.801  0.00  0.00    +0.102 C 
BRANCH  29  34
ATOM     32  O   UNL     1      33.441 -14.650 -25.896  0.00  0.00    -0.268 OA
ATOM     33  N   UNL     1      34.323 -13.917 -23.880  0.00  0.00    -0.298 N 
ATOM     34  C   UNL     1      34.002 -14.909 -24.816  0.00  0.00    +0.264 C 
ATOM     35  C   UNL     1      34.039 -12.514 -24.072  0.00  0.00    +0.111 C 
ATOM     36  H   UNL     1      34.767 -14.192 -23.046  0.00  0.00    +0.150 HD
ENDBRANCH  29  34
ENDBRANCH  25  27
ENDBRANCH   3  25
TORSDOF 6
ENDMDL
MODEL 7
REMARK VINA RESULT:     -11.6      6.302     12.669
REMARK  Name = 11167602
REMARK  6 active torsions:
REMARK  status: ('A' for Active; 'I' for Inactive)
REMARK    1  A    between atoms: C_2  and  N_10
REMARK    2  A    between atoms: C_3  and  O_25
REMARK    3  A    between atoms: N_9  and  C_15
REMARK    4  A    between atoms: C_16  and  C_24
REMARK    5  A    between atoms: O_25  and  C_27
REMARK    6  A    between atoms: C_29  and  C_34
REMARK                            x       y       z     vdW  Elec       q    Type
REMARK                         _______ _______ _______ _____ _____    ______ ____
ROOT
ATOM      1  F   UNL     1      33.006 -20.581 -20.231  0.00  0.00    -0.203 F 
ATOM      2  C   UNL     1      35.300 -20.798 -19.657  0.00  0.00    +0.079 C 
ATOM      3  C   UNL     1      35.957 -19.056 -21.708  0.00  0.00    +0.148 C 
ATOM      4  C   UNL     1      34.292 -20.268 -20.444  0.00  0.00    +0.157 C 
ATOM      5  C   UNL     1      36.630 -20.475 -19.873  0.00  0.00    +0.020 C 
ATOM      6  C   UNL     1      34.622 -19.391 -21.476  0.00  0.00    +0.068 C 
ATOM      7  C   UNL     1      36.961 -19.599 -20.906  0.00  0.00    +0.039 C 
ENDROOT
BRANCH   2  10
ATOM      8  O   UNL     1      36.719 -21.369 -17.091  0.00  0.00    -0.252 OA
ATOM      9  N   UNL     1      34.997 -22.891 -16.636  0.00  0.00    -0.268 N 
ATOM     10  N   UNL     1      34.968 -21.688 -18.607  0.00  0.00    -0.266 N 
ATOM     11  C   UNL     1      35.673 -21.921 -17.416  0.00  0.00    +0.308 C 
ATOM     12  H   UNL     1      34.165 -23.247 -17.024  0.00  0.00    +0.156 HD
ATOM     13  H   UNL     1      34.141 -22.207 -18.728  0.00  0.00    +0.156 HD
BRANCH   9  15
ATOM     14 CL   UNL     1      36.468 -25.070 -11.342  0.00  0.00    -0.082 Cl
ATOM     15  C   UNL     1      35.353 -23.408 -15.390  0.00  0.00    +0.052 C 
ATOM     16  C   UNL     1      36.994 -24.424 -13.937  0.00  0.00    +0.083 C 
ATOM     17  C   UNL     1      36.639 -23.907 -15.183  0.00  0.00    +0.019 C 
ATOM     18  C   UNL     1      34.422 -23.425 -14.351  0.00  0.00    +0.016 C 
ATOM     19  C   UNL     1      36.064 -24.440 -12.898  0.00  0.00    +0.062 C 
ATOM     20  C   UNL     1      34.778 -23.942 -13.105  0.00  0.00    +0.013 C 
BRANCH  16  24
ATOM     21  F   UNL     1      38.433 -26.292 -13.534  0.00  0.00    -0.166 F 
ATOM     22  F   UNL     1      39.191 -24.729 -14.833  0.00  0.00    -0.166 F 
ATOM     23  F   UNL     1      39.020 -24.374 -12.695  0.00  0.00    -0.166 F 
ATOM     24  C   UNL     1      38.382 -24.947 -13.756  0.00  0.00    +0.419 C 
ENDBRANCH  16  24
ENDBRANCH   9  15
ENDBRANCH   2  10
BRANCH   3  25
ATOM     25  O   UNL     1      36.280 -18.200 -22.716  0.00  0.00    -0.453 OA
BRANCH  25  27
ATOM     26  N   UNL     1      34.236 -14.587 -22.905  0.00  0.00    -0.239 NA
ATOM     27  C   UNL     1      35.599 -16.996 -22.780  0.00  0.00    +0.149 C 
ATOM     28  C   UNL     1      35.053 -16.593 -23.979  0.00  0.00    +0.061 C 
ATOM     29  C   UNL     1      34.380 -15.381 -23.990  0.00  0.00    +0.137 C 
ATOM     30  C   UNL     1      35.483 -16.227 -21.641  0.00  0.00    +0.058 C 
ATOM     31  C   UNL     1      34.793 -15.032 -21.756  0.00  0.00    +0.102 C 
BRANCH  29  34
ATOM     32  O   UNL     1      33.185 -15.667 -25.986  0.00  0.00    -0.268 OA
ATOM     33  N   UNL     1      33.876 -13.515 -25.468  0.00  0.00    -0.298 N 
ATOM     34  C   UNL     1      33.777 -14.889 -25.216  0.00  0.00    +0.264 C 
ATOM     35  C   UNL     1      33.308 -12.872 -26.630  0.00  0.00    +0.111 C 
ATOM     36  H   UNL     1      34.359 -12.956 -24.817  0.00  0.00    +0.150 HD
ENDBRANCH  29  34
ENDBRANCH  25  27
ENDBRANCH   3  25
TORSDOF 6
ENDMDL
MODEL 8
REMARK VINA RESULT:     -11.4      5.271     11.109
REMARK  Name = 11167602
REMARK  6 active torsions:
REMARK  status: ('A' for Active; 'I' for Inactive)
REMARK    1  A    between atoms: C_2  and  N_10
REMARK    2  A    between atoms: C_3  and  O_25
REMARK    3  A    between atoms: N_9  and  C_15
REMARK    4  A    between atoms: C_16  and  C_24
REMARK    5  A    between atoms: O_25  and  C_27
REMARK    6  A    between atoms: C_29  and  C_34
REMARK                            x       y       z     vdW  Elec       q    Type
REMARK                         _______ _______ _______ _____ _____    ______ ____
ROOT
ATOM      1  F   UNL     1      36.070 -16.799 -21.240  0.00  0.00    -0.203 F 
ATOM      2  C   UNL     1      35.164 -18.460 -22.675  0.00  0.00    +0.079 C 
ATOM      3  C   UNL     1      34.479 -16.486 -24.493  0.00  0.00    +0.148 C 
ATOM      4  C   UNL     1      35.459 -17.138 -22.384  0.00  0.00    +0.157 C 
ATOM      5  C   UNL     1      34.534 -18.816 -23.857  0.00  0.00    +0.020 C 
ATOM      6  C   UNL     1      35.115 -16.145 -23.299  0.00  0.00    +0.068 C 
ATOM      7  C   UNL     1      34.188 -17.821 -24.772  0.00  0.00    +0.039 C 
ENDROOT
BRANCH   2  10
ATOM      8  O   UNL     1      33.669 -19.512 -20.312  0.00  0.00    -0.252 OA
ATOM      9  N   UNL     1      35.484 -20.955 -19.979  0.00  0.00    -0.268 N 
ATOM     10  N   UNL     1      35.513 -19.471 -21.749  0.00  0.00    -0.266 N 
ATOM     11  C   UNL     1      34.772 -19.930 -20.649  0.00  0.00    +0.308 C 
ATOM     12  H   UNL     1      36.359 -21.188 -20.365  0.00  0.00    +0.156 HD
ATOM     13  H   UNL     1      36.385 -19.906 -21.894  0.00  0.00    +0.156 HD
BRANCH   9  15
ATOM     14 CL   UNL     1      33.859 -24.021 -15.194  0.00  0.00    -0.082 Cl
ATOM     15  C   UNL     1      35.109 -21.678 -18.846  0.00  0.00    +0.052 C 
ATOM     16  C   UNL     1      35.629 -22.552 -16.654  0.00  0.00    +0.083 C 
ATOM     17  C   UNL     1      36.005 -21.829 -17.787  0.00  0.00    +0.019 C 
ATOM     18  C   UNL     1      33.839 -22.249 -18.773  0.00  0.00    +0.016 C 
ATOM     19  C   UNL     1      34.359 -23.122 -16.581  0.00  0.00    +0.062 C 
ATOM     20  C   UNL     1      33.464 -22.971 -17.640  0.00  0.00    +0.013 C 
BRANCH  16  24
ATOM     21  F   UNL     1      36.117 -22.330 -14.323  0.00  0.00    -0.166 F 
ATOM     22  F   UNL     1      37.082 -23.961 -15.379  0.00  0.00    -0.166 F 
ATOM     23  F   UNL     1      37.723 -21.912 -15.728  0.00  0.00    -0.166 F 
ATOM     24  C   UNL     1      36.617 -22.688 -15.541  0.00  0.00    +0.419 C 
ENDBRANCH  16  24
ENDBRANCH   9  15
ENDBRANCH   2  10
BRANCH   3  25
ATOM     25  O   UNL     1      34.143 -15.516 -25.387  0.00  0.00    -0.453 OA
BRANCH  25  27
ATOM     26  N   UNL     1      33.516 -11.677 -23.926  0.00  0.00    -0.239 NA
ATOM     27  C   UNL     1      33.933 -14.237 -24.900  0.00  0.00    +0.149 C 
ATOM     28  C   UNL     1      33.436 -14.074 -23.625  0.00  0.00    +0.061 C 
ATOM     29  C   UNL     1      33.245 -12.774 -23.184  0.00  0.00    +0.137 C 
ATOM     30  C   UNL     1      34.226 -13.155 -25.702  0.00  0.00    +0.058 C 
ATOM     31  C   UNL     1      33.999 -11.896 -25.169  0.00  0.00    +0.102 C 
BRANCH  29  34
ATOM     32  O   UNL     1      32.811 -13.391 -20.964  0.00  0.00    -0.268 OA
ATOM     33  N   UNL     1      32.156 -11.264 -21.617  0.00  0.00    -0.298 N 
ATOM     34  C   UNL     1      32.726 -12.522 -21.851  0.00  0.00    +0.264 C 
ATOM     35  C   UNL     1      31.618 -10.855 -20.340  0.00  0.00    +0.111 C 
ATOM     36  H   UNL     1      32.119 -10.624 -22.364  0.00  0.00    +0.150 HD
ENDBRANCH  29  34
ENDBRANCH  25  27
ENDBRANCH   3  25
TORSDOF 6
ENDMDL
MODEL 9
REMARK VINA RESULT:     -11.4      6.176     11.704
REMARK  Name = 11167602
REMARK  6 active torsions:
REMARK  status: ('A' for Active; 'I' for Inactive)
REMARK    1  A    between atoms: C_2  and  N_10
REMARK    2  A    between atoms: C_3  and  O_25
REMARK    3  A    between atoms: N_9  and  C_15
REMARK    4  A    between atoms: C_16  and  C_24
REMARK    5  A    between atoms: O_25  and  C_27
REMARK    6  A    between atoms: C_29  and  C_34
REMARK                            x       y       z     vdW  Elec       q    Type
REMARK                         _______ _______ _______ _____ _____    ______ ____
ROOT
ATOM      1  F   UNL     1      37.606 -20.083 -19.443  0.00  0.00    -0.203 F 
ATOM      2  C   UNL     1      35.360 -20.484 -20.100  0.00  0.00    +0.079 C 
ATOM      3  C   UNL     1      35.745 -18.876 -22.322  0.00  0.00    +0.148 C 
ATOM      4  C   UNL     1      36.596 -19.891 -20.302  0.00  0.00    +0.157 C 
ATOM      5  C   UNL     1      34.313 -20.291 -20.987  0.00  0.00    +0.020 C 
ATOM      6  C   UNL     1      36.789 -19.082 -21.421  0.00  0.00    +0.068 C 
ATOM      7  C   UNL     1      34.507 -19.480 -22.105  0.00  0.00    +0.039 C 
ENDROOT
BRANCH   2  10
ATOM      8  O   UNL     1      32.838 -21.261 -18.700  0.00  0.00    -0.252 OA
ATOM      9  N   UNL     1      34.191 -22.493 -17.237  0.00  0.00    -0.268 N 
ATOM     10  N   UNL     1      35.161 -21.308 -18.967  0.00  0.00    -0.266 N 
ATOM     11  C   UNL     1      33.948 -21.643 -18.344  0.00  0.00    +0.308 C 
ATOM     12  H   UNL     1      35.135 -22.717 -17.071  0.00  0.00    +0.156 HD
ATOM     13  H   UNL     1      35.973 -21.693 -18.566  0.00  0.00    +0.156 HD
BRANCH   9  15
ATOM     14 CL   UNL     1      30.322 -24.894 -13.469  0.00  0.00    -0.082 Cl
ATOM     15  C   UNL     1      33.271 -23.055 -16.352  0.00  0.00    +0.052 C 
ATOM     16  C   UNL     1      30.986 -23.392 -15.644  0.00  0.00    +0.083 C 
ATOM     17  C   UNL     1      31.906 -22.830 -16.530  0.00  0.00    +0.019 C 
ATOM     18  C   UNL     1      33.716 -23.841 -15.290  0.00  0.00    +0.016 C 
ATOM     19  C   UNL     1      31.431 -24.180 -14.583  0.00  0.00    +0.062 C 
ATOM     20  C   UNL     1      32.796 -24.404 -14.405  0.00  0.00    +0.013 C 
BRANCH  16  24
ATOM     21  F   UNL     1      28.800 -24.262 -16.079  0.00  0.00    -0.166 F 
ATOM     22  F   UNL     1      28.924 -22.496 -14.826  0.00  0.00    -0.166 F 
ATOM     23  F   UNL     1      29.309 -22.341 -16.961  0.00  0.00    -0.166 F 
ATOM     24  C   UNL     1      29.532 -23.130 -15.871  0.00  0.00    +0.419 C 
ENDBRANCH  16  24
ENDBRANCH   9  15
ENDBRANCH   2  10
BRANCH   3  25
ATOM     25  O   UNL     1      35.933 -18.085 -23.414  0.00  0.00    -0.453 OA
BRANCH  25  27
ATOM     26  N   UNL     1      34.200 -14.308 -23.382  0.00  0.00    -0.239 NA
ATOM     27  C   UNL     1      35.357 -16.826 -23.405  0.00  0.00    +0.149 C 
ATOM     28  C   UNL     1      34.752 -16.353 -24.549  0.00  0.00    +0.061 C 
ATOM     29  C   UNL     1      34.188 -15.088 -24.487  0.00  0.00    +0.137 C 
ATOM     30  C   UNL     1      35.399 -16.075 -22.249  0.00  0.00    +0.058 C 
ATOM     31  C   UNL     1      34.807 -14.824 -22.290  0.00  0.00    +0.102 C 
BRANCH  29  34
ATOM     32  O   UNL     1      32.879 -15.245 -26.426  0.00  0.00    -0.268 OA
ATOM     33  N   UNL     1      33.654 -13.138 -25.842  0.00  0.00    -0.298 N 
ATOM     34  C   UNL     1      33.533 -14.520 -25.652  0.00  0.00    +0.264 C 
ATOM     35  C   UNL     1      33.042 -12.424 -26.938  0.00  0.00    +0.111 C 
ATOM     36  H   UNL     1      34.187 -12.625 -25.192  0.00  0.00    +0.150 HD
ENDBRANCH  29  34
ENDBRANCH  25  27
ENDBRANCH   3  25
TORSDOF 6
ENDMDL
