MODEL 1
REMARK VINA RESULT:     -12.0      0.000      0.000
REMARK  Name = 6918388
REMARK  5 active torsions:
REMARK  status: ('A' for Active; 'I' for Inactive)
REMARK    1  A    between atoms: N_1  and  C_4
REMARK    2  A    between atoms: N_1  and  C_15
REMARK    3  A    between atoms: C_4  and  C_6
REMARK    4  A    between atoms: C_15  and  C_17
REMARK    5  A    between atoms: C_19  and  C_23
REMARK                            x       y       z     vdW  Elec       q    Type
REMARK                         _______ _______ _______ _____ _____    ______ ____
ROOT
ATOM      1  N   UNL     1      35.709 -16.245 -23.260  0.00  0.00    +0.389 N 
ATOM      2  H   UNL     1      36.111 -15.886 -24.125  0.00  0.00    -0.084 HD
ATOM      3  H   UNL     1      36.444 -16.449 -22.583  0.00  0.00    -0.084 HD
ENDROOT
BRANCH   1   4
ATOM      4  C   UNL     1      34.986 -17.477 -23.544  0.00  0.00    -0.037 C 
BRANCH   4   6
ATOM      5  O   UNL     1      34.354 -19.041 -21.862  0.00  0.00    -0.482 OA
ATOM      6  C   UNL     1      35.472 -18.613 -22.653  0.00  0.00    +0.145 C 
ATOM      7  C   UNL     1      36.633 -18.155 -21.772  0.00  0.00    +0.046 C 
ATOM      8  C   UNL     1      37.122 -19.332 -20.938  0.00  0.00    +0.033 C 
ATOM      9  C   UNL     1      35.959 -20.068 -20.336  0.00  0.00    +0.012 C 
ATOM     10  C   UNL     1      34.661 -19.892 -20.832  0.00  0.00    +0.134 C 
ATOM     11  C   UNL     1      36.172 -20.966 -19.281  0.00  0.00    -0.001 C 
ATOM     12  C   UNL     1      33.588 -20.574 -20.253  0.00  0.00    +0.037 C 
ATOM     13  C   UNL     1      35.100 -21.656 -18.714  0.00  0.00    -0.000 C 
ATOM     14  C   UNL     1      33.809 -21.456 -19.197  0.00  0.00    +0.003 C 
ENDBRANCH   4   6
ENDBRANCH   1   4
BRANCH   1  15
ATOM     15  C   UNL     1      34.822 -15.238 -22.693  0.00  0.00    -0.053 C 
BRANCH  15  17
ATOM     16  N   UNL     1      33.622 -13.673 -25.902  0.00  0.00    -0.243 NA
ATOM     17  C   UNL     1      34.440 -14.192 -23.705  0.00  0.00    -0.025 C 
ATOM     18  C   UNL     1      34.545 -12.850 -23.396  0.00  0.00    -0.003 C 
ATOM     19  C   UNL     1      34.184 -11.907 -24.350  0.00  0.00    +0.019 C 
ATOM     20  C   UNL     1      33.982 -14.561 -24.949  0.00  0.00    +0.092 C 
ATOM     21  C   UNL     1      33.732 -12.365 -25.578  0.00  0.00    +0.099 C 
BRANCH  19  23
ATOM     22  F   UNL     1      34.546  -6.447 -23.277  0.00  0.00    -0.204 F 
ATOM     23  C   UNL     1      34.277 -10.492 -24.073  0.00  0.00    +0.002 C 
ATOM     24  C   UNL     1      35.404  -9.773 -24.476  0.00  0.00    +0.002 C 
ATOM     25  C   UNL     1      33.242  -9.841 -23.400  0.00  0.00    +0.002 C 
ATOM     26  C   UNL     1      35.494  -8.407 -24.207  0.00  0.00    +0.030 C 
ATOM     27  C   UNL     1      33.333  -8.475 -23.131  0.00  0.00    +0.030 C 
ATOM     28  C   UNL     1      34.459  -7.758 -23.535  0.00  0.00    +0.140 C 
ENDBRANCH  19  23
ENDBRANCH  15  17
ENDBRANCH   1  15
TORSDOF 5
ENDMDL
MODEL 2
REMARK VINA RESULT:     -11.9      3.736     10.015
REMARK  Name = 6918388
REMARK  5 active torsions:
REMARK  status: ('A' for Active; 'I' for Inactive)
REMARK    1  A    between atoms: N_1  and  C_4
REMARK    2  A    between atoms: N_1  and  C_15
REMARK    3  A    between atoms: C_4  and  C_6
REMARK    4  A    between atoms: C_15  and  C_17
REMARK    5  A    between atoms: C_19  and  C_23
REMARK                            x       y       z     vdW  Elec       q    Type
REMARK                         _______ _______ _______ _____ _____    ______ ____
ROOT
ATOM      1  N   UNL     1      33.637 -13.316 -23.570  0.00  0.00    +0.389 N 
ATOM      2  H   UNL     1      33.019 -14.054 -23.907  0.00  0.00    -0.084 HD
ATOM      3  H   UNL     1      33.223 -12.841 -22.768  0.00  0.00    -0.084 HD
ENDROOT
BRANCH   1   4
ATOM      4  C   UNL     1      33.839 -12.342 -24.633  0.00  0.00    -0.037 C 
BRANCH   4   6
ATOM      5  O   UNL     1      33.266 -10.242 -23.663  0.00  0.00    -0.482 OA
ATOM      6  C   UNL     1      34.389 -11.034 -24.077  0.00  0.00    +0.145 C 
ATOM      7  C   UNL     1      35.225 -10.305 -25.128  0.00  0.00    +0.046 C 
ATOM      8  C   UNL     1      35.798  -9.033 -24.516  0.00  0.00    +0.033 C 
ATOM      9  C   UNL     1      34.738  -8.297 -23.747  0.00  0.00    +0.012 C 
ATOM     10  C   UNL     1      33.554  -8.937 -23.360  0.00  0.00    +0.134 C 
ATOM     11  C   UNL     1      34.941  -6.958 -23.385  0.00  0.00    -0.001 C 
ATOM     12  C   UNL     1      32.571  -8.235 -22.657  0.00  0.00    +0.037 C 
ATOM     13  C   UNL     1      33.964  -6.263 -22.671  0.00  0.00    -0.000 C 
ATOM     14  C   UNL     1      32.779  -6.900 -22.312  0.00  0.00    +0.003 C 
ENDBRANCH   4   6
ENDBRANCH   1   4
BRANCH   1  15
ATOM     15  C   UNL     1      34.903 -13.907 -23.157  0.00  0.00    -0.053 C 
BRANCH  15  17
ATOM     16  N   UNL     1      34.751 -17.149 -25.070  0.00  0.00    -0.243 NA
ATOM     17  C   UNL     1      34.960 -15.381 -23.459  0.00  0.00    -0.025 C 
ATOM     18  C   UNL     1      35.257 -16.287 -22.460  0.00  0.00    -0.003 C 
ATOM     19  C   UNL     1      35.304 -17.642 -22.769  0.00  0.00    +0.019 C 
ATOM     20  C   UNL     1      34.716 -15.841 -24.733  0.00  0.00    +0.092 C 
ATOM     21  C   UNL     1      35.045 -18.018 -24.078  0.00  0.00    +0.099 C 
BRANCH  19  23
ATOM     22  F   UNL     1      36.496 -21.448 -18.872  0.00  0.00    -0.204 F 
ATOM     23  C   UNL     1      35.611 -18.627 -21.759  0.00  0.00    +0.002 C 
ATOM     24  C   UNL     1      36.910 -18.732 -21.257  0.00  0.00    +0.002 C 
ATOM     25  C   UNL     1      34.613 -19.479 -21.283  0.00  0.00    +0.002 C 
ATOM     26  C   UNL     1      37.208 -19.685 -20.282  0.00  0.00    +0.030 C 
ATOM     27  C   UNL     1      34.912 -20.431 -20.308  0.00  0.00    +0.030 C 
ATOM     28  C   UNL     1      36.209 -20.534 -19.808  0.00  0.00    +0.140 C 
ENDBRANCH  19  23
ENDBRANCH  15  17
ENDBRANCH   1  15
TORSDOF 5
ENDMDL
MODEL 3
REMARK VINA RESULT:     -11.6      3.933      9.674
REMARK  Name = 6918388
REMARK  5 active torsions:
REMARK  status: ('A' for Active; 'I' for Inactive)
REMARK    1  A    between atoms: N_1  and  C_4
REMARK    2  A    between atoms: N_1  and  C_15
REMARK    3  A    between atoms: C_4  and  C_6
REMARK    4  A    between atoms: C_15  and  C_17
REMARK    5  A    between atoms: C_19  and  C_23
REMARK                            x       y       z     vdW  Elec       q    Type
REMARK                         _______ _______ _______ _____ _____    ______ ____
ROOT
ATOM      1  N   UNL     1      35.584 -16.164 -24.026  0.00  0.00    +0.389 N 
ATOM      2  H   UNL     1      35.759 -15.823 -23.082  0.00  0.00    -0.084 HD
ATOM      3  H   UNL     1      36.417 -16.055 -24.605  0.00  0.00    -0.084 HD
ENDROOT
BRANCH   1   4
ATOM      4  C   UNL     1      34.501 -15.392 -24.620  0.00  0.00    -0.037 C 
BRANCH   4   6
ATOM      5  O   UNL     1      33.463 -14.141 -22.878  0.00  0.00    -0.482 OA
ATOM      6  C   UNL     1      34.388 -14.020 -23.968  0.00  0.00    +0.145 C 
ATOM      7  C   UNL     1      33.921 -12.975 -24.980  0.00  0.00    +0.046 C 
ATOM      8  C   UNL     1      33.873 -11.611 -24.303  0.00  0.00    +0.033 C 
ATOM      9  C   UNL     1      33.209 -11.714 -22.959  0.00  0.00    +0.012 C 
ATOM     10  C   UNL     1      33.054 -12.954 -22.327  0.00  0.00    +0.134 C 
ATOM     11  C   UNL     1      32.761 -10.556 -22.311  0.00  0.00    -0.001 C 
ATOM     12  C   UNL     1      32.422 -13.036 -21.083  0.00  0.00    +0.037 C 
ATOM     13  C   UNL     1      32.142 -10.639 -21.063  0.00  0.00    -0.000 C 
ATOM     14  C   UNL     1      31.970 -11.879 -20.452  0.00  0.00    +0.003 C 
ENDBRANCH   4   6
ENDBRANCH   1   4
BRANCH   1  15
ATOM     15  C   UNL     1      35.244 -17.579 -23.966  0.00  0.00    -0.053 C 
BRANCH  15  17
ATOM     16  N   UNL     1      37.783 -18.640 -21.392  0.00  0.00    -0.243 NA
ATOM     17  C   UNL     1      35.849 -18.252 -22.763  0.00  0.00    -0.025 C 
ATOM     18  C   UNL     1      35.078 -19.064 -21.955  0.00  0.00    -0.003 C 
ATOM     19  C   UNL     1      35.664 -19.671 -20.850  0.00  0.00    +0.019 C 
ATOM     20  C   UNL     1      37.178 -18.066 -22.456  0.00  0.00    +0.092 C 
ATOM     21  C   UNL     1      37.008 -19.429 -20.615  0.00  0.00    +0.099 C 
BRANCH  19  23
ATOM     22  F   UNL     1      32.702 -22.973 -17.471  0.00  0.00    -0.204 F 
ATOM     23  C   UNL     1      34.898 -20.527 -19.976  0.00  0.00    +0.002 C 
ATOM     24  C   UNL     1      33.502 -20.466 -19.983  0.00  0.00    +0.002 C 
ATOM     25  C   UNL     1      35.548 -21.416 -19.119  0.00  0.00    +0.002 C 
ATOM     26  C   UNL     1      32.762 -21.292 -19.137  0.00  0.00    +0.030 C 
ATOM     27  C   UNL     1      34.807 -22.242 -18.273  0.00  0.00    +0.030 C 
ATOM     28  C   UNL     1      33.414 -22.180 -18.283  0.00  0.00    +0.140 C 
ENDBRANCH  19  23
ENDBRANCH  15  17
ENDBRANCH   1  15
TORSDOF 5
ENDMDL
MODEL 4
REMARK VINA RESULT:     -11.6      3.992      9.776
REMARK  Name = 6918388
REMARK  5 active torsions:
REMARK  status: ('A' for Active; 'I' for Inactive)
REMARK    1  A    between atoms: N_1  and  C_4
REMARK    2  A    between atoms: N_1  and  C_15
REMARK    3  A    between atoms: C_4  and  C_6
REMARK    4  A    between atoms: C_15  and  C_17
REMARK    5  A    between atoms: C_19  and  C_23
REMARK                            x       y       z     vdW  Elec       q    Type
REMARK                         _______ _______ _______ _____ _____    ______ ____
ROOT
ATOM      1  N   UNL     1      33.212 -12.975 -22.986  0.00  0.00    +0.389 N 
ATOM      2  H   UNL     1      33.252 -12.014 -23.322  0.00  0.00    -0.084 HD
ATOM      3  H   UNL     1      32.765 -13.577 -23.678  0.00  0.00    -0.084 HD
ENDROOT
BRANCH   1   4
ATOM      4  C   UNL     1      32.430 -13.019 -21.758  0.00  0.00    -0.037 C 
BRANCH   4   6
ATOM      5  O   UNL     1      32.585 -10.693 -22.251  0.00  0.00    -0.482 OA
ATOM      6  C   UNL     1      31.945 -11.628 -21.370  0.00  0.00    +0.145 C 
ATOM      7  C   UNL     1      32.270 -11.327 -19.908  0.00  0.00    +0.046 C 
ATOM      8  C   UNL     1      31.722  -9.952 -19.547  0.00  0.00    +0.033 C 
ATOM      9  C   UNL     1      32.058  -8.955 -20.619  0.00  0.00    +0.012 C 
ATOM     10  C   UNL     1      32.454  -9.376 -21.895  0.00  0.00    +0.134 C 
ATOM     11  C   UNL     1      31.951  -7.583 -20.354  0.00  0.00    -0.001 C 
ATOM     12  C   UNL     1      32.777  -8.436 -22.877  0.00  0.00    +0.037 C 
ATOM     13  C   UNL     1      32.260  -6.647 -21.341  0.00  0.00    -0.000 C 
ATOM     14  C   UNL     1      32.677  -7.074 -22.600  0.00  0.00    +0.003 C 
ENDBRANCH   4   6
ENDBRANCH   1   4
BRANCH   1  15
ATOM     15  C   UNL     1      34.568 -13.457 -22.758  0.00  0.00    -0.053 C 
BRANCH  15  17
ATOM     16  N   UNL     1      34.677 -16.479 -25.006  0.00  0.00    -0.243 NA
ATOM     17  C   UNL     1      34.742 -14.882 -23.214  0.00  0.00    -0.025 C 
ATOM     18  C   UNL     1      35.106 -15.863 -22.314  0.00  0.00    -0.003 C 
ATOM     19  C   UNL     1      35.260 -17.169 -22.763  0.00  0.00    +0.019 C 
ATOM     20  C   UNL     1      34.538 -15.221 -24.532  0.00  0.00    +0.092 C 
ATOM     21  C   UNL     1      35.036 -17.423 -24.107  0.00  0.00    +0.099 C 
BRANCH  19  23
ATOM     22  F   UNL     1      36.726 -21.261 -19.270  0.00  0.00    -0.204 F 
ATOM     23  C   UNL     1      35.641 -18.229 -21.860  0.00  0.00    +0.002 C 
ATOM     24  C   UNL     1      34.687 -19.149 -21.418  0.00  0.00    +0.002 C 
ATOM     25  C   UNL     1      36.962 -18.337 -21.422  0.00  0.00    +0.002 C 
ATOM     26  C   UNL     1      35.053 -20.172 -20.544  0.00  0.00    +0.030 C 
ATOM     27  C   UNL     1      37.328 -19.361 -20.548  0.00  0.00    +0.030 C 
ATOM     28  C   UNL     1      36.374 -20.278 -20.109  0.00  0.00    +0.140 C 
ENDBRANCH  19  23
ENDBRANCH  15  17
ENDBRANCH   1  15
TORSDOF 5
ENDMDL
MODEL 5
REMARK VINA RESULT:     -11.5      1.665      2.608
REMARK  Name = 6918388
REMARK  5 active torsions:
REMARK  status: ('A' for Active; 'I' for Inactive)
REMARK    1  A    between atoms: N_1  and  C_4
REMARK    2  A    between atoms: N_1  and  C_15
REMARK    3  A    between atoms: C_4  and  C_6
REMARK    4  A    between atoms: C_15  and  C_17
REMARK    5  A    between atoms: C_19  and  C_23
REMARK                            x       y       z     vdW  Elec       q    Type
REMARK                         _______ _______ _______ _____ _____    ______ ____
ROOT
ATOM      1  N   UNL     1      36.464 -17.457 -22.904  0.00  0.00    +0.389 N 
ATOM      2  H   UNL     1      35.860 -17.871 -23.613  0.00  0.00    -0.084 HD
ATOM      3  H   UNL     1      37.261 -16.993 -23.341  0.00  0.00    -0.084 HD
ENDROOT
BRANCH   1   4
ATOM      4  C   UNL     1      36.962 -18.508 -22.029  0.00  0.00    -0.037 C 
BRANCH   4   6
ATOM      5  O   UNL     1      36.433 -20.052 -20.292  0.00  0.00    -0.482 OA
ATOM      6  C   UNL     1      35.868 -19.001 -21.091  0.00  0.00    +0.145 C 
ATOM      7  C   UNL     1      34.656 -19.494 -21.880  0.00  0.00    +0.046 C 
ATOM      8  C   UNL     1      33.568 -19.927 -20.906  0.00  0.00    +0.033 C 
ATOM      9  C   UNL     1      34.150 -20.771 -19.808  0.00  0.00    +0.012 C 
ATOM     10  C   UNL     1      35.529 -20.777 -19.560  0.00  0.00    +0.134 C 
ATOM     11  C   UNL     1      33.307 -21.545 -19.000  0.00  0.00    -0.001 C 
ATOM     12  C   UNL     1      36.058 -21.577 -18.544  0.00  0.00    +0.037 C 
ATOM     13  C   UNL     1      33.836 -22.333 -17.977  0.00  0.00    -0.000 C 
ATOM     14  C   UNL     1      35.211 -22.351 -17.753  0.00  0.00    +0.003 C 
ENDBRANCH   4   6
ENDBRANCH   1   4
BRANCH   1  15
ATOM     15  C   UNL     1      35.707 -16.466 -22.151  0.00  0.00    -0.053 C 
BRANCH  15  17
ATOM     16  N   UNL     1      34.136 -15.011 -25.251  0.00  0.00    -0.243 NA
ATOM     17  C   UNL     1      34.970 -15.516 -23.056  0.00  0.00    -0.025 C 
ATOM     18  C   UNL     1      34.469 -14.328 -22.562  0.00  0.00    -0.003 C 
ATOM     19  C   UNL     1      33.792 -13.470 -23.421  0.00  0.00    +0.019 C 
ATOM     20  C   UNL     1      34.788 -15.820 -24.386  0.00  0.00    +0.092 C 
ATOM     21  C   UNL     1      33.654 -13.854 -24.745  0.00  0.00    +0.099 C 
BRANCH  19  23
ATOM     22  F   UNL     1      31.693  -8.634 -21.602  0.00  0.00    -0.204 F 
ATOM     23  C   UNL     1      33.250 -12.217 -22.950  0.00  0.00    +0.002 C 
ATOM     24  C   UNL     1      32.389 -12.196 -21.851  0.00  0.00    +0.002 C 
ATOM     25  C   UNL     1      33.582 -11.023 -23.592  0.00  0.00    +0.002 C 
ATOM     26  C   UNL     1      31.863 -10.987 -21.396  0.00  0.00    +0.030 C 
ATOM     27  C   UNL     1      33.057  -9.814 -23.137  0.00  0.00    +0.030 C 
ATOM     28  C   UNL     1      32.197  -9.796 -22.039  0.00  0.00    +0.140 C 
ENDBRANCH  19  23
ENDBRANCH  15  17
ENDBRANCH   1  15
TORSDOF 5
ENDMDL
MODEL 6
REMARK VINA RESULT:     -11.4      3.818     10.247
REMARK  Name = 6918388
REMARK  5 active torsions:
REMARK  status: ('A' for Active; 'I' for Inactive)
REMARK    1  A    between atoms: N_1  and  C_4
REMARK    2  A    between atoms: N_1  and  C_15
REMARK    3  A    between atoms: C_4  and  C_6
REMARK    4  A    between atoms: C_15  and  C_17
REMARK    5  A    between atoms: C_19  and  C_23
REMARK                            x       y       z     vdW  Elec       q    Type
REMARK                         _______ _______ _______ _____ _____    ______ ____
ROOT
ATOM      1  N   UNL     1      33.738 -12.590 -23.478  0.00  0.00    +0.389 N 
ATOM      2  H   UNL     1      34.194 -11.937 -24.115  0.00  0.00    -0.084 HD
ATOM      3  H   UNL     1      33.158 -13.248 -23.997  0.00  0.00    -0.084 HD
ENDROOT
BRANCH   1   4
ATOM      4  C   UNL     1      32.888 -11.845 -22.560  0.00  0.00    -0.037 C 
BRANCH   4   6
ATOM      5  O   UNL     1      34.029  -9.865 -23.237  0.00  0.00    -0.482 OA
ATOM      6  C   UNL     1      32.716 -10.404 -23.023  0.00  0.00    +0.145 C 
ATOM      7  C   UNL     1      31.944  -9.588 -21.987  0.00  0.00    +0.046 C 
ATOM      8  C   UNL     1      31.748  -8.171 -22.511  0.00  0.00    +0.033 C 
ATOM      9  C   UNL     1      33.030  -7.643 -23.089  0.00  0.00    +0.012 C 
ATOM     10  C   UNL     1      34.079  -8.508 -23.425  0.00  0.00    +0.134 C 
ATOM     11  C   UNL     1      33.177  -6.269 -23.322  0.00  0.00    -0.001 C 
ATOM     12  C   UNL     1      35.271  -8.001 -23.948  0.00  0.00    +0.037 C 
ATOM     13  C   UNL     1      34.363  -5.766 -23.858  0.00  0.00    -0.000 C 
ATOM     14  C   UNL     1      35.410  -6.631 -24.166  0.00  0.00    +0.003 C 
ENDBRANCH   4   6
ENDBRANCH   1   4
BRANCH   1  15
ATOM     15  C   UNL     1      34.756 -13.339 -22.754  0.00  0.00    -0.053 C 
BRANCH  15  17
ATOM     16  N   UNL     1      34.635 -16.349 -25.016  0.00  0.00    -0.243 NA
ATOM     17  C   UNL     1      34.841 -14.767 -23.221  0.00  0.00    -0.025 C 
ATOM     18  C   UNL     1      35.182 -15.772 -22.336  0.00  0.00    -0.003 C 
ATOM     19  C   UNL     1      35.253 -17.081 -22.796  0.00  0.00    +0.019 C 
ATOM     20  C   UNL     1      34.577 -15.088 -24.533  0.00  0.00    +0.092 C 
ATOM     21  C   UNL     1      34.972 -17.316 -24.133  0.00  0.00    +0.099 C 
BRANCH  19  23
ATOM     22  F   UNL     1      36.623 -21.268 -19.377  0.00  0.00    -0.204 F 
ATOM     23  C   UNL     1      35.606 -18.165 -21.909  0.00  0.00    +0.002 C 
ATOM     24  C   UNL     1      36.932 -18.333 -21.504  0.00  0.00    +0.002 C 
ATOM     25  C   UNL     1      34.626 -19.049 -21.456  0.00  0.00    +0.002 C 
ATOM     26  C   UNL     1      37.275 -19.381 -20.649  0.00  0.00    +0.030 C 
ATOM     27  C   UNL     1      34.969 -20.097 -20.601  0.00  0.00    +0.030 C 
ATOM     28  C   UNL     1      36.294 -20.262 -20.198  0.00  0.00    +0.140 C 
ENDBRANCH  19  23
ENDBRANCH  15  17
ENDBRANCH   1  15
TORSDOF 5
ENDMDL
MODEL 7
REMARK VINA RESULT:     -11.3      5.338      8.338
REMARK  Name = 6918388
REMARK  5 active torsions:
REMARK  status: ('A' for Active; 'I' for Inactive)
REMARK    1  A    between atoms: N_1  and  C_4
REMARK    2  A    between atoms: N_1  and  C_15
REMARK    3  A    between atoms: C_4  and  C_6
REMARK    4  A    between atoms: C_15  and  C_17
REMARK    5  A    between atoms: C_19  and  C_23
REMARK                            x       y       z     vdW  Elec       q    Type
REMARK                         _______ _______ _______ _____ _____    ______ ____
ROOT
ATOM      1  N   UNL     1      36.615 -21.347 -16.998  0.00  0.00    +0.389 N 
ATOM      2  H   UNL     1      37.083 -20.460 -16.814  0.00  0.00    -0.084 HD
ATOM      3  H   UNL     1      35.624 -21.283 -16.764  0.00  0.00    -0.084 HD
ENDROOT
BRANCH   1   4
ATOM      4  C   UNL     1      37.219 -22.385 -16.174  0.00  0.00    -0.037 C 
BRANCH   4   6
ATOM      5  O   UNL     1      34.877 -22.782 -15.981  0.00  0.00    -0.482 OA
ATOM      6  C   UNL     1      36.151 -23.243 -15.507  0.00  0.00    +0.145 C 
ATOM      7  C   UNL     1      36.246 -23.144 -13.985  0.00  0.00    +0.046 C 
ATOM      8  C   UNL     1      35.199 -24.056 -13.359  0.00  0.00    +0.033 C 
ATOM      9  C   UNL     1      33.875 -23.885 -14.048  0.00  0.00    +0.012 C 
ATOM     10  C   UNL     1      33.791 -23.277 -15.306  0.00  0.00    +0.134 C 
ATOM     11  C   UNL     1      32.705 -24.363 -13.441  0.00  0.00    -0.001 C 
ATOM     12  C   UNL     1      32.551 -23.113 -15.929  0.00  0.00    +0.037 C 
ATOM     13  C   UNL     1      31.469 -24.210 -14.070  0.00  0.00    -0.000 C 
ATOM     14  C   UNL     1      31.393 -23.582 -15.311  0.00  0.00    +0.003 C 
ENDBRANCH   4   6
ENDBRANCH   1   4
BRANCH   1  15
ATOM     15  C   UNL     1      36.738 -21.667 -18.413  0.00  0.00    -0.053 C 
BRANCH  15  17
ATOM     16  N   UNL     1      33.221 -21.069 -19.625  0.00  0.00    -0.243 NA
ATOM     17  C   UNL     1      35.587 -21.121 -19.215  0.00  0.00    -0.025 C 
ATOM     18  C   UNL     1      35.812 -20.214 -20.232  0.00  0.00    -0.003 C 
ATOM     19  C   UNL     1      34.729 -19.727 -20.955  0.00  0.00    +0.019 C 
ATOM     20  C   UNL     1      34.298 -21.520 -18.944  0.00  0.00    +0.092 C 
ATOM     21  C   UNL     1      33.465 -20.182 -20.615  0.00  0.00    +0.099 C 
BRANCH  19  23
ATOM     22  F   UNL     1      35.449 -16.063 -25.096  0.00  0.00    -0.204 F 
ATOM     23  C   UNL     1      34.915 -18.777 -22.026  0.00  0.00    +0.002 C 
ATOM     24  C   UNL     1      34.536 -19.109 -23.329  0.00  0.00    +0.002 C 
ATOM     25  C   UNL     1      35.475 -17.526 -21.765  0.00  0.00    +0.002 C 
ATOM     26  C   UNL     1      34.717 -18.192 -24.365  0.00  0.00    +0.030 C 
ATOM     27  C   UNL     1      35.656 -16.609 -22.802  0.00  0.00    +0.030 C 
ATOM     28  C   UNL     1      35.276 -16.943 -24.101  0.00  0.00    +0.140 C 
ENDBRANCH  19  23
ENDBRANCH  15  17
ENDBRANCH   1  15
TORSDOF 5
ENDMDL
MODEL 8
REMARK VINA RESULT:     -11.2      5.347     11.523
REMARK  Name = 6918388
REMARK  5 active torsions:
REMARK  status: ('A' for Active; 'I' for Inactive)
REMARK    1  A    between atoms: N_1  and  C_4
REMARK    2  A    between atoms: N_1  and  C_15
REMARK    3  A    between atoms: C_4  and  C_6
REMARK    4  A    between atoms: C_15  and  C_17
REMARK    5  A    between atoms: C_19  and  C_23
REMARK                            x       y       z     vdW  Elec       q    Type
REMARK                         _______ _______ _______ _____ _____    ______ ____
ROOT
ATOM      1  N   UNL     1      35.673 -19.731 -20.462  0.00  0.00    +0.389 N 
ATOM      2  H   UNL     1      35.016 -19.973 -21.203  0.00  0.00    -0.084 HD
ATOM      3  H   UNL     1      35.225 -19.129 -19.771  0.00  0.00    -0.084 HD
ENDROOT
BRANCH   1   4
ATOM      4  C   UNL     1      36.802 -19.016 -21.040  0.00  0.00    -0.037 C 
BRANCH   4   6
ATOM      5  O   UNL     1      35.844 -16.972 -21.806  0.00  0.00    -0.482 OA
ATOM      6  C   UNL     1      36.375 -18.223 -22.269  0.00  0.00    +0.145 C 
ATOM      7  C   UNL     1      35.340 -18.998 -23.083  0.00  0.00    +0.046 C 
ATOM      8  C   UNL     1      34.981 -18.196 -24.327  0.00  0.00    +0.033 C 
ATOM      9  C   UNL     1      34.742 -16.756 -23.974  0.00  0.00    +0.012 C 
ATOM     10  C   UNL     1      35.191 -16.230 -22.755  0.00  0.00    +0.134 C 
ATOM     11  C   UNL     1      34.086 -15.913 -24.881  0.00  0.00    -0.001 C 
ATOM     12  C   UNL     1      34.950 -14.892 -22.434  0.00  0.00    +0.037 C 
ATOM     13  C   UNL     1      33.859 -14.574 -24.564  0.00  0.00    -0.000 C 
ATOM     14  C   UNL     1      34.286 -14.065 -23.340  0.00  0.00    +0.003 C 
ENDBRANCH   4   6
ENDBRANCH   1   4
BRANCH   1  15
ATOM     15  C   UNL     1      36.112 -20.951 -19.798  0.00  0.00    -0.053 C 
BRANCH  15  17
ATOM     16  N   UNL     1      32.707 -22.120 -18.688  0.00  0.00    -0.243 NA
ATOM     17  C   UNL     1      35.026 -21.549 -18.945  0.00  0.00    -0.025 C 
ATOM     18  C   UNL     1      35.319 -22.055 -17.694  0.00  0.00    -0.003 C 
ATOM     19  C   UNL     1      34.296 -22.602 -16.930  0.00  0.00    +0.019 C 
ATOM     20  C   UNL     1      33.729 -21.597 -19.402  0.00  0.00    +0.092 C 
ATOM     21  C   UNL     1      33.018 -22.611 -17.467  0.00  0.00    +0.099 C 
BRANCH  19  23
ATOM     22  F   UNL     1      35.288 -24.692 -11.856  0.00  0.00    -0.204 F 
ATOM     23  C   UNL     1      34.554 -23.144 -15.616  0.00  0.00    +0.002 C 
ATOM     24  C   UNL     1      33.490 -23.539 -14.801  0.00  0.00    +0.002 C 
ATOM     25  C   UNL     1      35.865 -23.273 -15.156  0.00  0.00    +0.002 C 
ATOM     26  C   UNL     1      33.739 -24.062 -13.532  0.00  0.00    +0.030 C 
ATOM     27  C   UNL     1      36.113 -23.796 -13.886  0.00  0.00    +0.030 C 
ATOM     28  C   UNL     1      35.050 -24.190 -13.075  0.00  0.00    +0.140 C 
ENDBRANCH  19  23
ENDBRANCH  15  17
ENDBRANCH   1  15
TORSDOF 5
ENDMDL
MODEL 9
REMARK VINA RESULT:     -11.2      5.379      8.716
REMARK  Name = 6918388
REMARK  5 active torsions:
REMARK  status: ('A' for Active; 'I' for Inactive)
REMARK    1  A    between atoms: N_1  and  C_4
REMARK    2  A    between atoms: N_1  and  C_15
REMARK    3  A    between atoms: C_4  and  C_6
REMARK    4  A    between atoms: C_15  and  C_17
REMARK    5  A    between atoms: C_19  and  C_23
REMARK                            x       y       z     vdW  Elec       q    Type
REMARK                         _______ _______ _______ _____ _____    ______ ____
ROOT
ATOM      1  N   UNL     1      37.032 -21.069 -17.351  0.00  0.00    +0.389 N 
ATOM      2  H   UNL     1      37.622 -20.255 -17.515  0.00  0.00    -0.084 HD
ATOM      3  H   UNL     1      36.138 -20.787 -16.948  0.00  0.00    -0.084 HD
ENDROOT
BRANCH   1   4
ATOM      4  C   UNL     1      37.701 -21.963 -16.417  0.00  0.00    -0.037 C 
BRANCH   4   6
ATOM      5  O   UNL     1      37.665 -22.667 -14.140  0.00  0.00    -0.482 OA
ATOM      6  C   UNL     1      36.808 -22.270 -15.221  0.00  0.00    +0.145 C 
ATOM      7  C   UNL     1      35.801 -23.368 -15.562  0.00  0.00    +0.046 C 
ATOM      8  C   UNL     1      34.895 -23.606 -14.361  0.00  0.00    +0.033 C 
ATOM      9  C   UNL     1      35.707 -23.689 -13.100  0.00  0.00    +0.012 C 
ATOM     10  C   UNL     1      37.023 -23.211 -13.058  0.00  0.00    +0.134 C 
ATOM     11  C   UNL     1      35.138 -24.225 -11.937  0.00  0.00    -0.001 C 
ATOM     12  C   UNL     1      37.770 -23.307 -11.881  0.00  0.00    +0.037 C 
ATOM     13  C   UNL     1      35.881 -24.308 -10.759  0.00  0.00    -0.000 C 
ATOM     14  C   UNL     1      37.198 -23.853 -10.733  0.00  0.00    +0.003 C 
ENDBRANCH   4   6
ENDBRANCH   1   4
BRANCH   1  15
ATOM     15  C   UNL     1      36.777 -21.737 -18.620  0.00  0.00    -0.053 C 
BRANCH  15  17
ATOM     16  N   UNL     1      33.227 -21.000 -19.643  0.00  0.00    -0.243 NA
ATOM     17  C   UNL     1      35.606 -21.132 -19.348  0.00  0.00    -0.025 C 
ATOM     18  C   UNL     1      35.810 -20.198 -20.345  0.00  0.00    -0.003 C 
ATOM     19  C   UNL     1      34.710 -19.657 -20.999  0.00  0.00    +0.019 C 
ATOM     20  C   UNL     1      34.320 -21.504 -19.029  0.00  0.00    +0.092 C 
ATOM     21  C   UNL     1      33.450 -20.087 -20.615  0.00  0.00    +0.099 C 
BRANCH  19  23
ATOM     22  F   UNL     1      35.337 -15.868 -25.042  0.00  0.00    -0.204 F 
ATOM     23  C   UNL     1      34.874 -18.677 -22.047  0.00  0.00    +0.002 C 
ATOM     24  C   UNL     1      35.452 -17.438 -21.762  0.00  0.00    +0.002 C 
ATOM     25  C   UNL     1      34.452 -18.962 -23.346  0.00  0.00    +0.002 C 
ATOM     26  C   UNL     1      35.608 -16.489 -22.774  0.00  0.00    +0.030 C 
ATOM     27  C   UNL     1      34.609 -18.014 -24.358  0.00  0.00    +0.030 C 
ATOM     28  C   UNL     1      35.187 -16.778 -24.071  0.00  0.00    +0.140 C 
ENDBRANCH  19  23
ENDBRANCH  15  17
ENDBRANCH   1  15
TORSDOF 5
ENDMDL
