MODEL 1
REMARK VINA RESULT:     -11.5      0.000      0.000
REMARK  Name = 56842109
REMARK  7 active torsions:
REMARK  status: ('A' for Active; 'I' for Inactive)
REMARK    1  A    between atoms: C_1  and  C_24
REMARK    2  A    between atoms: C_3  and  C_9
REMARK    3  A    between atoms: C_5  and  O_22
REMARK    4  A    between atoms: N_8  and  C_11
REMARK    5  A    between atoms: C_11  and  C_12
REMARK    6  A    between atoms: C_15  and  C_21
REMARK    7  A    between atoms: C_24  and  C_29
REMARK                            x       y       z     vdW  Elec       q    Type
REMARK                         _______ _______ _______ _____ _____    ______ ____
ROOT
ATOM      1  C   UNL     1      33.995 -23.916 -13.939  0.00  0.00    -0.018 C 
ATOM      2  C   UNL     1      34.124 -23.827 -15.326  0.00  0.00    +0.003 C 
ATOM      3  C   UNL     1      33.075 -23.319 -16.092  0.00  0.00    +0.087 C 
ATOM      4  C   UNL     1      32.818 -23.496 -13.321  0.00  0.00    -0.001 C 
ATOM      5  C   UNL     1      31.898 -22.899 -15.473  0.00  0.00    +0.143 C 
ATOM      6  C   UNL     1      31.770 -22.987 -14.087  0.00  0.00    +0.037 C 
ENDROOT
BRANCH   3   9
ATOM      7  O   UNL     1      33.738 -24.173 -18.172  0.00  0.00    -0.270 OA
ATOM      8  N   UNL     1      32.767 -22.068 -18.158  0.00  0.00    -0.297 N 
ATOM      9  C   UNL     1      33.231 -23.233 -17.538  0.00  0.00    +0.249 C 
ATOM     10  H   UNL     1      32.377 -21.362 -17.592  0.00  0.00    +0.150 HD
BRANCH   8  11
ATOM     11  C   UNL     1      32.831 -21.844 -19.584  0.00  0.00    +0.117 C 
BRANCH  11  12
ATOM     12  C   UNL     1      33.992 -20.974 -19.965  0.00  0.00    -0.003 C 
ATOM     13  C   UNL     1      33.791 -19.862 -20.783  0.00  0.00    -0.003 C 
ATOM     14  C   UNL     1      35.273 -21.276 -19.503  0.00  0.00    -0.003 C 
ATOM     15  C   UNL     1      36.150 -19.354 -20.675  0.00  0.00    +0.071 C 
ATOM     16  C   UNL     1      34.870 -19.051 -21.139  0.00  0.00    +0.004 C 
ATOM     17  C   UNL     1      36.352 -20.467 -19.858  0.00  0.00    +0.004 C 
BRANCH  15  21
ATOM     18  F   UNL     1      38.116 -19.069 -21.981  0.00  0.00    -0.166 F 
ATOM     19  F   UNL     1      36.933 -17.287 -21.590  0.00  0.00    -0.166 F 
ATOM     20  F   UNL     1      38.116 -18.170 -20.001  0.00  0.00    -0.166 F 
ATOM     21  C   UNL     1      37.303 -18.487 -21.052  0.00  0.00    +0.419 C 
ENDBRANCH  15  21
ENDBRANCH  11  12
ENDBRANCH   8  11
ENDBRANCH   3   9
BRANCH   5  22
ATOM     22  O   UNL     1      30.864 -22.396 -16.205  0.00  0.00    -0.471 OA
ATOM     23  C   UNL     1      29.560 -22.888 -15.904  0.00  0.00    +0.252 C 
ENDBRANCH   5  22
BRANCH   1  24
ATOM     24  C   UNL     1      35.130 -24.466 -13.111  0.00  0.00    +0.080 C 
BRANCH  24  29
ATOM     25  O   UNL     1      36.575 -22.691 -12.341  0.00  0.00    -0.428 OA
ATOM     26  O   UNL     1      35.456 -25.172 -10.154  0.00  0.00    -0.271 OA
ATOM     27  O   UNL     1      38.700 -22.297 -11.596  0.00  0.00    -0.226 OA
ATOM     28  N   UNL     1      37.310 -23.844 -10.591  0.00  0.00    -0.218 N 
ATOM     29  C   UNL     1      35.488 -23.550 -11.959  0.00  0.00    +0.250 C 
ATOM     30  C   UNL     1      36.043 -24.308 -10.786  0.00  0.00    +0.271 C 
ATOM     31  C   UNL     1      37.638 -22.894 -11.505  0.00  0.00    +0.408 C 
ATOM     32  H   UNL     1      37.912 -24.158  -9.878  0.00  0.00    +0.161 HD
ENDBRANCH  24  29
ENDBRANCH   1  24
TORSDOF 7
ENDMDL
MODEL 2
REMARK VINA RESULT:     -11.3      2.346      2.774
REMARK  Name = 56842109
REMARK  7 active torsions:
REMARK  status: ('A' for Active; 'I' for Inactive)
REMARK    1  A    between atoms: C_1  and  C_24
REMARK    2  A    between atoms: C_3  and  C_9
REMARK    3  A    between atoms: C_5  and  O_22
REMARK    4  A    between atoms: N_8  and  C_11
REMARK    5  A    between atoms: C_11  and  C_12
REMARK    6  A    between atoms: C_15  and  C_21
REMARK    7  A    between atoms: C_24  and  C_29
REMARK                            x       y       z     vdW  Elec       q    Type
REMARK                         _______ _______ _______ _____ _____    ______ ____
ROOT
ATOM      1  C   UNL     1      35.872 -23.559 -14.045  0.00  0.00    -0.018 C 
ATOM      2  C   UNL     1      35.140 -23.173 -15.168  0.00  0.00    +0.003 C 
ATOM      3  C   UNL     1      33.746 -23.223 -15.143  0.00  0.00    +0.087 C 
ATOM      4  C   UNL     1      35.210 -23.995 -12.898  0.00  0.00    -0.001 C 
ATOM      5  C   UNL     1      33.084 -23.659 -13.996  0.00  0.00    +0.143 C 
ATOM      6  C   UNL     1      33.816 -24.045 -12.873  0.00  0.00    +0.037 C 
ENDROOT
BRANCH   3   9
ATOM      7  O   UNL     1      31.777 -22.612 -16.260  0.00  0.00    -0.270 OA
ATOM      8  N   UNL     1      33.731 -22.641 -17.507  0.00  0.00    -0.297 N 
ATOM      9  C   UNL     1      33.001 -22.813 -16.326  0.00  0.00    +0.249 C 
ATOM     10  H   UNL     1      34.699 -22.820 -17.487  0.00  0.00    +0.150 HD
BRANCH   8  11
ATOM     11  C   UNL     1      33.139 -22.217 -18.755  0.00  0.00    +0.117 C 
BRANCH  11  12
ATOM     12  C   UNL     1      34.027 -21.264 -19.502  0.00  0.00    -0.003 C 
ATOM     13  C   UNL     1      33.466 -20.311 -20.354  0.00  0.00    -0.003 C 
ATOM     14  C   UNL     1      35.411 -21.331 -19.346  0.00  0.00    -0.003 C 
ATOM     15  C   UNL     1      35.674 -19.492 -20.891  0.00  0.00    +0.071 C 
ATOM     16  C   UNL     1      34.289 -19.425 -21.049  0.00  0.00    +0.004 C 
ATOM     17  C   UNL     1      36.234 -20.445 -20.041  0.00  0.00    +0.004 C 
BRANCH  15  21
ATOM     18  F   UNL     1      37.846 -18.574 -21.192  0.00  0.00    -0.166 F 
ATOM     19  F   UNL     1      36.619 -18.790 -22.974  0.00  0.00    -0.166 F 
ATOM     20  F   UNL     1      36.163 -17.239 -21.529  0.00  0.00    -0.166 F 
ATOM     21  C   UNL     1      36.554 -18.543 -21.632  0.00  0.00    +0.419 C 
ENDBRANCH  15  21
ENDBRANCH  11  12
ENDBRANCH   8  11
ENDBRANCH   3   9
BRANCH   5  22
ATOM     22  O   UNL     1      31.722 -23.712 -13.951  0.00  0.00    -0.471 OA
ATOM     23  C   UNL     1      31.132 -24.988 -13.711  0.00  0.00    +0.252 C 
ENDBRANCH   5  22
BRANCH   1  24
ATOM     24  C   UNL     1      37.379 -23.504 -14.073  0.00  0.00    +0.080 C 
BRANCH  24  29
ATOM     25  O   UNL     1      39.420 -24.667 -13.512  0.00  0.00    -0.428 OA
ATOM     26  O   UNL     1      36.879 -26.258 -15.302  0.00  0.00    -0.271 OA
ATOM     27  O   UNL     1      41.311 -25.540 -14.456  0.00  0.00    -0.226 OA
ATOM     28  N   UNL     1      39.193 -26.161 -15.140  0.00  0.00    -0.218 N 
ATOM     29  C   UNL     1      38.004 -24.830 -13.693  0.00  0.00    +0.250 C 
ATOM     30  C   UNL     1      37.912 -25.837 -14.806  0.00  0.00    +0.271 C 
ATOM     31  C   UNL     1      40.091 -25.474 -14.388  0.00  0.00    +0.408 C 
ATOM     32  H   UNL     1      39.437 -26.811 -15.838  0.00  0.00    +0.161 HD
ENDBRANCH  24  29
ENDBRANCH   1  24
TORSDOF 7
ENDMDL
MODEL 3
REMARK VINA RESULT:     -10.9      5.151      9.794
REMARK  Name = 56842109
REMARK  7 active torsions:
REMARK  status: ('A' for Active; 'I' for Inactive)
REMARK    1  A    between atoms: C_1  and  C_24
REMARK    2  A    between atoms: C_3  and  C_9
REMARK    3  A    between atoms: C_5  and  O_22
REMARK    4  A    between atoms: N_8  and  C_11
REMARK    5  A    between atoms: C_11  and  C_12
REMARK    6  A    between atoms: C_15  and  C_21
REMARK    7  A    between atoms: C_24  and  C_29
REMARK                            x       y       z     vdW  Elec       q    Type
REMARK                         _______ _______ _______ _____ _____    ______ ____
ROOT
ATOM      1  C   UNL     1      35.104 -19.673 -20.970  0.00  0.00    -0.018 C 
ATOM      2  C   UNL     1      34.395 -20.674 -20.305  0.00  0.00    +0.003 C 
ATOM      3  C   UNL     1      35.019 -21.431 -19.313  0.00  0.00    +0.087 C 
ATOM      4  C   UNL     1      36.437 -19.429 -20.641  0.00  0.00    -0.001 C 
ATOM      5  C   UNL     1      36.352 -21.186 -18.985  0.00  0.00    +0.143 C 
ATOM      6  C   UNL     1      37.062 -20.185 -19.649  0.00  0.00    +0.037 C 
ENDROOT
BRANCH   3   9
ATOM      7  O   UNL     1      33.802 -23.434 -19.267  0.00  0.00    -0.270 OA
ATOM      8  N   UNL     1      34.100 -22.333 -17.248  0.00  0.00    -0.297 N 
ATOM      9  C   UNL     1      34.260 -22.470 -18.631  0.00  0.00    +0.249 C 
ATOM     10  H   UNL     1      34.489 -21.542 -16.809  0.00  0.00    +0.150 HD
BRANCH   8  11
ATOM     11  C   UNL     1      33.393 -23.291 -16.429  0.00  0.00    +0.117 C 
BRANCH  11  12
ATOM     12  C   UNL     1      34.151 -23.630 -15.179  0.00  0.00    -0.003 C 
ATOM     13  C   UNL     1      35.541 -23.747 -15.218  0.00  0.00    -0.003 C 
ATOM     14  C   UNL     1      33.468 -23.829 -13.979  0.00  0.00    -0.003 C 
ATOM     15  C   UNL     1      35.564 -24.261 -12.858  0.00  0.00    +0.071 C 
ATOM     16  C   UNL     1      36.248 -24.062 -14.057  0.00  0.00    +0.004 C 
ATOM     17  C   UNL     1      34.174 -24.145 -12.819  0.00  0.00    +0.004 C 
BRANCH  15  21
ATOM     18  F   UNL     1      36.997 -25.776 -11.715  0.00  0.00    -0.166 F 
ATOM     19  F   UNL     1      37.259 -23.662 -11.279  0.00  0.00    -0.166 F 
ATOM     20  F   UNL     1      35.528 -24.718 -10.510  0.00  0.00    -0.166 F 
ATOM     21  C   UNL     1      36.319 -24.595 -11.616  0.00  0.00    +0.419 C 
ENDBRANCH  15  21
ENDBRANCH  11  12
ENDBRANCH   8  11
ENDBRANCH   3   9
BRANCH   5  22
ATOM     22  O   UNL     1      36.979 -21.912 -18.017  0.00  0.00    -0.471 OA
ATOM     23  C   UNL     1      37.516 -21.189 -16.911  0.00  0.00    +0.252 C 
ENDBRANCH   5  22
BRANCH   1  24
ATOM     24  C   UNL     1      34.428 -18.855 -22.041  0.00  0.00    +0.080 C 
BRANCH  24  29
ATOM     25  O   UNL     1      35.590 -16.748 -22.244  0.00  0.00    -0.428 OA
ATOM     26  O   UNL     1      34.597 -18.531 -25.077  0.00  0.00    -0.271 OA
ATOM     27  O   UNL     1      35.281 -14.578 -22.893  0.00  0.00    -0.226 OA
ATOM     28  N   UNL     1      34.837 -16.358 -24.297  0.00  0.00    -0.218 N 
ATOM     29  C   UNL     1      35.419 -18.042 -22.847  0.00  0.00    +0.250 C 
ATOM     30  C   UNL     1      34.902 -17.717 -24.219  0.00  0.00    +0.271 C 
ATOM     31  C   UNL     1      35.235 -15.775 -23.137  0.00  0.00    +0.408 C 
ATOM     32  H   UNL     1      34.539 -15.861 -25.093  0.00  0.00    +0.161 HD
ENDBRANCH  24  29
ENDBRANCH   1  24
TORSDOF 7
ENDMDL
MODEL 4
REMARK VINA RESULT:     -10.9      2.273      5.538
REMARK  Name = 56842109
REMARK  7 active torsions:
REMARK  status: ('A' for Active; 'I' for Inactive)
REMARK    1  A    between atoms: C_1  and  C_24
REMARK    2  A    between atoms: C_3  and  C_9
REMARK    3  A    between atoms: C_5  and  O_22
REMARK    4  A    between atoms: N_8  and  C_11
REMARK    5  A    between atoms: C_11  and  C_12
REMARK    6  A    between atoms: C_15  and  C_21
REMARK    7  A    between atoms: C_24  and  C_29
REMARK                            x       y       z     vdW  Elec       q    Type
REMARK                         _______ _______ _______ _____ _____    ______ ____
ROOT
ATOM      1  C   UNL     1      32.255 -22.963 -14.406  0.00  0.00    -0.018 C 
ATOM      2  C   UNL     1      33.374 -22.840 -15.229  0.00  0.00    +0.003 C 
ATOM      3  C   UNL     1      34.611 -23.324 -14.802  0.00  0.00    +0.087 C 
ATOM      4  C   UNL     1      32.372 -23.571 -13.157  0.00  0.00    -0.001 C 
ATOM      5  C   UNL     1      34.728 -23.931 -13.552  0.00  0.00    +0.143 C 
ATOM      6  C   UNL     1      33.609 -24.055 -12.729  0.00  0.00    +0.037 C 
ENDROOT
BRANCH   3   9
ATOM      7  O   UNL     1      36.679 -24.030 -15.651  0.00  0.00    -0.270 OA
ATOM      8  N   UNL     1      35.778 -22.089 -16.545  0.00  0.00    -0.297 N 
ATOM      9  C   UNL     1      35.767 -23.186 -15.678  0.00  0.00    +0.249 C 
ATOM     10  H   UNL     1      35.022 -21.460 -16.511  0.00  0.00    +0.150 HD
BRANCH   8  11
ATOM     11  C   UNL     1      36.842 -21.829 -17.488  0.00  0.00    +0.117 C 
BRANCH  11  12
ATOM     12  C   UNL     1      36.346 -21.119 -18.713  0.00  0.00    -0.003 C 
ATOM     13  C   UNL     1      37.209 -20.301 -19.443  0.00  0.00    -0.003 C 
ATOM     14  C   UNL     1      35.021 -21.275 -19.123  0.00  0.00    -0.003 C 
ATOM     15  C   UNL     1      35.426 -19.797 -20.991  0.00  0.00    +0.071 C 
ATOM     16  C   UNL     1      36.750 -19.640 -20.582  0.00  0.00    +0.004 C 
ATOM     17  C   UNL     1      34.562 -20.614 -20.261  0.00  0.00    +0.004 C 
BRANCH  15  21
ATOM     18  F   UNL     1      33.607 -19.310 -22.443  0.00  0.00    -0.166 F 
ATOM     19  F   UNL     1      35.079 -17.736 -22.155  0.00  0.00    -0.166 F 
ATOM     20  F   UNL     1      35.573 -19.472 -23.357  0.00  0.00    -0.166 F 
ATOM     21  C   UNL     1      34.934 -19.093 -22.211  0.00  0.00    +0.419 C 
ENDBRANCH  15  21
ENDBRANCH  11  12
ENDBRANCH   8  11
ENDBRANCH   3   9
BRANCH   5  22
ATOM     22  O   UNL     1      35.927 -24.413 -13.118  0.00  0.00    -0.471 OA
ATOM     23  C   UNL     1      36.078 -24.601 -11.712  0.00  0.00    +0.252 C 
ENDBRANCH   5  22
BRANCH   1  24
ATOM     24  C   UNL     1      30.918 -22.441 -14.869  0.00  0.00    +0.080 C 
BRANCH  24  29
ATOM     25  O   UNL     1      29.456 -22.327 -16.789  0.00  0.00    -0.428 OA
ATOM     26  O   UNL     1      30.133 -25.374 -15.224  0.00  0.00    -0.271 OA
ATOM     27  O   UNL     1      27.265 -22.561 -17.398  0.00  0.00    -0.226 OA
ATOM     28  N   UNL     1      28.424 -24.233 -16.304  0.00  0.00    -0.218 N 
ATOM     29  C   UNL     1      30.437 -23.141 -16.123  0.00  0.00    +0.250 C 
ATOM     30  C   UNL     1      29.684 -24.403 -15.812  0.00  0.00    +0.271 C 
ATOM     31  C   UNL     1      28.276 -23.011 -16.877  0.00  0.00    +0.408 C 
ATOM     32  H   UNL     1      27.711 -24.911 -16.251  0.00  0.00    +0.161 HD
ENDBRANCH  24  29
ENDBRANCH   1  24
TORSDOF 7
ENDMDL
MODEL 5
REMARK VINA RESULT:     -10.7      7.675     12.100
REMARK  Name = 56842109
REMARK  7 active torsions:
REMARK  status: ('A' for Active; 'I' for Inactive)
REMARK    1  A    between atoms: C_1  and  C_24
REMARK    2  A    between atoms: C_3  and  C_9
REMARK    3  A    between atoms: C_5  and  O_22
REMARK    4  A    between atoms: N_8  and  C_11
REMARK    5  A    between atoms: C_11  and  C_12
REMARK    6  A    between atoms: C_15  and  C_21
REMARK    7  A    between atoms: C_24  and  C_29
REMARK                            x       y       z     vdW  Elec       q    Type
REMARK                         _______ _______ _______ _____ _____    ______ ____
ROOT
ATOM      1  C   UNL     1      33.785 -13.382 -23.189  0.00  0.00    -0.018 C 
ATOM      2  C   UNL     1      34.502 -14.282 -22.400  0.00  0.00    +0.003 C 
ATOM      3  C   UNL     1      34.859 -15.528 -22.914  0.00  0.00    +0.087 C 
ATOM      4  C   UNL     1      33.425 -13.729 -24.490  0.00  0.00    -0.001 C 
ATOM      5  C   UNL     1      34.500 -15.875 -24.216  0.00  0.00    +0.143 C 
ATOM      6  C   UNL     1      33.783 -14.976 -25.004  0.00  0.00    +0.037 C 
ENDROOT
BRANCH   3   9
ATOM      7  O   UNL     1      35.485 -16.421 -20.839  0.00  0.00    -0.270 OA
ATOM      8  N   UNL     1      36.442 -17.369 -22.726  0.00  0.00    -0.297 N 
ATOM      9  C   UNL     1      35.610 -16.452 -22.074  0.00  0.00    +0.249 C 
ATOM     10  H   UNL     1      36.493 -17.335 -23.709  0.00  0.00    +0.150 HD
BRANCH   8  11
ATOM     11  C   UNL     1      37.232 -18.361 -22.034  0.00  0.00    +0.117 C 
BRANCH  11  12
ATOM     12  C   UNL     1      36.381 -19.273 -21.198  0.00  0.00    -0.003 C 
ATOM     13  C   UNL     1      36.965 -20.041 -20.191  0.00  0.00    -0.003 C 
ATOM     14  C   UNL     1      35.008 -19.352 -21.428  0.00  0.00    -0.003 C 
ATOM     15  C   UNL     1      34.802 -20.967 -19.643  0.00  0.00    +0.071 C 
ATOM     16  C   UNL     1      36.176 -20.889 -19.413  0.00  0.00    +0.004 C 
ATOM     17  C   UNL     1      34.219 -20.199 -20.651  0.00  0.00    +0.004 C 
BRANCH  15  21
ATOM     18  F   UNL     1      32.717 -21.354 -18.568  0.00  0.00    -0.166 F 
ATOM     19  F   UNL     1      33.740 -23.094 -19.378  0.00  0.00    -0.166 F 
ATOM     20  F   UNL     1      34.489 -22.138 -17.581  0.00  0.00    -0.166 F 
ATOM     21  C   UNL     1      33.958 -21.870 -18.810  0.00  0.00    +0.419 C 
ENDBRANCH  15  21
ENDBRANCH  11  12
ENDBRANCH   8  11
ENDBRANCH   3   9
BRANCH   5  22
ATOM     22  O   UNL     1      34.843 -17.088 -24.737  0.00  0.00    -0.471 OA
ATOM     23  C   UNL     1      33.824 -18.084 -24.780  0.00  0.00    +0.252 C 
ENDBRANCH   5  22
BRANCH   1  24
ATOM     24  C   UNL     1      33.399 -12.034 -22.633  0.00  0.00    +0.080 C 
BRANCH  24  29
ATOM     25  O   UNL     1      34.708 -10.666 -24.133  0.00  0.00    -0.428 OA
ATOM     26  O   UNL     1      31.775  -9.444 -22.685  0.00  0.00    -0.271 OA
ATOM     27  O   UNL     1      36.048  -8.815 -24.173  0.00  0.00    -0.226 OA
ATOM     28  N   UNL     1      33.892  -8.756 -23.345  0.00  0.00    -0.218 N 
ATOM     29  C   UNL     1      33.368 -10.964 -23.704  0.00  0.00    +0.250 C 
ATOM     30  C   UNL     1      32.875  -9.647 -23.175  0.00  0.00    +0.271 C 
ATOM     31  C   UNL     1      34.980  -9.346 -23.904  0.00  0.00    +0.408 C 
ATOM     32  H   UNL     1      33.845  -7.805 -23.095  0.00  0.00    +0.161 HD
ENDBRANCH  24  29
ENDBRANCH   1  24
TORSDOF 7
ENDMDL
MODEL 6
REMARK VINA RESULT:     -10.6      5.222      9.893
REMARK  Name = 56842109
REMARK  7 active torsions:
REMARK  status: ('A' for Active; 'I' for Inactive)
REMARK    1  A    between atoms: C_1  and  C_24
REMARK    2  A    between atoms: C_3  and  C_9
REMARK    3  A    between atoms: C_5  and  O_22
REMARK    4  A    between atoms: N_8  and  C_11
REMARK    5  A    between atoms: C_11  and  C_12
REMARK    6  A    between atoms: C_15  and  C_21
REMARK    7  A    between atoms: C_24  and  C_29
REMARK                            x       y       z     vdW  Elec       q    Type
REMARK                         _______ _______ _______ _____ _____    ______ ____
ROOT
ATOM      1  C   UNL     1      35.337 -18.741 -22.129  0.00  0.00    -0.018 C 
ATOM      2  C   UNL     1      34.402 -19.456 -21.380  0.00  0.00    +0.003 C 
ATOM      3  C   UNL     1      34.821 -20.225 -20.294  0.00  0.00    +0.087 C 
ATOM      4  C   UNL     1      36.689 -18.793 -21.791  0.00  0.00    -0.001 C 
ATOM      5  C   UNL     1      36.172 -20.277 -19.955  0.00  0.00    +0.143 C 
ATOM      6  C   UNL     1      37.107 -19.562 -20.704  0.00  0.00    +0.037 C 
ENDROOT
BRANCH   3   9
ATOM      7  O   UNL     1      32.620 -20.693 -19.634  0.00  0.00    -0.270 OA
ATOM      8  N   UNL     1      34.301 -21.983 -18.691  0.00  0.00    -0.297 N 
ATOM      9  C   UNL     1      33.828 -20.962 -19.524  0.00  0.00    +0.249 C 
ATOM     10  H   UNL     1      35.272 -22.140 -18.653  0.00  0.00    +0.150 HD
BRANCH   8  11
ATOM     11  C   UNL     1      33.440 -22.817 -17.885  0.00  0.00    +0.117 C 
BRANCH  11  12
ATOM     12  C   UNL     1      34.007 -23.050 -16.515  0.00  0.00    -0.003 C 
ATOM     13  C   UNL     1      33.185 -23.519 -15.490  0.00  0.00    -0.003 C 
ATOM     14  C   UNL     1      35.357 -22.799 -16.265  0.00  0.00    -0.003 C 
ATOM     15  C   UNL     1      35.059 -23.487 -13.969  0.00  0.00    +0.071 C 
ATOM     16  C   UNL     1      33.710 -23.738 -14.217  0.00  0.00    +0.004 C 
ATOM     17  C   UNL     1      35.882 -23.017 -14.992  0.00  0.00    +0.004 C 
BRANCH  15  21
ATOM     18  F   UNL     1      34.694 -23.562 -11.620  0.00  0.00    -0.166 F 
ATOM     19  F   UNL     1      36.127 -24.981 -12.435  0.00  0.00    -0.166 F 
ATOM     20  F   UNL     1      36.649 -22.880 -12.287  0.00  0.00    -0.166 F 
ATOM     21  C   UNL     1      35.623 -23.722 -12.608  0.00  0.00    +0.419 C 
ENDBRANCH  15  21
ENDBRANCH  11  12
ENDBRANCH   8  11
ENDBRANCH   3   9
BRANCH   5  22
ATOM     22  O   UNL     1      36.600 -21.020 -18.895  0.00  0.00    -0.471 OA
ATOM     23  C   UNL     1      37.482 -20.383 -17.973  0.00  0.00    +0.252 C 
ENDBRANCH   5  22
BRANCH   1  24
ATOM     24  C   UNL     1      34.884 -17.909 -23.304  0.00  0.00    +0.080 C 
BRANCH  24  29
ATOM     25  O   UNL     1      35.341 -15.946 -21.975  0.00  0.00    -0.428 OA
ATOM     26  O   UNL     1      34.582 -15.678 -25.372  0.00  0.00    -0.271 OA
ATOM     27  O   UNL     1      34.330 -14.093 -21.095  0.00  0.00    -0.226 OA
ATOM     28  N   UNL     1      34.263 -14.577 -23.353  0.00  0.00    -0.218 N 
ATOM     29  C   UNL     1      35.487 -16.521 -23.284  0.00  0.00    +0.250 C 
ATOM     30  C   UNL     1      34.735 -15.565 -24.166  0.00  0.00    +0.271 C 
ATOM     31  C   UNL     1      34.609 -14.794 -22.058  0.00  0.00    +0.408 C 
ATOM     32  H   UNL     1      33.739 -13.805 -23.665  0.00  0.00    +0.161 HD
ENDBRANCH  24  29
ENDBRANCH   1  24
TORSDOF 7
ENDMDL
MODEL 7
REMARK VINA RESULT:     -10.5     10.206     14.018
REMARK  Name = 56842109
REMARK  7 active torsions:
REMARK  status: ('A' for Active; 'I' for Inactive)
REMARK    1  A    between atoms: C_1  and  C_24
REMARK    2  A    between atoms: C_3  and  C_9
REMARK    3  A    between atoms: C_5  and  O_22
REMARK    4  A    between atoms: N_8  and  C_11
REMARK    5  A    between atoms: C_11  and  C_12
REMARK    6  A    between atoms: C_15  and  C_21
REMARK    7  A    between atoms: C_24  and  C_29
REMARK                            x       y       z     vdW  Elec       q    Type
REMARK                         _______ _______ _______ _____ _____    ______ ____
ROOT
ATOM      1  C   UNL     1      32.326  -9.062 -22.339  0.00  0.00    -0.018 C 
ATOM      2  C   UNL     1      32.985  -9.943 -23.198  0.00  0.00    +0.003 C 
ATOM      3  C   UNL     1      32.988 -11.311 -22.926  0.00  0.00    +0.087 C 
ATOM      4  C   UNL     1      31.671  -9.550 -21.209  0.00  0.00    -0.001 C 
ATOM      5  C   UNL     1      32.332 -11.799 -21.796  0.00  0.00    +0.143 C 
ATOM      6  C   UNL     1      31.674 -10.918 -20.937  0.00  0.00    +0.037 C 
ENDROOT
BRANCH   3   9
ATOM      7  O   UNL     1      34.771 -11.889 -24.333  0.00  0.00    -0.270 OA
ATOM      8  N   UNL     1      33.068 -13.445 -24.095  0.00  0.00    -0.297 N 
ATOM      9  C   UNL     1      33.679 -12.213 -23.836  0.00  0.00    +0.249 C 
ATOM     10  H   UNL     1      32.202 -13.635 -23.666  0.00  0.00    +0.150 HD
BRANCH   8  11
ATOM     11  C   UNL     1      33.641 -14.454 -24.956  0.00  0.00    +0.117 C 
BRANCH  11  12
ATOM     12  C   UNL     1      34.395 -15.494 -24.180  0.00  0.00    -0.003 C 
ATOM     13  C   UNL     1      34.609 -16.757 -24.732  0.00  0.00    -0.003 C 
ATOM     14  C   UNL     1      34.883 -15.198 -22.907  0.00  0.00    -0.003 C 
ATOM     15  C   UNL     1      35.797 -17.428 -22.740  0.00  0.00    +0.071 C 
ATOM     16  C   UNL     1      35.309 -17.725 -24.013  0.00  0.00    +0.004 C 
ATOM     17  C   UNL     1      35.584 -16.165 -22.187  0.00  0.00    +0.004 C 
BRANCH  15  21
ATOM     18  F   UNL     1      37.751 -18.770 -22.542  0.00  0.00    -0.166 F 
ATOM     19  F   UNL     1      36.839 -18.087 -20.689  0.00  0.00    -0.166 F 
ATOM     20  F   UNL     1      35.884 -19.648 -21.853  0.00  0.00    -0.166 F 
ATOM     21  C   UNL     1      36.549 -18.461 -21.971  0.00  0.00    +0.419 C 
ENDBRANCH  15  21
ENDBRANCH  11  12
ENDBRANCH   8  11
ENDBRANCH   3   9
BRANCH   5  22
ATOM     22  O   UNL     1      32.321 -13.133 -21.514  0.00  0.00    -0.471 OA
ATOM     23  C   UNL     1      32.339 -13.503 -20.137  0.00  0.00    +0.252 C 
ENDBRANCH   5  22
BRANCH   1  24
ATOM     24  C   UNL     1      32.323  -7.583 -22.635  0.00  0.00    +0.080 C 
BRANCH  24  29
ATOM     25  O   UNL     1      30.813  -5.731 -22.287  0.00  0.00    -0.428 OA
ATOM     26  O   UNL     1      33.151  -6.624 -19.852  0.00  0.00    -0.271 OA
ATOM     27  O   UNL     1      30.770  -3.451 -22.118  0.00  0.00    -0.226 OA
ATOM     28  N   UNL     1      32.112  -4.761 -20.769  0.00  0.00    -0.218 N 
ATOM     29  C   UNL     1      31.505  -6.804 -21.627  0.00  0.00    +0.250 C 
ATOM     30  C   UNL     1      32.370  -6.092 -20.626  0.00  0.00    +0.271 C 
ATOM     31  C   UNL     1      31.200  -4.535 -21.749  0.00  0.00    +0.408 C 
ATOM     32  H   UNL     1      32.533  -4.053 -20.230  0.00  0.00    +0.161 HD
ENDBRANCH  24  29
ENDBRANCH   1  24
TORSDOF 7
ENDMDL
MODEL 8
REMARK VINA RESULT:     -10.5      6.527     10.914
REMARK  Name = 56842109
REMARK  7 active torsions:
REMARK  status: ('A' for Active; 'I' for Inactive)
REMARK    1  A    between atoms: C_1  and  C_24
REMARK    2  A    between atoms: C_3  and  C_9
REMARK    3  A    between atoms: C_5  and  O_22
REMARK    4  A    between atoms: N_8  and  C_11
REMARK    5  A    between atoms: C_11  and  C_12
REMARK    6  A    between atoms: C_15  and  C_21
REMARK    7  A    between atoms: C_24  and  C_29
REMARK                            x       y       z     vdW  Elec       q    Type
REMARK                         _______ _______ _______ _____ _____    ______ ____
ROOT
ATOM      1  C   UNL     1      34.493 -14.650 -22.848  0.00  0.00    -0.018 C 
ATOM      2  C   UNL     1      35.289 -15.667 -22.321  0.00  0.00    +0.003 C 
ATOM      3  C   UNL     1      35.471 -16.852 -23.035  0.00  0.00    +0.087 C 
ATOM      4  C   UNL     1      33.880 -14.818 -24.089  0.00  0.00    -0.001 C 
ATOM      5  C   UNL     1      34.858 -17.020 -24.276  0.00  0.00    +0.143 C 
ATOM      6  C   UNL     1      34.062 -16.003 -24.803  0.00  0.00    +0.037 C 
ENDROOT
BRANCH   3   9
ATOM      7  O   UNL     1      37.475 -18.057 -22.864  0.00  0.00    -0.270 OA
ATOM      8  N   UNL     1      35.743 -18.685 -21.456  0.00  0.00    -0.297 N 
ATOM      9  C   UNL     1      36.308 -17.900 -22.467  0.00  0.00    +0.249 C 
ATOM     10  H   UNL     1      34.812 -18.504 -21.191  0.00  0.00    +0.150 HD
BRANCH   8  11
ATOM     11  C   UNL     1      36.453 -19.746 -20.779  0.00  0.00    +0.117 C 
BRANCH  11  12
ATOM     12  C   UNL     1      35.554 -20.535 -19.873  0.00  0.00    -0.003 C 
ATOM     13  C   UNL     1      34.172 -20.502 -20.061  0.00  0.00    -0.003 C 
ATOM     14  C   UNL     1      36.099 -21.302 -18.843  0.00  0.00    -0.003 C 
ATOM     15  C   UNL     1      33.880 -22.002 -18.191  0.00  0.00    +0.071 C 
ATOM     16  C   UNL     1      33.334 -21.235 -19.220  0.00  0.00    +0.004 C 
ATOM     17  C   UNL     1      35.262 -22.034 -18.002  0.00  0.00    +0.004 C 
BRANCH  15  21
ATOM     18  F   UNL     1      32.935 -24.110 -17.630  0.00  0.00    -0.166 F 
ATOM     19  F   UNL     1      33.366 -22.760 -15.981  0.00  0.00    -0.166 F 
ATOM     20  F   UNL     1      31.690 -22.358 -17.297  0.00  0.00    -0.166 F 
ATOM     21  C   UNL     1      32.986 -22.788 -17.293  0.00  0.00    +0.419 C 
ENDBRANCH  15  21
ENDBRANCH  11  12
ENDBRANCH   8  11
ENDBRANCH   3   9
BRANCH   5  22
ATOM     22  O   UNL     1      35.027 -18.168 -24.990  0.00  0.00    -0.471 OA
ATOM     23  C   UNL     1      34.027 -19.175 -24.841  0.00  0.00    +0.252 C 
ENDBRANCH   5  22
BRANCH   1  24
ATOM     24  C   UNL     1      34.297 -13.369 -22.076  0.00  0.00    +0.080 C 
BRANCH  24  29
ATOM     25  O   UNL     1      32.755 -11.553 -22.472  0.00  0.00    -0.428 OA
ATOM     26  O   UNL     1      32.174 -13.884 -19.937  0.00  0.00    -0.271 OA
ATOM     27  O   UNL     1      31.986  -9.611 -21.542  0.00  0.00    -0.226 OA
ATOM     28  N   UNL     1      31.905 -11.629 -20.421  0.00  0.00    -0.218 N 
ATOM     29  C   UNL     1      32.848 -12.928 -22.064  0.00  0.00    +0.250 C 
ATOM     30  C   UNL     1      32.273 -12.917 -20.676  0.00  0.00    +0.271 C 
ATOM     31  C   UNL     1      32.189 -10.815 -21.470  0.00  0.00    +0.408 C 
ATOM     32  H   UNL     1      31.486 -11.327 -19.582  0.00  0.00    +0.161 HD
ENDBRANCH  24  29
ENDBRANCH   1  24
TORSDOF 7
ENDMDL
MODEL 9
REMARK VINA RESULT:     -10.5      2.932      5.586
REMARK  Name = 56842109
REMARK  7 active torsions:
REMARK  status: ('A' for Active; 'I' for Inactive)
REMARK    1  A    between atoms: C_1  and  C_24
REMARK    2  A    between atoms: C_3  and  C_9
REMARK    3  A    between atoms: C_5  and  O_22
REMARK    4  A    between atoms: N_8  and  C_11
REMARK    5  A    between atoms: C_11  and  C_12
REMARK    6  A    between atoms: C_15  and  C_21
REMARK    7  A    between atoms: C_24  and  C_29
REMARK                            x       y       z     vdW  Elec       q    Type
REMARK                         _______ _______ _______ _____ _____    ______ ____
ROOT
ATOM      1  C   UNL     1      32.252 -22.621 -15.313  0.00  0.00    -0.018 C 
ATOM      2  C   UNL     1      32.731 -22.606 -16.623  0.00  0.00    +0.003 C 
ATOM      3  C   UNL     1      34.084 -22.835 -16.874  0.00  0.00    +0.087 C 
ATOM      4  C   UNL     1      33.126 -22.867 -14.255  0.00  0.00    -0.001 C 
ATOM      5  C   UNL     1      34.958 -23.081 -15.816  0.00  0.00    +0.143 C 
ATOM      6  C   UNL     1      34.479 -23.097 -14.506  0.00  0.00    +0.037 C 
ENDROOT
BRANCH   3   9
ATOM      7  O   UNL     1      34.009 -23.514 -19.117  0.00  0.00    -0.270 OA
ATOM      8  N   UNL     1      35.639 -21.970 -18.536  0.00  0.00    -0.297 N 
ATOM      9  C   UNL     1      34.562 -22.816 -18.250  0.00  0.00    +0.249 C 
ATOM     10  H   UNL     1      36.028 -21.446 -17.798  0.00  0.00    +0.150 HD
BRANCH   8  11
ATOM     11  C   UNL     1      36.210 -21.824 -19.855  0.00  0.00    +0.117 C 
BRANCH  11  12
ATOM     12  C   UNL     1      35.983 -20.451 -20.417  0.00  0.00    -0.003 C 
ATOM     13  C   UNL     1      37.065 -19.593 -20.618  0.00  0.00    -0.003 C 
ATOM     14  C   UNL     1      34.692 -20.032 -20.738  0.00  0.00    -0.003 C 
ATOM     15  C   UNL     1      35.565 -17.899 -21.462  0.00  0.00    +0.071 C 
ATOM     16  C   UNL     1      36.856 -18.316 -21.140  0.00  0.00    +0.004 C 
ATOM     17  C   UNL     1      34.483 -18.756 -21.260  0.00  0.00    +0.004 C 
BRANCH  15  21
ATOM     18  F   UNL     1      34.298 -16.494 -22.903  0.00  0.00    -0.166 F 
ATOM     19  F   UNL     1      35.056 -15.593 -21.075  0.00  0.00    -0.166 F 
ATOM     20  F   UNL     1      36.415 -16.040 -22.705  0.00  0.00    -0.166 F 
ATOM     21  C   UNL     1      35.341 -16.535 -22.023  0.00  0.00    +0.419 C 
ENDBRANCH  15  21
ENDBRANCH  11  12
ENDBRANCH   8  11
ENDBRANCH   3   9
BRANCH   5  22
ATOM     22  O   UNL     1      36.282 -23.311 -16.042  0.00  0.00    -0.471 OA
ATOM     23  C   UNL     1      37.209 -22.442 -15.392  0.00  0.00    +0.252 C 
ENDBRANCH   5  22
BRANCH   1  24
ATOM     24  C   UNL     1      30.789 -22.374 -15.042  0.00  0.00    +0.080 C 
BRANCH  24  29
ATOM     25  O   UNL     1      29.194 -21.916 -16.797  0.00  0.00    -0.428 OA
ATOM     26  O   UNL     1      28.953 -24.812 -14.861  0.00  0.00    -0.271 OA
ATOM     27  O   UNL     1      27.001 -21.365 -17.136  0.00  0.00    -0.226 OA
ATOM     28  N   UNL     1      27.629 -23.228 -15.923  0.00  0.00    -0.218 N 
ATOM     29  C   UNL     1      29.903 -22.966 -16.118  0.00  0.00    +0.250 C 
ATOM     30  C   UNL     1      28.802 -23.810 -15.542  0.00  0.00    +0.271 C 
ATOM     31  C   UNL     1      27.847 -22.108 -16.658  0.00  0.00    +0.408 C 
ATOM     32  H   UNL     1      26.737 -23.576 -15.694  0.00  0.00    +0.161 HD
ENDBRANCH  24  29
ENDBRANCH   1  24
TORSDOF 7
ENDMDL
