MODEL 1
REMARK VINA RESULT:     -12.5      0.000      0.000
REMARK  Name = 446805
REMARK  6 active torsions:
REMARK  status: ('A' for Active; 'I' for Inactive)
REMARK    1  A    between atoms: C_4  and  C_22
REMARK    2  A    between atoms: C_7  and  N_11
REMARK    3  A    between atoms: N_11  and  S_13
REMARK    4  A    between atoms: S_13  and  C_16
REMARK    5  A    between atoms: C_22  and  C_23
REMARK    6  A    between atoms: C_28  and  C_31
REMARK                            x       y       z     vdW  Elec       q    Type
REMARK                         _______ _______ _______ _____ _____    ______ ____
ROOT
ATOM      1  N   UNL     1      33.909 -13.099 -25.156  0.00  0.00    -0.262 N 
ATOM      2  N   UNL     1      34.499 -12.323 -23.158  0.00  0.00    -0.394 NA
ATOM      3  C   UNL     1      34.252 -14.204 -24.420  0.00  0.00    +0.079 C 
ATOM      4  C   UNL     1      34.073 -12.001 -24.359  0.00  0.00    +0.168 C 
ATOM      5  C   UNL     1      34.616 -13.694 -23.178  0.00  0.00    +0.129 C 
ATOM      6  C   UNL     1      35.029 -14.579 -22.167  0.00  0.00    +0.103 C 
ATOM      7  C   UNL     1      35.059 -15.950 -22.452  0.00  0.00    +0.050 C 
ATOM      8  C   UNL     1      34.273 -15.566 -24.726  0.00  0.00    +0.018 C 
ATOM      9  C   UNL     1      33.457 -13.100 -26.528  0.00  0.00    +0.119 C 
ATOM     10  C   UNL     1      34.687 -16.433 -23.709  0.00  0.00    +0.013 C 
ENDROOT
BRANCH   7  11
ATOM     11  N   UNL     1      35.477 -16.868 -21.440  0.00  0.00    -0.219 N 
ATOM     12  H   UNL     1      35.327 -16.687 -20.484  0.00  0.00    +0.173 HD
BRANCH  11  13
ATOM     13  S   UNL     1      36.261 -18.322 -21.979  0.00  0.00    +0.073 S 
ATOM     14  O   UNL     1      37.674 -18.250 -21.662  0.00  0.00    -0.150 OA
ATOM     15  O   UNL     1      35.824 -18.626 -23.329  0.00  0.00    -0.150 OA
BRANCH  13  16
ATOM     16  C   UNL     1      35.534 -19.537 -20.919  0.00  0.00    +0.125 C 
ATOM     17  C   UNL     1      34.155 -19.649 -20.869  0.00  0.00    +0.020 C 
ATOM     18  C   UNL     1      36.357 -20.350 -20.162  0.00  0.00    +0.020 C 
ATOM     19  C   UNL     1      33.582 -20.608 -20.034  0.00  0.00    +0.001 C 
ATOM     20  C   UNL     1      35.784 -21.309 -19.327  0.00  0.00    +0.001 C 
ATOM     21  C   UNL     1      34.397 -21.438 -19.262  0.00  0.00    +0.000 C 
ENDBRANCH  13  16
ENDBRANCH  11  13
ENDBRANCH   7  11
BRANCH   4  22
ATOM     22  C   UNL     1      33.791 -10.632 -24.839  0.00  0.00    +0.101 C 
BRANCH  22  23
ATOM     23  C   UNL     1      33.569  -9.620 -23.722  0.00  0.00    -0.014 C 
ATOM     24  C   UNL     1      32.542  -9.830 -22.827  0.00  0.00    -0.004 C 
ATOM     25  C   UNL     1      34.404  -8.524 -23.642  0.00  0.00    -0.004 C 
ATOM     26  C   UNL     1      32.339  -8.903 -21.804  0.00  0.00    +0.002 C 
ATOM     27  C   UNL     1      34.201  -7.597 -22.620  0.00  0.00    +0.002 C 
ATOM     28  C   UNL     1      33.169  -7.787 -21.701  0.00  0.00    +0.031 C 
BRANCH  28  31
ATOM     29  N   UNL     1      32.090  -5.740 -20.798  0.00  0.00    -0.343 N 
ATOM     30  N   UNL     1      33.597  -6.954 -19.487  0.00  0.00    -0.285 NA
ATOM     31  C   UNL     1      32.957  -6.819 -20.636  0.00  0.00    +0.117 C 
ATOM     32  H   UNL     1      31.962  -5.097 -20.063  0.00  0.00    +0.144 HD
ATOM     33  H   UNL     1      31.606  -5.620 -21.647  0.00  0.00    +0.144 HD
ATOM     34  H   UNL     1      33.455  -6.301 -18.765  0.00  0.00    +0.188 HD
ENDBRANCH  28  31
ENDBRANCH  22  23
ENDBRANCH   4  22
TORSDOF 6
ENDMDL
MODEL 2
REMARK VINA RESULT:     -12.5      3.689      6.680
REMARK  Name = 446805
REMARK  6 active torsions:
REMARK  status: ('A' for Active; 'I' for Inactive)
REMARK    1  A    between atoms: C_4  and  C_22
REMARK    2  A    between atoms: C_7  and  N_11
REMARK    3  A    between atoms: N_11  and  S_13
REMARK    4  A    between atoms: S_13  and  C_16
REMARK    5  A    between atoms: C_22  and  C_23
REMARK    6  A    between atoms: C_28  and  C_31
REMARK                            x       y       z     vdW  Elec       q    Type
REMARK                         _______ _______ _______ _____ _____    ______ ____
ROOT
ATOM      1  N   UNL     1      36.062 -18.904 -22.082  0.00  0.00    -0.262 N 
ATOM      2  N   UNL     1      33.873 -18.869 -22.462  0.00  0.00    -0.394 NA
ATOM      3  C   UNL     1      35.508 -19.684 -21.099  0.00  0.00    +0.079 C 
ATOM      4  C   UNL     1      35.046 -18.441 -22.869  0.00  0.00    +0.168 C 
ATOM      5  C   UNL     1      34.141 -19.648 -21.359  0.00  0.00    +0.129 C 
ATOM      6  C   UNL     1      33.265 -20.358 -20.521  0.00  0.00    +0.103 C 
ATOM      7  C   UNL     1      33.805 -21.081 -19.450  0.00  0.00    +0.050 C 
ATOM      8  C   UNL     1      36.068 -20.399 -20.040  0.00  0.00    +0.018 C 
ATOM      9  C   UNL     1      37.471 -18.624 -22.249  0.00  0.00    +0.119 C 
ATOM     10  C   UNL     1      35.182 -21.100 -19.216  0.00  0.00    +0.013 C 
ENDROOT
BRANCH   7  11
ATOM     11  N   UNL     1      32.932 -21.811 -18.585  0.00  0.00    -0.219 N 
ATOM     12  H   UNL     1      31.963 -21.636 -18.561  0.00  0.00    +0.173 HD
BRANCH  11  13
ATOM     13  S   UNL     1      33.664 -23.023 -17.579  0.00  0.00    +0.073 S 
ATOM     14  O   UNL     1      34.927 -22.525 -17.070  0.00  0.00    -0.150 OA
ATOM     15  O   UNL     1      33.597 -24.306 -18.254  0.00  0.00    -0.150 OA
BRANCH  13  16
ATOM     16  C   UNL     1      32.531 -23.097 -16.223  0.00  0.00    +0.125 C 
ATOM     17  C   UNL     1      32.991 -23.500 -14.982  0.00  0.00    +0.020 C 
ATOM     18  C   UNL     1      31.208 -22.751 -16.431  0.00  0.00    +0.020 C 
ATOM     19  C   UNL     1      32.097 -23.558 -13.912  0.00  0.00    +0.001 C 
ATOM     20  C   UNL     1      30.314 -22.809 -15.361  0.00  0.00    +0.001 C 
ATOM     21  C   UNL     1      30.759 -23.212 -14.102  0.00  0.00    +0.000 C 
ENDBRANCH  13  16
ENDBRANCH  11  13
ENDBRANCH   7  11
BRANCH   4  22
ATOM     22  C   UNL     1      35.292 -17.562 -24.032  0.00  0.00    +0.101 C 
BRANCH  22  23
ATOM     23  C   UNL     1      34.876 -16.114 -23.809  0.00  0.00    -0.014 C 
ATOM     24  C   UNL     1      35.203 -15.502 -22.617  0.00  0.00    -0.004 C 
ATOM     25  C   UNL     1      34.183 -15.459 -24.808  0.00  0.00    -0.004 C 
ATOM     26  C   UNL     1      34.822 -14.175 -22.414  0.00  0.00    +0.002 C 
ATOM     27  C   UNL     1      33.801 -14.133 -24.604  0.00  0.00    +0.002 C 
ATOM     28  C   UNL     1      34.121 -13.492 -23.407  0.00  0.00    +0.031 C 
BRANCH  28  31
ATOM     29  N   UNL     1      34.395 -11.057 -23.814  0.00  0.00    -0.343 N 
ATOM     30  N   UNL     1      32.706 -11.832 -22.397  0.00  0.00    -0.285 NA
ATOM     31  C   UNL     1      33.723 -12.109 -23.194  0.00  0.00    +0.117 C 
ATOM     32  H   UNL     1      34.108 -10.129 -23.656  0.00  0.00    +0.144 HD
ATOM     33  H   UNL     1      35.157 -11.242 -24.410  0.00  0.00    +0.144 HD
ATOM     34  H   UNL     1      32.434 -10.897 -22.251  0.00  0.00    +0.188 HD
ENDBRANCH  28  31
ENDBRANCH  22  23
ENDBRANCH   4  22
TORSDOF 6
ENDMDL
MODEL 3
REMARK VINA RESULT:     -12.3      3.280     10.108
REMARK  Name = 446805
REMARK  6 active torsions:
REMARK  status: ('A' for Active; 'I' for Inactive)
REMARK    1  A    between atoms: C_4  and  C_22
REMARK    2  A    between atoms: C_7  and  N_11
REMARK    3  A    between atoms: N_11  and  S_13
REMARK    4  A    between atoms: S_13  and  C_16
REMARK    5  A    between atoms: C_22  and  C_23
REMARK    6  A    between atoms: C_28  and  C_31
REMARK                            x       y       z     vdW  Elec       q    Type
REMARK                         _______ _______ _______ _____ _____    ______ ____
ROOT
ATOM      1  N   UNL     1      35.229 -17.113 -23.660  0.00  0.00    -0.262 N 
ATOM      2  N   UNL     1      35.717 -16.097 -21.745  0.00  0.00    -0.394 NA
ATOM      3  C   UNL     1      34.651 -15.873 -23.747  0.00  0.00    +0.079 C 
ATOM      4  C   UNL     1      35.853 -17.199 -22.448  0.00  0.00    +0.168 C 
ATOM      5  C   UNL     1      34.971 -15.257 -22.540  0.00  0.00    +0.129 C 
ATOM      6  C   UNL     1      34.523 -13.948 -22.298  0.00  0.00    +0.103 C 
ATOM      7  C   UNL     1      33.767 -13.307 -23.288  0.00  0.00    +0.050 C 
ATOM      8  C   UNL     1      33.901 -15.254 -24.747  0.00  0.00    +0.018 C 
ATOM      9  C   UNL     1      35.182 -18.143 -24.673  0.00  0.00    +0.119 C 
ATOM     10  C   UNL     1      33.463 -13.950 -24.490  0.00  0.00    +0.013 C 
ENDROOT
BRANCH   7  11
ATOM     11  N   UNL     1      33.300 -11.976 -23.063  0.00  0.00    -0.219 N 
ATOM     12  H   UNL     1      32.654 -11.768 -22.349  0.00  0.00    +0.173 HD
BRANCH  11  13
ATOM     13  S   UNL     1      33.929 -10.740 -24.110  0.00  0.00    +0.073 S 
ATOM     14  O   UNL     1      33.183 -10.740 -25.353  0.00  0.00    -0.150 OA
ATOM     15  O   UNL     1      35.378 -10.817 -24.121  0.00  0.00    -0.150 OA
BRANCH  13  16
ATOM     16  C   UNL     1      33.500  -9.269 -23.227  0.00  0.00    +0.125 C 
ATOM     17  C   UNL     1      32.351  -9.257 -22.456  0.00  0.00    +0.020 C 
ATOM     18  C   UNL     1      34.322  -8.161 -23.325  0.00  0.00    +0.020 C 
ATOM     19  C   UNL     1      32.014  -8.096 -21.759  0.00  0.00    +0.001 C 
ATOM     20  C   UNL     1      33.984  -7.000 -22.628  0.00  0.00    +0.001 C 
ATOM     21  C   UNL     1      32.830  -6.968 -21.845  0.00  0.00    +0.000 C 
ENDBRANCH  13  16
ENDBRANCH  11  13
ENDBRANCH   7  11
BRANCH   4  22
ATOM     22  C   UNL     1      36.582 -18.413 -22.023  0.00  0.00    +0.101 C 
BRANCH  22  23
ATOM     23  C   UNL     1      35.753 -19.363 -21.169  0.00  0.00    -0.014 C 
ATOM     24  C   UNL     1      34.381 -19.360 -21.309  0.00  0.00    -0.004 C 
ATOM     25  C   UNL     1      36.401 -20.198 -20.282  0.00  0.00    -0.004 C 
ATOM     26  C   UNL     1      33.621 -20.231 -20.527  0.00  0.00    +0.002 C 
ATOM     27  C   UNL     1      35.642 -21.068 -19.500  0.00  0.00    +0.002 C 
ATOM     28  C   UNL     1      34.252 -21.084 -19.623  0.00  0.00    +0.031 C 
BRANCH  28  31
ATOM     29  N   UNL     1      32.336 -21.549 -18.114  0.00  0.00    -0.343 N 
ATOM     30  N   UNL     1      33.808 -23.263 -18.710  0.00  0.00    -0.285 NA
ATOM     31  C   UNL     1      33.461 -21.992 -18.806  0.00  0.00    +0.117 C 
ATOM     32  H   UNL     1      31.814 -22.181 -17.567  0.00  0.00    +0.144 HD
ATOM     33  H   UNL     1      32.061 -20.605 -18.171  0.00  0.00    +0.144 HD
ATOM     34  H   UNL     1      33.275 -23.879 -18.158  0.00  0.00    +0.188 HD
ENDBRANCH  28  31
ENDBRANCH  22  23
ENDBRANCH   4  22
TORSDOF 6
ENDMDL
MODEL 4
REMARK VINA RESULT:     -12.1      8.042     11.948
REMARK  Name = 446805
REMARK  6 active torsions:
REMARK  status: ('A' for Active; 'I' for Inactive)
REMARK    1  A    between atoms: C_4  and  C_22
REMARK    2  A    between atoms: C_7  and  N_11
REMARK    3  A    between atoms: N_11  and  S_13
REMARK    4  A    between atoms: S_13  and  C_16
REMARK    5  A    between atoms: C_22  and  C_23
REMARK    6  A    between atoms: C_28  and  C_31
REMARK                            x       y       z     vdW  Elec       q    Type
REMARK                         _______ _______ _______ _____ _____    ______ ____
ROOT
ATOM      1  N   UNL     1      33.282 -23.020 -16.384  0.00  0.00    -0.262 N 
ATOM      2  N   UNL     1      35.345 -22.491 -17.018  0.00  0.00    -0.394 NA
ATOM      3  C   UNL     1      34.059 -23.173 -15.265  0.00  0.00    +0.079 C 
ATOM      4  C   UNL     1      34.095 -22.613 -17.404  0.00  0.00    +0.168 C 
ATOM      5  C   UNL     1      35.342 -22.836 -15.685  0.00  0.00    +0.129 C 
ATOM      6  C   UNL     1      36.401 -22.886 -14.763  0.00  0.00    +0.103 C 
ATOM      7  C   UNL     1      36.123 -23.276 -13.447  0.00  0.00    +0.050 C 
ATOM      8  C   UNL     1      33.758 -23.562 -13.959  0.00  0.00    +0.018 C 
ATOM      9  C   UNL     1      31.857 -23.253 -16.467  0.00  0.00    +0.119 C 
ATOM     10  C   UNL     1      34.824 -23.607 -13.054  0.00  0.00    +0.013 C 
ENDROOT
BRANCH   7  11
ATOM     11  N   UNL     1      37.185 -23.335 -12.494  0.00  0.00    -0.219 N 
ATOM     12  H   UNL     1      37.651 -22.523 -12.188  0.00  0.00    +0.173 HD
BRANCH  11  13
ATOM     13  S   UNL     1      37.613 -24.910 -11.897  0.00  0.00    +0.073 S 
ATOM     14  O   UNL     1      36.414 -25.714 -11.764  0.00  0.00    -0.150 OA
ATOM     15  O   UNL     1      38.529 -24.764 -10.782  0.00  0.00    -0.150 OA
BRANCH  13  16
ATOM     16  C   UNL     1      38.549 -25.563 -13.248  0.00  0.00    +0.125 C 
ATOM     17  C   UNL     1      37.946 -26.458 -14.115  0.00  0.00    +0.020 C 
ATOM     18  C   UNL     1      39.864 -25.167 -13.411  0.00  0.00    +0.020 C 
ATOM     19  C   UNL     1      38.685 -26.973 -15.181  0.00  0.00    +0.001 C 
ATOM     20  C   UNL     1      40.603 -25.682 -14.476  0.00  0.00    +0.001 C 
ATOM     21  C   UNL     1      40.013 -26.585 -15.361  0.00  0.00    +0.000 C 
ENDBRANCH  13  16
ENDBRANCH  11  13
ENDBRANCH   7  11
BRANCH   4  22
ATOM     22  C   UNL     1      33.580 -22.353 -18.764  0.00  0.00    +0.101 C 
BRANCH  22  23
ATOM     23  C   UNL     1      34.378 -21.311 -19.538  0.00  0.00    -0.014 C 
ATOM     24  C   UNL     1      33.699 -20.361 -20.272  0.00  0.00    -0.004 C 
ATOM     25  C   UNL     1      35.756 -21.349 -19.479  0.00  0.00    -0.004 C 
ATOM     26  C   UNL     1      34.430 -19.407 -20.980  0.00  0.00    +0.002 C 
ATOM     27  C   UNL     1      36.487 -20.396 -20.187  0.00  0.00    +0.002 C 
ATOM     28  C   UNL     1      35.824 -19.425 -20.938  0.00  0.00    +0.031 C 
BRANCH  28  31
ATOM     29  N   UNL     1      37.979 -18.461 -21.706  0.00  0.00    -0.343 N 
ATOM     30  N   UNL     1      35.956 -17.473 -22.334  0.00  0.00    -0.285 NA
ATOM     31  C   UNL     1      36.586 -18.431 -21.677  0.00  0.00    +0.117 C 
ATOM     32  H   UNL     1      38.475 -17.777 -22.213  0.00  0.00    +0.144 HD
ATOM     33  H   UNL     1      38.467 -19.165 -21.221  0.00  0.00    +0.144 HD
ATOM     34  H   UNL     1      36.470 -16.799 -22.834  0.00  0.00    +0.188 HD
ENDBRANCH  28  31
ENDBRANCH  22  23
ENDBRANCH   4  22
TORSDOF 6
ENDMDL
MODEL 5
REMARK VINA RESULT:     -12.0      3.245      9.915
REMARK  Name = 446805
REMARK  6 active torsions:
REMARK  status: ('A' for Active; 'I' for Inactive)
REMARK    1  A    between atoms: C_4  and  C_22
REMARK    2  A    between atoms: C_7  and  N_11
REMARK    3  A    between atoms: N_11  and  S_13
REMARK    4  A    between atoms: S_13  and  C_16
REMARK    5  A    between atoms: C_22  and  C_23
REMARK    6  A    between atoms: C_28  and  C_31
REMARK                            x       y       z     vdW  Elec       q    Type
REMARK                         _______ _______ _______ _____ _____    ______ ____
ROOT
ATOM      1  N   UNL     1      35.098 -17.040 -23.738  0.00  0.00    -0.262 N 
ATOM      2  N   UNL     1      35.754 -16.176 -21.798  0.00  0.00    -0.394 NA
ATOM      3  C   UNL     1      34.562 -15.779 -23.699  0.00  0.00    +0.079 C 
ATOM      4  C   UNL     1      35.800 -17.230 -22.582  0.00  0.00    +0.168 C 
ATOM      5  C   UNL     1      34.986 -15.260 -22.479  0.00  0.00    +0.129 C 
ATOM      6  C   UNL     1      34.603 -13.957 -22.118  0.00  0.00    +0.103 C 
ATOM      7  C   UNL     1      33.805 -13.225 -23.006  0.00  0.00    +0.050 C 
ATOM      8  C   UNL     1      33.768 -15.068 -24.600  0.00  0.00    +0.018 C 
ATOM      9  C   UNL     1      34.944 -17.995 -24.813  0.00  0.00    +0.119 C 
ATOM     10  C   UNL     1      33.396 -13.772 -24.225  0.00  0.00    +0.013 C 
ENDROOT
BRANCH   7  11
ATOM     11  N   UNL     1      33.404 -11.898 -22.660  0.00  0.00    -0.219 N 
ATOM     12  H   UNL     1      33.816 -11.108 -23.079  0.00  0.00    +0.173 HD
BRANCH  11  13
ATOM     13  S   UNL     1      32.152 -11.748 -21.465  0.00  0.00    +0.073 S 
ATOM     14  O   UNL     1      32.558 -12.439 -20.256  0.00  0.00    -0.150 OA
ATOM     15  O   UNL     1      30.869 -12.032 -22.080  0.00  0.00    -0.150 OA
BRANCH  13  16
ATOM     16  C   UNL     1      32.184 -10.012 -21.127  0.00  0.00    +0.125 C 
ATOM     17  C   UNL     1      32.397  -9.127 -22.169  0.00  0.00    +0.020 C 
ATOM     18  C   UNL     1      31.995  -9.574 -19.829  0.00  0.00    +0.020 C 
ATOM     19  C   UNL     1      32.422  -7.757 -21.903  0.00  0.00    +0.001 C 
ATOM     20  C   UNL     1      32.020  -8.205 -19.562  0.00  0.00    +0.001 C 
ATOM     21  C   UNL     1      32.233  -7.296 -20.599  0.00  0.00    +0.000 C 
ENDBRANCH  13  16
ENDBRANCH  11  13
ENDBRANCH   7  11
BRANCH   4  22
ATOM     22  C   UNL     1      36.512 -18.493 -22.293  0.00  0.00    +0.101 C 
BRANCH  22  23
ATOM     23  C   UNL     1      35.788 -19.396 -21.302  0.00  0.00    -0.014 C 
ATOM     24  C   UNL     1      34.410 -19.444 -21.327  0.00  0.00    -0.004 C 
ATOM     25  C   UNL     1      36.535 -20.137 -20.409  0.00  0.00    -0.004 C 
ATOM     26  C   UNL     1      33.748 -20.271 -20.420  0.00  0.00    +0.002 C 
ATOM     27  C   UNL     1      35.873 -20.963 -19.501  0.00  0.00    +0.002 C 
ATOM     28  C   UNL     1      34.479 -21.031 -19.507  0.00  0.00    +0.031 C 
BRANCH  28  31
ATOM     29  N   UNL     1      32.411 -21.803 -18.370  0.00  0.00    -0.343 N 
ATOM     30  N   UNL     1      34.472 -22.779 -17.857  0.00  0.00    -0.285 NA
ATOM     31  C   UNL     1      33.789 -21.892 -18.560  0.00  0.00    +0.117 C 
ATOM     32  H   UNL     1      31.965 -22.396 -17.723  0.00  0.00    +0.144 HD
ATOM     33  H   UNL     1      31.885 -21.148 -18.881  0.00  0.00    +0.144 HD
ATOM     34  H   UNL     1      34.008 -23.363 -17.216  0.00  0.00    +0.188 HD
ENDBRANCH  28  31
ENDBRANCH  22  23
ENDBRANCH   4  22
TORSDOF 6
ENDMDL
MODEL 6
REMARK VINA RESULT:     -11.7      5.529     12.557
REMARK  Name = 446805
REMARK  6 active torsions:
REMARK  status: ('A' for Active; 'I' for Inactive)
REMARK    1  A    between atoms: C_4  and  C_22
REMARK    2  A    between atoms: C_7  and  N_11
REMARK    3  A    between atoms: N_11  and  S_13
REMARK    4  A    between atoms: S_13  and  C_16
REMARK    5  A    between atoms: C_22  and  C_23
REMARK    6  A    between atoms: C_28  and  C_31
REMARK                            x       y       z     vdW  Elec       q    Type
REMARK                         _______ _______ _______ _____ _____    ______ ____
ROOT
ATOM      1  N   UNL     1      33.391 -22.196 -17.527  0.00  0.00    -0.262 N 
ATOM      2  N   UNL     1      35.596 -22.362 -17.757  0.00  0.00    -0.394 NA
ATOM      3  C   UNL     1      33.690 -21.524 -18.684  0.00  0.00    +0.079 C 
ATOM      4  C   UNL     1      34.561 -22.677 -17.010  0.00  0.00    +0.168 C 
ATOM      5  C   UNL     1      35.071 -21.643 -18.807  0.00  0.00    +0.129 C 
ATOM      6  C   UNL     1      35.715 -21.054 -19.908  0.00  0.00    +0.103 C 
ATOM      7  C   UNL     1      34.937 -20.367 -20.848  0.00  0.00    +0.050 C 
ATOM      8  C   UNL     1      32.895 -20.845 -19.608  0.00  0.00    +0.018 C 
ATOM      9  C   UNL     1      32.073 -22.361 -16.958  0.00  0.00    +0.119 C 
ATOM     10  C   UNL     1      33.551 -20.266 -20.699  0.00  0.00    +0.013 C 
ENDROOT
BRANCH   7  11
ATOM     11  N   UNL     1      35.571 -19.760 -21.975  0.00  0.00    -0.219 N 
ATOM     12  H   UNL     1      35.585 -20.197 -22.857  0.00  0.00    +0.173 HD
BRANCH  11  13
ATOM     13  S   UNL     1      36.313 -18.211 -21.714  0.00  0.00    +0.073 S 
ATOM     14  O   UNL     1      37.710 -18.279 -22.099  0.00  0.00    -0.150 OA
ATOM     15  O   UNL     1      35.934 -17.715 -20.405  0.00  0.00    -0.150 OA
BRANCH  13  16
ATOM     16  C   UNL     1      35.477 -17.206 -22.905  0.00  0.00    +0.125 C 
ATOM     17  C   UNL     1      34.887 -17.811 -24.002  0.00  0.00    +0.020 C 
ATOM     18  C   UNL     1      35.429 -15.837 -22.717  0.00  0.00    +0.020 C 
ATOM     19  C   UNL     1      34.227 -17.018 -24.941  0.00  0.00    +0.001 C 
ATOM     20  C   UNL     1      34.768 -15.044 -23.656  0.00  0.00    +0.001 C 
ATOM     21  C   UNL     1      34.167 -15.634 -24.768  0.00  0.00    +0.000 C 
ENDBRANCH  13  16
ENDBRANCH  11  13
ENDBRANCH   7  11
BRANCH   4  22
ATOM     22  C   UNL     1      34.604 -23.456 -15.755  0.00  0.00    +0.101 C 
BRANCH  22  23
ATOM     23  C   UNL     1      35.997 -23.944 -15.380  0.00  0.00    -0.014 C 
ATOM     24  C   UNL     1      37.049 -23.052 -15.416  0.00  0.00    -0.004 C 
ATOM     25  C   UNL     1      36.164 -25.265 -15.015  0.00  0.00    -0.004 C 
ATOM     26  C   UNL     1      38.325 -23.500 -15.073  0.00  0.00    +0.002 C 
ATOM     27  C   UNL     1      37.440 -25.713 -14.672  0.00  0.00    +0.002 C 
ATOM     28  C   UNL     1      38.520 -24.830 -14.701  0.00  0.00    +0.031 C 
BRANCH  28  31
ATOM     29  N   UNL     1      40.032 -26.430 -13.553  0.00  0.00    -0.343 N 
ATOM     30  N   UNL     1      40.915 -24.640 -14.768  0.00  0.00    -0.285 NA
ATOM     31  C   UNL     1      39.850 -25.297 -14.343  0.00  0.00    +0.117 C 
ATOM     32  H   UNL     1      40.942 -26.728 -13.323  0.00  0.00    +0.144 HD
ATOM     33  H   UNL     1      39.252 -26.933 -13.224  0.00  0.00    +0.144 HD
ATOM     34  H   UNL     1      41.816 -24.953 -14.527  0.00  0.00    +0.188 HD
ENDBRANCH  28  31
ENDBRANCH  22  23
ENDBRANCH   4  22
TORSDOF 6
ENDMDL
MODEL 7
REMARK VINA RESULT:     -11.6      5.575     11.539
REMARK  Name = 446805
REMARK  6 active torsions:
REMARK  status: ('A' for Active; 'I' for Inactive)
REMARK    1  A    between atoms: C_4  and  C_22
REMARK    2  A    between atoms: C_7  and  N_11
REMARK    3  A    between atoms: N_11  and  S_13
REMARK    4  A    between atoms: S_13  and  C_16
REMARK    5  A    between atoms: C_22  and  C_23
REMARK    6  A    between atoms: C_28  and  C_31
REMARK                            x       y       z     vdW  Elec       q    Type
REMARK                         _______ _______ _______ _____ _____    ______ ____
ROOT
ATOM      1  N   UNL     1      34.357 -22.671 -16.993  0.00  0.00    -0.262 N 
ATOM      2  N   UNL     1      32.490 -22.140 -18.075  0.00  0.00    -0.394 NA
ATOM      3  C   UNL     1      34.762 -21.963 -18.095  0.00  0.00    +0.079 C 
ATOM      4  C   UNL     1      32.993 -22.750 -17.025  0.00  0.00    +0.168 C 
ATOM      5  C   UNL     1      33.579 -21.642 -18.754  0.00  0.00    +0.129 C 
ATOM      6  C   UNL     1      33.637 -20.902 -19.947  0.00  0.00    +0.103 C 
ATOM      7  C   UNL     1      34.893 -20.513 -20.431  0.00  0.00    +0.050 C 
ATOM      8  C   UNL     1      36.023 -21.585 -18.557  0.00  0.00    +0.018 C 
ATOM      9  C   UNL     1      35.222 -23.233 -15.980  0.00  0.00    +0.119 C 
ATOM     10  C   UNL     1      36.063 -20.849 -19.746  0.00  0.00    +0.013 C 
ENDROOT
BRANCH   7  11
ATOM     11  N   UNL     1      34.976 -19.761 -21.642  0.00  0.00    -0.219 N 
ATOM     12  H   UNL     1      34.447 -20.002 -22.438  0.00  0.00    +0.173 HD
BRANCH  11  13
ATOM     13  S   UNL     1      36.055 -18.400 -21.645  0.00  0.00    +0.073 S 
ATOM     14  O   UNL     1      37.360 -18.824 -22.114  0.00  0.00    -0.150 OA
ATOM     15  O   UNL     1      35.921 -17.684 -20.390  0.00  0.00    -0.150 OA
BRANCH  13  16
ATOM     16  C   UNL     1      35.340 -17.377 -22.897  0.00  0.00    +0.125 C 
ATOM     17  C   UNL     1      35.450 -16.001 -22.787  0.00  0.00    +0.020 C 
ATOM     18  C   UNL     1      34.687 -17.970 -23.962  0.00  0.00    +0.020 C 
ATOM     19  C   UNL     1      34.887 -15.194 -23.776  0.00  0.00    +0.001 C 
ATOM     20  C   UNL     1      34.123 -17.163 -24.950  0.00  0.00    +0.001 C 
ATOM     21  C   UNL     1      34.223 -15.775 -24.858  0.00  0.00    +0.000 C 
ENDBRANCH  13  16
ENDBRANCH  11  13
ENDBRANCH   7  11
BRANCH   4  22
ATOM     22  C   UNL     1      32.221 -23.451 -15.978  0.00  0.00    +0.101 C 
BRANCH  22  23
ATOM     23  C   UNL     1      30.750 -23.059 -15.930  0.00  0.00    -0.014 C 
ATOM     24  C   UNL     1      29.903 -23.523 -16.915  0.00  0.00    -0.004 C 
ATOM     25  C   UNL     1      30.310 -22.250 -14.902  0.00  0.00    -0.004 C 
ATOM     26  C   UNL     1      28.556 -23.164 -16.870  0.00  0.00    +0.002 C 
ATOM     27  C   UNL     1      28.963 -21.890 -14.857  0.00  0.00    +0.002 C 
ATOM     28  C   UNL     1      28.086 -22.347 -15.841  0.00  0.00    +0.031 C 
BRANCH  28  31
ATOM     29  N   UNL     1      25.942 -22.075 -14.618  0.00  0.00    -0.343 N 
ATOM     30  N   UNL     1      26.084 -21.524 -16.885  0.00  0.00    -0.285 NA
ATOM     31  C   UNL     1      26.682 -21.971 -15.795  0.00  0.00    +0.117 C 
ATOM     32  H   UNL     1      24.992 -21.815 -14.610  0.00  0.00    +0.144 HD
ATOM     33  H   UNL     1      26.369 -22.408 -13.796  0.00  0.00    +0.144 HD
ATOM     34  H   UNL     1      25.134 -21.270 -16.857  0.00  0.00    +0.188 HD
ENDBRANCH  28  31
ENDBRANCH  22  23
ENDBRANCH   4  22
TORSDOF 6
ENDMDL
MODEL 8
REMARK VINA RESULT:     -11.6      3.253     10.229
REMARK  Name = 446805
REMARK  6 active torsions:
REMARK  status: ('A' for Active; 'I' for Inactive)
REMARK    1  A    between atoms: C_4  and  C_22
REMARK    2  A    between atoms: C_7  and  N_11
REMARK    3  A    between atoms: N_11  and  S_13
REMARK    4  A    between atoms: S_13  and  C_16
REMARK    5  A    between atoms: C_22  and  C_23
REMARK    6  A    between atoms: C_28  and  C_31
REMARK                            x       y       z     vdW  Elec       q    Type
REMARK                         _______ _______ _______ _____ _____    ______ ____
ROOT
ATOM      1  N   UNL     1      35.493 -18.121 -22.938  0.00  0.00    -0.262 N 
ATOM      2  N   UNL     1      35.816 -17.351 -20.878  0.00  0.00    -0.394 NA
ATOM      3  C   UNL     1      35.118 -16.803 -22.977  0.00  0.00    +0.079 C 
ATOM      4  C   UNL     1      35.902 -18.401 -21.664  0.00  0.00    +0.168 C 
ATOM      5  C   UNL     1      35.330 -16.344 -21.680  0.00  0.00    +0.129 C 
ATOM      6  C   UNL     1      35.040 -15.004 -21.370  0.00  0.00    +0.103 C 
ATOM      7  C   UNL     1      34.546 -14.177 -22.386  0.00  0.00    +0.050 C 
ATOM      8  C   UNL     1      34.628 -15.996 -24.004  0.00  0.00    +0.018 C 
ATOM      9  C   UNL     1      35.458 -19.046 -24.048  0.00  0.00    +0.119 C 
ATOM     10  C   UNL     1      34.345 -14.665 -23.679  0.00  0.00    +0.013 C 
ENDROOT
BRANCH   7  11
ATOM     11  N   UNL     1      34.244 -12.811 -22.094  0.00  0.00    -0.219 N 
ATOM     12  H   UNL     1      34.940 -12.114 -22.102  0.00  0.00    +0.173 HD
BRANCH  11  13
ATOM     13  S   UNL     1      32.588 -12.439 -21.725  0.00  0.00    +0.073 S 
ATOM     14  O   UNL     1      32.359 -12.627 -20.306  0.00  0.00    -0.150 OA
ATOM     15  O   UNL     1      31.726 -13.081 -22.700  0.00  0.00    -0.150 OA
BRANCH  13  16
ATOM     16  C   UNL     1      32.528 -10.702 -22.053  0.00  0.00    +0.125 C 
ATOM     17  C   UNL     1      33.113 -10.214 -23.209  0.00  0.00    +0.020 C 
ATOM     18  C   UNL     1      31.898  -9.867 -21.149  0.00  0.00    +0.020 C 
ATOM     19  C   UNL     1      33.064  -8.844 -23.468  0.00  0.00    +0.001 C 
ATOM     20  C   UNL     1      31.849  -8.496 -21.408  0.00  0.00    +0.001 C 
ATOM     21  C   UNL     1      32.433  -7.985 -22.568  0.00  0.00    +0.000 C 
ENDBRANCH  13  16
ENDBRANCH  11  13
ENDBRANCH   7  11
BRANCH   4  22
ATOM     22  C   UNL     1      36.376 -19.743 -21.268  0.00  0.00    +0.101 C 
BRANCH  22  23
ATOM     23  C   UNL     1      35.449 -20.463 -20.297  0.00  0.00    -0.014 C 
ATOM     24  C   UNL     1      34.091 -20.241 -20.384  0.00  0.00    -0.004 C 
ATOM     25  C   UNL     1      35.998 -21.315 -19.360  0.00  0.00    -0.004 C 
ATOM     26  C   UNL     1      33.242 -20.900 -19.494  0.00  0.00    +0.002 C 
ATOM     27  C   UNL     1      35.149 -21.974 -18.471  0.00  0.00    +0.002 C 
ATOM     28  C   UNL     1      33.771 -21.766 -18.538  0.00  0.00    +0.031 C 
BRANCH  28  31
ATOM     29  N   UNL     1      31.556 -22.068 -17.457  0.00  0.00    -0.343 N 
ATOM     30  N   UNL     1      33.343 -23.462 -16.890  0.00  0.00    -0.285 NA
ATOM     31  C   UNL     1      32.887 -22.453 -17.610  0.00  0.00    +0.117 C 
ATOM     32  H   UNL     1      30.975 -22.547 -16.822  0.00  0.00    +0.144 HD
ATOM     33  H   UNL     1      31.197 -21.317 -17.982  0.00  0.00    +0.144 HD
ATOM     34  H   UNL     1      32.747 -23.929 -16.261  0.00  0.00    +0.188 HD
ENDBRANCH  28  31
ENDBRANCH  22  23
ENDBRANCH   4  22
TORSDOF 6
ENDMDL
MODEL 9
REMARK VINA RESULT:     -11.5      1.542      2.172
REMARK  Name = 446805
REMARK  6 active torsions:
REMARK  status: ('A' for Active; 'I' for Inactive)
REMARK    1  A    between atoms: C_4  and  C_22
REMARK    2  A    between atoms: C_7  and  N_11
REMARK    3  A    between atoms: N_11  and  S_13
REMARK    4  A    between atoms: S_13  and  C_16
REMARK    5  A    between atoms: C_22  and  C_23
REMARK    6  A    between atoms: C_28  and  C_31
REMARK                            x       y       z     vdW  Elec       q    Type
REMARK                         _______ _______ _______ _____ _____    ______ ____
ROOT
ATOM      1  N   UNL     1      33.630 -14.472 -25.243  0.00  0.00    -0.262 N 
ATOM      2  N   UNL     1      35.094 -14.090 -23.616  0.00  0.00    -0.394 NA
ATOM      3  C   UNL     1      34.026 -15.711 -24.808  0.00  0.00    +0.079 C 
ATOM      4  C   UNL     1      34.295 -13.538 -24.501  0.00  0.00    +0.168 C 
ATOM      5  C   UNL     1      34.939 -15.446 -23.792  0.00  0.00    +0.129 C 
ATOM      6  C   UNL     1      35.547 -16.519 -23.119  0.00  0.00    +0.103 C 
ATOM      7  C   UNL     1      35.208 -17.823 -23.499  0.00  0.00    +0.050 C 
ATOM      8  C   UNL     1      33.673 -17.002 -25.203  0.00  0.00    +0.018 C 
ATOM      9  C   UNL     1      32.680 -14.208 -26.300  0.00  0.00    +0.119 C 
ATOM     10  C   UNL     1      34.287 -18.059 -24.523  0.00  0.00    +0.013 C 
ENDROOT
BRANCH   7  11
ATOM     11  N   UNL     1      35.815 -18.930 -22.829  0.00  0.00    -0.219 N 
ATOM     12  H   UNL     1      35.961 -19.792 -23.283  0.00  0.00    +0.173 HD
BRANCH  11  13
ATOM     13  S   UNL     1      36.286 -18.680 -21.176  0.00  0.00    +0.073 S 
ATOM     14  O   UNL     1      35.767 -17.406 -20.718  0.00  0.00    -0.150 OA
ATOM     15  O   UNL     1      37.694 -18.997 -21.027  0.00  0.00    -0.150 OA
BRANCH  13  16
ATOM     16  C   UNL     1      35.383 -19.955 -20.348  0.00  0.00    +0.125 C 
ATOM     17  C   UNL     1      36.069 -20.867 -19.565  0.00  0.00    +0.020 C 
ATOM     18  C   UNL     1      34.009 -20.016 -20.500  0.00  0.00    +0.020 C 
ATOM     19  C   UNL     1      35.356 -21.873 -18.911  0.00  0.00    +0.001 C 
ATOM     20  C   UNL     1      33.297 -21.022 -19.846  0.00  0.00    +0.001 C 
ATOM     21  C   UNL     1      33.970 -21.950 -19.052  0.00  0.00    +0.000 C 
ENDBRANCH  13  16
ENDBRANCH  11  13
ENDBRANCH   7  11
BRANCH   4  22
ATOM     22  C   UNL     1      34.104 -12.087 -24.710  0.00  0.00    +0.101 C 
BRANCH  22  23
ATOM     23  C   UNL     1      33.478 -11.370 -23.520  0.00  0.00    -0.014 C 
ATOM     24  C   UNL     1      32.988 -12.121 -22.472  0.00  0.00    -0.004 C 
ATOM     25  C   UNL     1      33.421  -9.992 -23.529  0.00  0.00    -0.004 C 
ATOM     26  C   UNL     1      32.414 -11.464 -21.383  0.00  0.00    +0.002 C 
ATOM     27  C   UNL     1      32.847  -9.335 -22.440  0.00  0.00    +0.002 C 
ATOM     28  C   UNL     1      32.344 -10.071 -21.367  0.00  0.00    +0.031 C 
BRANCH  28  31
ATOM     29  N   UNL     1      32.013  -8.044 -19.973  0.00  0.00    -0.343 N 
ATOM     30  N   UNL     1      30.933 -10.041 -19.422  0.00  0.00    -0.285 NA
ATOM     31  C   UNL     1      31.745  -9.386 -20.232  0.00  0.00    +0.117 C 
ATOM     32  H   UNL     1      31.597  -7.600 -19.198  0.00  0.00    +0.144 HD
ATOM     33  H   UNL     1      32.618  -7.539 -20.563  0.00  0.00    +0.144 HD
ATOM     34  H   UNL     1      30.526  -9.580 -18.653  0.00  0.00    +0.188 HD
ENDBRANCH  28  31
ENDBRANCH  22  23
ENDBRANCH   4  22
TORSDOF 6
ENDMDL
