MODEL 1
REMARK VINA RESULT:     -11.7      0.000      0.000
REMARK  Name = 5289109
REMARK  6 active torsions:
REMARK  status: ('A' for Active; 'I' for Inactive)
REMARK    1  A    between atoms: C_3  and  C_9
REMARK    2  A    between atoms: C_4  and  C_21
REMARK    3  A    between atoms: N_8  and  C_11
REMARK    4  A    between atoms: C_11  and  C_12
REMARK    5  A    between atoms: N_20  and  C_23
REMARK    6  A    between atoms: C_23  and  C_24
REMARK                            x       y       z     vdW  Elec       q    Type
REMARK                         _______ _______ _______ _____ _____    ______ ____
ROOT
ATOM      1  N   UNL     1      34.227 -13.655 -21.599  0.00  0.00    -0.244 NA
ATOM      2  N   UNL     1      34.978 -15.776 -20.737  0.00  0.00    -0.244 NA
ATOM      3  C   UNL     1      34.551 -14.086 -22.836  0.00  0.00    +0.115 C 
ATOM      4  C   UNL     1      35.266 -16.112 -21.996  0.00  0.00    +0.115 C 
ATOM      5  C   UNL     1      35.086 -15.331 -23.099  0.00  0.00    +0.100 C 
ATOM      6  C   UNL     1      34.463 -14.539 -20.611  0.00  0.00    +0.250 C 
ENDROOT
BRANCH   3   9
ATOM      7  O   UNL     1      33.803 -13.534 -24.989  0.00  0.00    -0.269 OA
ATOM      8  N   UNL     1      34.635 -11.807 -23.684  0.00  0.00    -0.296 N 
ATOM      9  C   UNL     1      34.305 -13.148 -23.918  0.00  0.00    +0.260 C 
ATOM     10  H   UNL     1      35.029 -11.568 -22.815  0.00  0.00    +0.150 HD
BRANCH   8  11
ATOM     11  C   UNL     1      34.427 -10.753 -24.651  0.00  0.00    +0.117 C 
BRANCH  11  12
ATOM     12  C   UNL     1      34.421  -9.395 -24.010  0.00  0.00    -0.003 C 
ATOM     13  C   UNL     1      33.331  -9.003 -23.243  0.00  0.00    -0.007 C 
ATOM     14  C   UNL     1      33.326  -7.742 -22.645  0.00  0.00    -0.022 C 
ATOM     15  C   UNL     1      35.506  -8.545 -24.190  0.00  0.00    -0.003 C 
ATOM     16  C   UNL     1      34.411  -6.882 -22.821  0.00  0.00    -0.004 C 
ATOM     17  C   UNL     1      35.501  -7.285 -23.593  0.00  0.00    -0.001 C 
ATOM     18  C   UNL     1      32.160  -7.312 -21.821  0.00  0.00    +0.031 C 
ENDBRANCH  11  12
ENDBRANCH   8  11
ENDBRANCH   3   9
BRANCH   4  21
ATOM     19  O   UNL     1      36.058 -17.902 -23.287  0.00  0.00    -0.269 OA
ATOM     20  N   UNL     1      36.103 -18.164 -20.982  0.00  0.00    -0.296 N 
ATOM     21  C   UNL     1      35.836 -17.474 -22.157  0.00  0.00    +0.260 C 
ATOM     22  H   UNL     1      35.890 -17.735 -20.122  0.00  0.00    +0.150 HD
BRANCH  20  23
ATOM     23  C   UNL     1      36.679 -19.485 -20.973  0.00  0.00    +0.117 C 
BRANCH  23  24
ATOM     24  C   UNL     1      36.035 -20.377 -19.966  0.00  0.00    -0.003 C 
ATOM     25  C   UNL     1      36.770 -20.840 -18.875  0.00  0.00    -0.007 C 
ATOM     26  C   UNL     1      36.168 -21.675 -17.932  0.00  0.00    -0.022 C 
ATOM     27  C   UNL     1      34.699 -20.749 -20.116  0.00  0.00    -0.003 C 
ATOM     28  C   UNL     1      34.832 -22.045 -18.082  0.00  0.00    -0.004 C 
ATOM     29  C   UNL     1      34.097 -21.583 -19.174  0.00  0.00    -0.001 C 
ATOM     30  C   UNL     1      36.953 -22.170 -16.765  0.00  0.00    +0.031 C 
ENDBRANCH  23  24
ENDBRANCH  20  23
ENDBRANCH   4  21
TORSDOF 6
ENDMDL
MODEL 2
REMARK VINA RESULT:     -11.7      0.035     10.875
REMARK  Name = 5289109
REMARK  6 active torsions:
REMARK  status: ('A' for Active; 'I' for Inactive)
REMARK    1  A    between atoms: C_3  and  C_9
REMARK    2  A    between atoms: C_4  and  C_21
REMARK    3  A    between atoms: N_8  and  C_11
REMARK    4  A    between atoms: C_11  and  C_12
REMARK    5  A    between atoms: N_20  and  C_23
REMARK    6  A    between atoms: C_23  and  C_24
REMARK                            x       y       z     vdW  Elec       q    Type
REMARK                         _______ _______ _______ _____ _____    ______ ____
ROOT
ATOM      1  N   UNL     1      34.981 -15.781 -20.745  0.00  0.00    -0.244 NA
ATOM      2  N   UNL     1      34.229 -13.661 -21.608  0.00  0.00    -0.244 NA
ATOM      3  C   UNL     1      35.273 -16.151 -22.009  0.00  0.00    +0.115 C 
ATOM      4  C   UNL     1      34.550 -14.116 -22.821  0.00  0.00    +0.115 C 
ATOM      5  C   UNL     1      35.073 -15.342 -23.110  0.00  0.00    +0.100 C 
ATOM      6  C   UNL     1      34.470 -14.542 -20.619  0.00  0.00    +0.250 C 
ENDROOT
BRANCH   3   9
ATOM      7  O   UNL     1      36.058 -17.944 -23.300  0.00  0.00    -0.269 OA
ATOM      8  N   UNL     1      36.100 -18.203 -20.996  0.00  0.00    -0.296 N 
ATOM      9  C   UNL     1      35.826 -17.485 -22.168  0.00  0.00    +0.260 C 
ATOM     10  H   UNL     1      35.892 -17.781 -20.132  0.00  0.00    +0.150 HD
BRANCH   8  11
ATOM     11  C   UNL     1      36.672 -19.530 -20.988  0.00  0.00    +0.117 C 
BRANCH  11  12
ATOM     12  C   UNL     1      36.022 -20.416 -19.965  0.00  0.00    -0.003 C 
ATOM     13  C   UNL     1      36.757 -20.861 -18.874  0.00  0.00    -0.007 C 
ATOM     14  C   UNL     1      36.152 -21.682 -17.922  0.00  0.00    -0.022 C 
ATOM     15  C   UNL     1      34.689 -20.781 -20.119  0.00  0.00    -0.003 C 
ATOM     16  C   UNL     1      34.816 -22.054 -18.070  0.00  0.00    -0.004 C 
ATOM     17  C   UNL     1      34.084 -21.602 -19.169  0.00  0.00    -0.001 C 
ATOM     18  C   UNL     1      36.935 -22.166 -16.748  0.00  0.00    +0.031 C 
ENDBRANCH  11  12
ENDBRANCH   8  11
ENDBRANCH   3   9
BRANCH   4  21
ATOM     19  O   UNL     1      33.767 -13.566 -24.963  0.00  0.00    -0.269 OA
ATOM     20  N   UNL     1      34.650 -11.841 -23.688  0.00  0.00    -0.296 N 
ATOM     21  C   UNL     1      34.291 -13.160 -23.928  0.00  0.00    +0.260 C 
ATOM     22  H   UNL     1      35.065 -11.613 -22.825  0.00  0.00    +0.150 HD
BRANCH  20  23
ATOM     23  C   UNL     1      34.440 -10.792 -24.654  0.00  0.00    +0.117 C 
BRANCH  23  24
ATOM     24  C   UNL     1      34.427  -9.439 -24.027  0.00  0.00    -0.003 C 
ATOM     25  C   UNL     1      33.331  -9.033 -23.267  0.00  0.00    -0.007 C 
ATOM     26  C   UNL     1      33.318  -7.767 -22.680  0.00  0.00    -0.022 C 
ATOM     27  C   UNL     1      35.512  -8.579 -24.200  0.00  0.00    -0.003 C 
ATOM     28  C   UNL     1      34.403  -6.909 -22.853  0.00  0.00    -0.004 C 
ATOM     29  C   UNL     1      35.500  -7.314 -23.613  0.00  0.00    -0.001 C 
ATOM     30  C   UNL     1      32.145  -7.333 -21.868  0.00  0.00    +0.031 C 
ENDBRANCH  23  24
ENDBRANCH  20  23
ENDBRANCH   4  21
TORSDOF 6
ENDMDL
MODEL 3
REMARK VINA RESULT:     -11.7      2.224     10.438
REMARK  Name = 5289109
REMARK  6 active torsions:
REMARK  status: ('A' for Active; 'I' for Inactive)
REMARK    1  A    between atoms: C_3  and  C_9
REMARK    2  A    between atoms: C_4  and  C_21
REMARK    3  A    between atoms: N_8  and  C_11
REMARK    4  A    between atoms: C_11  and  C_12
REMARK    5  A    between atoms: N_20  and  C_23
REMARK    6  A    between atoms: C_23  and  C_24
REMARK                            x       y       z     vdW  Elec       q    Type
REMARK                         _______ _______ _______ _____ _____    ______ ____
ROOT
ATOM      1  N   UNL     1      35.376 -19.581 -23.250  0.00  0.00    -0.244 NA
ATOM      2  N   UNL     1      34.494 -17.920 -24.756  0.00  0.00    -0.244 NA
ATOM      3  C   UNL     1      35.743 -18.581 -22.422  0.00  0.00    +0.115 C 
ATOM      4  C   UNL     1      34.895 -17.002 -23.874  0.00  0.00    +0.115 C 
ATOM      5  C   UNL     1      35.524 -17.244 -22.689  0.00  0.00    +0.100 C 
ATOM      6  C   UNL     1      34.764 -19.185 -24.382  0.00  0.00    +0.250 C 
ENDROOT
BRANCH   3   9
ATOM      7  O   UNL     1      37.261 -18.255 -20.664  0.00  0.00    -0.269 OA
ATOM      8  N   UNL     1      36.015 -20.211 -20.636  0.00  0.00    -0.296 N 
ATOM      9  C   UNL     1      36.405 -18.986 -21.193  0.00  0.00    +0.260 C 
ATOM     10  H   UNL     1      35.332 -20.741 -21.106  0.00  0.00    +0.150 HD
BRANCH   8  11
ATOM     11  C   UNL     1      36.562 -20.740 -19.407  0.00  0.00    +0.117 C 
BRANCH  11  12
ATOM     12  C   UNL     1      35.533 -21.486 -18.609  0.00  0.00    -0.003 C 
ATOM     13  C   UNL     1      35.872 -22.010 -17.368  0.00  0.00    -0.007 C 
ATOM     14  C   UNL     1      34.915 -22.701 -16.625  0.00  0.00    -0.022 C 
ATOM     15  C   UNL     1      34.249 -21.644 -19.119  0.00  0.00    -0.003 C 
ATOM     16  C   UNL     1      33.625 -22.865 -17.130  0.00  0.00    -0.004 C 
ATOM     17  C   UNL     1      33.292 -22.336 -18.377  0.00  0.00    -0.001 C 
ATOM     18  C   UNL     1      35.271 -23.269 -15.292  0.00  0.00    +0.031 C 
ENDBRANCH  11  12
ENDBRANCH   8  11
ENDBRANCH   3   9
BRANCH   4  21
ATOM     19  O   UNL     1      34.198 -15.367 -25.404  0.00  0.00    -0.269 OA
ATOM     20  N   UNL     1      34.804 -14.639 -23.286  0.00  0.00    -0.296 N 
ATOM     21  C   UNL     1      34.606 -15.600 -24.268  0.00  0.00    +0.260 C 
ATOM     22  H   UNL     1      35.135 -14.925 -22.404  0.00  0.00    +0.150 HD
BRANCH  20  23
ATOM     23  C   UNL     1      34.545 -13.239 -23.507  0.00  0.00    +0.117 C 
BRANCH  23  24
ATOM     24  C   UNL     1      33.575 -12.680 -22.522  0.00  0.00    -0.003 C 
ATOM     25  C   UNL     1      33.030 -11.412 -22.723  0.00  0.00    -0.007 C 
ATOM     26  C   UNL     1      32.122 -10.888 -21.801  0.00  0.00    -0.022 C 
ATOM     27  C   UNL     1      33.212 -13.424 -21.400  0.00  0.00    -0.003 C 
ATOM     28  C   UNL     1      31.759 -11.634 -20.680  0.00  0.00    -0.004 C 
ATOM     29  C   UNL     1      32.304 -12.902 -20.479  0.00  0.00    -0.001 C 
ATOM     30  C   UNL     1      31.540  -9.532 -22.015  0.00  0.00    +0.031 C 
ENDBRANCH  23  24
ENDBRANCH  20  23
ENDBRANCH   4  21
TORSDOF 6
ENDMDL
MODEL 4
REMARK VINA RESULT:     -11.6      2.306     10.217
REMARK  Name = 5289109
REMARK  6 active torsions:
REMARK  status: ('A' for Active; 'I' for Inactive)
REMARK    1  A    between atoms: C_3  and  C_9
REMARK    2  A    between atoms: C_4  and  C_21
REMARK    3  A    between atoms: N_8  and  C_11
REMARK    4  A    between atoms: C_11  and  C_12
REMARK    5  A    between atoms: N_20  and  C_23
REMARK    6  A    between atoms: C_23  and  C_24
REMARK                            x       y       z     vdW  Elec       q    Type
REMARK                         _______ _______ _______ _____ _____    ______ ____
ROOT
ATOM      1  N   UNL     1      34.312 -14.845 -25.172  0.00  0.00    -0.244 NA
ATOM      2  N   UNL     1      33.234 -13.012 -24.039  0.00  0.00    -0.244 NA
ATOM      3  C   UNL     1      34.533 -15.410 -23.966  0.00  0.00    +0.115 C 
ATOM      4  C   UNL     1      33.498 -13.648 -22.896  0.00  0.00    +0.115 C 
ATOM      5  C   UNL     1      34.141 -14.844 -22.770  0.00  0.00    +0.100 C 
ATOM      6  C   UNL     1      33.666 -13.664 -25.135  0.00  0.00    +0.250 C 
ENDROOT
BRANCH   3   9
ATOM      7  O   UNL     1      35.195 -17.411 -24.993  0.00  0.00    -0.269 OA
ATOM      8  N   UNL     1      35.943 -17.036 -22.831  0.00  0.00    -0.296 N 
ATOM      9  C   UNL     1      35.228 -16.686 -23.983  0.00  0.00    +0.260 C 
ATOM     10  H   UNL     1      35.927 -16.416 -22.066  0.00  0.00    +0.150 HD
BRANCH   8  11
ATOM     11  C   UNL     1      36.704 -18.258 -22.702  0.00  0.00    +0.117 C 
BRANCH  11  12
ATOM     12  C   UNL     1      36.169 -19.141 -21.612  0.00  0.00    -0.003 C 
ATOM     13  C   UNL     1      34.797 -19.319 -21.483  0.00  0.00    -0.007 C 
ATOM     14  C   UNL     1      34.301 -20.141 -20.471  0.00  0.00    -0.022 C 
ATOM     15  C   UNL     1      37.052 -19.773 -20.743  0.00  0.00    -0.003 C 
ATOM     16  C   UNL     1      35.179 -20.778 -19.595  0.00  0.00    -0.004 C 
ATOM     17  C   UNL     1      36.556 -20.594 -19.732  0.00  0.00    -0.001 C 
ATOM     18  C   UNL     1      32.829 -20.337 -20.323  0.00  0.00    +0.031 C 
ENDBRANCH  11  12
ENDBRANCH   8  11
ENDBRANCH   3   9
BRANCH   4  21
ATOM     19  O   UNL     1      33.556 -13.201 -20.595  0.00  0.00    -0.269 OA
ATOM     20  N   UNL     1      32.021 -12.009 -21.861  0.00  0.00    -0.296 N 
ATOM     21  C   UNL     1      33.030 -12.944 -21.675  0.00  0.00    +0.260 C 
ATOM     22  H   UNL     1      31.663 -11.874 -22.768  0.00  0.00    +0.150 HD
BRANCH  20  23
ATOM     23  C   UNL     1      31.479 -11.228 -20.778  0.00  0.00    +0.117 C 
BRANCH  23  24
ATOM     24  C   UNL     1      31.718  -9.766 -20.959  0.00  0.00    -0.003 C 
ATOM     25  C   UNL     1      31.554  -9.184 -22.215  0.00  0.00    -0.007 C 
ATOM     26  C   UNL     1      31.777  -7.816 -22.385  0.00  0.00    -0.022 C 
ATOM     27  C   UNL     1      32.105  -8.983 -19.872  0.00  0.00    -0.003 C 
ATOM     28  C   UNL     1      32.164  -7.034 -21.297  0.00  0.00    -0.004 C 
ATOM     29  C   UNL     1      32.328  -7.616 -20.040  0.00  0.00    -0.001 C 
ATOM     30  C   UNL     1      31.603  -7.193 -23.728  0.00  0.00    +0.031 C 
ENDBRANCH  23  24
ENDBRANCH  20  23
ENDBRANCH   4  21
TORSDOF 6
ENDMDL
MODEL 5
REMARK VINA RESULT:     -11.5      2.107     10.890
REMARK  Name = 5289109
REMARK  6 active torsions:
REMARK  status: ('A' for Active; 'I' for Inactive)
REMARK    1  A    between atoms: C_3  and  C_9
REMARK    2  A    between atoms: C_4  and  C_21
REMARK    3  A    between atoms: N_8  and  C_11
REMARK    4  A    between atoms: C_11  and  C_12
REMARK    5  A    between atoms: N_20  and  C_23
REMARK    6  A    between atoms: C_23  and  C_24
REMARK                            x       y       z     vdW  Elec       q    Type
REMARK                         _______ _______ _______ _____ _____    ______ ____
ROOT
ATOM      1  N   UNL     1      33.083 -13.754 -22.849  0.00  0.00    -0.244 NA
ATOM      2  N   UNL     1      33.389 -11.365 -22.908  0.00  0.00    -0.244 NA
ATOM      3  C   UNL     1      33.937 -13.851 -23.890  0.00  0.00    +0.115 C 
ATOM      4  C   UNL     1      34.220 -11.562 -23.933  0.00  0.00    +0.115 C 
ATOM      5  C   UNL     1      34.547 -12.765 -24.485  0.00  0.00    +0.100 C 
ATOM      6  C   UNL     1      32.858 -12.499 -22.415  0.00  0.00    +0.250 C 
ENDROOT
BRANCH   3   9
ATOM      7  O   UNL     1      33.793 -15.552 -25.497  0.00  0.00    -0.269 OA
ATOM      8  N   UNL     1      34.926 -16.046 -23.534  0.00  0.00    -0.296 N 
ATOM      9  C   UNL     1      34.195 -15.196 -24.374  0.00  0.00    +0.260 C 
ATOM     10  H   UNL     1      35.213 -15.701 -22.658  0.00  0.00    +0.150 HD
BRANCH   8  11
ATOM     11  C   UNL     1      35.282 -17.402 -23.883  0.00  0.00    +0.117 C 
BRANCH  11  12
ATOM     12  C   UNL     1      35.633 -18.220 -22.674  0.00  0.00    -0.003 C 
ATOM     13  C   UNL     1      34.642 -18.941 -22.021  0.00  0.00    -0.007 C 
ATOM     14  C   UNL     1      34.968 -19.703 -20.899  0.00  0.00    -0.022 C 
ATOM     15  C   UNL     1      36.947 -18.248 -22.220  0.00  0.00    -0.003 C 
ATOM     16  C   UNL     1      36.284 -19.736 -20.436  0.00  0.00    -0.004 C 
ATOM     17  C   UNL     1      37.273 -19.009 -21.098  0.00  0.00    -0.001 C 
ATOM     18  C   UNL     1      33.910 -20.480 -20.190  0.00  0.00    +0.031 C 
ENDBRANCH  11  12
ENDBRANCH   8  11
ENDBRANCH   3   9
BRANCH   4  21
ATOM     19  O   UNL     1      35.273 -10.336 -25.633  0.00  0.00    -0.269 OA
ATOM     20  N   UNL     1      34.787  -9.207 -23.666  0.00  0.00    -0.296 N 
ATOM     21  C   UNL     1      34.816 -10.322 -24.492  0.00  0.00    +0.260 C 
ATOM     22  H   UNL     1      34.399  -9.295 -22.766  0.00  0.00    +0.150 HD
BRANCH  20  23
ATOM     23  C   UNL     1      35.304  -7.925 -24.075  0.00  0.00    +0.117 C 
BRANCH  23  24
ATOM     24  C   UNL     1      34.432  -6.797 -23.637  0.00  0.00    -0.003 C 
ATOM     25  C   UNL     1      33.782  -6.856 -22.405  0.00  0.00    -0.007 C 
ATOM     26  C   UNL     1      32.966  -5.801 -21.994  0.00  0.00    -0.022 C 
ATOM     27  C   UNL     1      34.266  -5.683 -24.460  0.00  0.00    -0.003 C 
ATOM     28  C   UNL     1      32.802  -4.687 -22.817  0.00  0.00    -0.004 C 
ATOM     29  C   UNL     1      33.451  -4.628 -24.050  0.00  0.00    -0.001 C 
ATOM     30  C   UNL     1      32.271  -5.864 -20.676  0.00  0.00    +0.031 C 
ENDBRANCH  23  24
ENDBRANCH  20  23
ENDBRANCH   4  21
TORSDOF 6
ENDMDL
MODEL 6
REMARK VINA RESULT:     -11.5      2.134      3.399
REMARK  Name = 5289109
REMARK  6 active torsions:
REMARK  status: ('A' for Active; 'I' for Inactive)
REMARK    1  A    between atoms: C_3  and  C_9
REMARK    2  A    between atoms: C_4  and  C_21
REMARK    3  A    between atoms: N_8  and  C_11
REMARK    4  A    between atoms: C_11  and  C_12
REMARK    5  A    between atoms: N_20  and  C_23
REMARK    6  A    between atoms: C_23  and  C_24
REMARK                            x       y       z     vdW  Elec       q    Type
REMARK                         _______ _______ _______ _____ _____    ______ ____
ROOT
ATOM      1  N   UNL     1      33.391 -11.347 -22.917  0.00  0.00    -0.244 NA
ATOM      2  N   UNL     1      33.080 -13.735 -22.869  0.00  0.00    -0.244 NA
ATOM      3  C   UNL     1      34.232 -11.515 -23.960  0.00  0.00    +0.115 C 
ATOM      4  C   UNL     1      33.924 -13.800 -23.901  0.00  0.00    +0.115 C 
ATOM      5  C   UNL     1      34.542 -12.745 -24.504  0.00  0.00    +0.100 C 
ATOM      6  C   UNL     1      32.859 -12.483 -22.429  0.00  0.00    +0.250 C 
ENDROOT
BRANCH   3   9
ATOM      7  O   UNL     1      35.292 -10.286 -25.653  0.00  0.00    -0.269 OA
ATOM      8  N   UNL     1      34.798  -9.164 -23.684  0.00  0.00    -0.296 N 
ATOM      9  C   UNL     1      34.818 -10.301 -24.503  0.00  0.00    +0.260 C 
ATOM     10  H   UNL     1      34.408  -9.245 -22.784  0.00  0.00    +0.150 HD
BRANCH   8  11
ATOM     11  C   UNL     1      35.320  -7.879 -24.089  0.00  0.00    +0.117 C 
BRANCH  11  12
ATOM     12  C   UNL     1      34.434  -6.749 -23.651  0.00  0.00    -0.003 C 
ATOM     13  C   UNL     1      33.809  -6.807 -22.411  0.00  0.00    -0.007 C 
ATOM     14  C   UNL     1      32.988  -5.757 -22.002  0.00  0.00    -0.022 C 
ATOM     15  C   UNL     1      34.247  -5.655 -24.489  0.00  0.00    -0.003 C 
ATOM     16  C   UNL     1      32.795  -4.656 -22.837  0.00  0.00    -0.004 C 
ATOM     17  C   UNL     1      33.426  -4.605 -24.080  0.00  0.00    -0.001 C 
ATOM     18  C   UNL     1      32.312  -5.811 -20.673  0.00  0.00    +0.031 C 
ENDBRANCH  11  12
ENDBRANCH   8  11
ENDBRANCH   3   9
BRANCH   4  21
ATOM     19  O   UNL     1      33.767 -15.496 -25.513  0.00  0.00    -0.269 OA
ATOM     20  N   UNL     1      34.915 -16.001 -23.561  0.00  0.00    -0.296 N 
ATOM     21  C   UNL     1      34.183 -15.174 -24.402  0.00  0.00    +0.260 C 
ATOM     22  H   UNL     1      35.204 -15.650 -22.688  0.00  0.00    +0.150 HD
BRANCH  20  23
ATOM     23  C   UNL     1      35.268 -17.352 -23.917  0.00  0.00    +0.117 C 
BRANCH  23  24
ATOM     24  C   UNL     1      35.603 -18.182 -22.724  0.00  0.00    -0.003 C 
ATOM     25  C   UNL     1      34.603 -18.905 -22.075  0.00  0.00    -0.007 C 
ATOM     26  C   UNL     1      34.916 -19.683 -20.959  0.00  0.00    -0.022 C 
ATOM     27  C   UNL     1      36.916 -18.236 -22.258  0.00  0.00    -0.003 C 
ATOM     28  C   UNL     1      36.229 -19.737 -20.494  0.00  0.00    -0.004 C 
ATOM     29  C   UNL     1      37.230 -19.014 -21.143  0.00  0.00    -0.001 C 
ATOM     30  C   UNL     1      33.846 -20.456 -20.264  0.00  0.00    +0.031 C 
ENDBRANCH  23  24
ENDBRANCH  20  23
ENDBRANCH   4  21
TORSDOF 6
ENDMDL
MODEL 7
REMARK VINA RESULT:     -11.3      1.881     10.148
REMARK  Name = 5289109
REMARK  6 active torsions:
REMARK  status: ('A' for Active; 'I' for Inactive)
REMARK    1  A    between atoms: C_3  and  C_9
REMARK    2  A    between atoms: C_4  and  C_21
REMARK    3  A    between atoms: N_8  and  C_11
REMARK    4  A    between atoms: C_11  and  C_12
REMARK    5  A    between atoms: N_20  and  C_23
REMARK    6  A    between atoms: C_23  and  C_24
REMARK                            x       y       z     vdW  Elec       q    Type
REMARK                         _______ _______ _______ _____ _____    ______ ____
ROOT
ATOM      1  N   UNL     1      34.625 -17.904 -23.925  0.00  0.00    -0.244 NA
ATOM      2  N   UNL     1      33.800 -16.183 -25.396  0.00  0.00    -0.244 NA
ATOM      3  C   UNL     1      35.066 -16.934 -23.098  0.00  0.00    +0.115 C 
ATOM      4  C   UNL     1      34.271 -15.297 -24.516  0.00  0.00    +0.115 C 
ATOM      5  C   UNL     1      34.914 -15.585 -23.348  0.00  0.00    +0.100 C 
ATOM      6  C   UNL     1      34.010 -17.464 -25.039  0.00  0.00    +0.250 C 
ENDROOT
BRANCH   3   9
ATOM      7  O   UNL     1      35.567 -16.787 -20.812  0.00  0.00    -0.269 OA
ATOM      8  N   UNL     1      36.537 -18.529 -21.996  0.00  0.00    -0.296 N 
ATOM      9  C   UNL     1      35.732 -17.387 -21.889  0.00  0.00    +0.260 C 
ATOM     10  H   UNL     1      36.625 -18.955 -22.879  0.00  0.00    +0.150 HD
BRANCH   8  11
ATOM     11  C   UNL     1      37.245 -19.115 -20.881  0.00  0.00    +0.117 C 
BRANCH  11  12
ATOM     12  C   UNL     1      36.381 -20.065 -20.103  0.00  0.00    -0.003 C 
ATOM     13  C   UNL     1      35.016 -20.118 -20.358  0.00  0.00    -0.007 C 
ATOM     14  C   UNL     1      34.213 -21.002 -19.637  0.00  0.00    -0.022 C 
ATOM     15  C   UNL     1      36.955 -20.881 -19.135  0.00  0.00    -0.003 C 
ATOM     16  C   UNL     1      34.781 -21.825 -18.664  0.00  0.00    -0.004 C 
ATOM     17  C   UNL     1      36.152 -21.764 -18.414  0.00  0.00    -0.001 C 
ATOM     18  C   UNL     1      32.747 -21.065 -19.903  0.00  0.00    +0.031 C 
ENDBRANCH  11  12
ENDBRANCH   8  11
ENDBRANCH   3   9
BRANCH   4  21
ATOM     19  O   UNL     1      33.623 -13.611 -26.012  0.00  0.00    -0.269 OA
ATOM     20  N   UNL     1      34.331 -12.938 -23.908  0.00  0.00    -0.296 N 
ATOM     21  C   UNL     1      34.051 -13.877 -24.891  0.00  0.00    +0.260 C 
ATOM     22  H   UNL     1      34.671 -13.250 -23.038  0.00  0.00    +0.150 HD
BRANCH  20  23
ATOM     23  C   UNL     1      34.144 -11.523 -24.111  0.00  0.00    +0.117 C 
BRANCH  23  24
ATOM     24  C   UNL     1      33.203 -10.928 -23.118  0.00  0.00    -0.003 C 
ATOM     25  C   UNL     1      32.912  -9.565 -23.166  0.00  0.00    -0.007 C 
ATOM     26  C   UNL     1      32.031  -9.007 -22.237  0.00  0.00    -0.022 C 
ATOM     27  C   UNL     1      32.615 -11.733 -22.144  0.00  0.00    -0.003 C 
ATOM     28  C   UNL     1      31.443  -9.814 -21.264  0.00  0.00    -0.004 C 
ATOM     29  C   UNL     1      31.734 -11.177 -21.216  0.00  0.00    -0.001 C 
ATOM     30  C   UNL     1      31.719  -7.550 -22.287  0.00  0.00    +0.031 C 
ENDBRANCH  23  24
ENDBRANCH  20  23
ENDBRANCH   4  21
TORSDOF 6
ENDMDL
MODEL 8
REMARK VINA RESULT:     -11.3      7.668     11.181
REMARK  Name = 5289109
REMARK  6 active torsions:
REMARK  status: ('A' for Active; 'I' for Inactive)
REMARK    1  A    between atoms: C_3  and  C_9
REMARK    2  A    between atoms: C_4  and  C_21
REMARK    3  A    between atoms: N_8  and  C_11
REMARK    4  A    between atoms: C_11  and  C_12
REMARK    5  A    between atoms: N_20  and  C_23
REMARK    6  A    between atoms: C_23  and  C_24
REMARK                            x       y       z     vdW  Elec       q    Type
REMARK                         _______ _______ _______ _____ _____    ______ ____
ROOT
ATOM      1  N   UNL     1      30.569 -23.335 -14.586  0.00  0.00    -0.244 NA
ATOM      2  N   UNL     1      32.006 -24.022 -12.778  0.00  0.00    -0.244 NA
ATOM      3  C   UNL     1      31.674 -23.012 -15.291  0.00  0.00    +0.115 C 
ATOM      4  C   UNL     1      33.036 -23.673 -13.551  0.00  0.00    +0.115 C 
ATOM      5  C   UNL     1      32.960 -23.162 -14.813  0.00  0.00    +0.100 C 
ATOM      6  C   UNL     1      30.806 -23.828 -13.356  0.00  0.00    +0.250 C 
ENDROOT
BRANCH   3   9
ATOM      7  O   UNL     1      30.290 -22.198 -17.000  0.00  0.00    -0.269 OA
ATOM      8  N   UNL     1      32.567 -22.278 -17.433  0.00  0.00    -0.296 N 
ATOM      9  C   UNL     1      31.442 -22.478 -16.622  0.00  0.00    +0.260 C 
ATOM     10  H   UNL     1      33.450 -22.522 -17.072  0.00  0.00    +0.150 HD
BRANCH   8  11
ATOM     11  C   UNL     1      32.503 -21.734 -18.770  0.00  0.00    +0.117 C 
BRANCH  11  12
ATOM     12  C   UNL     1      33.846 -21.270 -19.253  0.00  0.00    -0.003 C 
ATOM     13  C   UNL     1      33.923 -20.309 -20.253  0.00  0.00    -0.007 C 
ATOM     14  C   UNL     1      35.171 -19.876 -20.701  0.00  0.00    -0.022 C 
ATOM     15  C   UNL     1      35.001 -21.806 -18.694  0.00  0.00    -0.003 C 
ATOM     16  C   UNL     1      36.335 -20.409 -20.146  0.00  0.00    -0.004 C 
ATOM     17  C   UNL     1      36.249 -21.374 -19.141  0.00  0.00    -0.001 C 
ATOM     18  C   UNL     1      35.263 -18.845 -21.775  0.00  0.00    +0.031 C 
ENDBRANCH  11  12
ENDBRANCH   8  11
ENDBRANCH   3   9
BRANCH   4  21
ATOM     19  O   UNL     1      34.454 -24.515 -11.884  0.00  0.00    -0.269 OA
ATOM     20  N   UNL     1      35.450 -23.340 -13.619  0.00  0.00    -0.296 N 
ATOM     21  C   UNL     1      34.370 -23.879 -12.932  0.00  0.00    +0.260 C 
ATOM     22  H   UNL     1      35.280 -22.845 -14.453  0.00  0.00    +0.150 HD
BRANCH  20  23
ATOM     23  C   UNL     1      36.808 -23.477 -13.159  0.00  0.00    +0.117 C 
BRANCH  23  24
ATOM     24  C   UNL     1      37.509 -24.629 -13.797  0.00  0.00    -0.003 C 
ATOM     25  C   UNL     1      38.870 -24.830 -13.567  0.00  0.00    -0.007 C 
ATOM     26  C   UNL     1      39.527 -25.908 -14.164  0.00  0.00    -0.022 C 
ATOM     27  C   UNL     1      36.805 -25.503 -14.624  0.00  0.00    -0.003 C 
ATOM     28  C   UNL     1      38.821 -26.782 -14.990  0.00  0.00    -0.004 C 
ATOM     29  C   UNL     1      37.460 -26.580 -15.221  0.00  0.00    -0.001 C 
ATOM     30  C   UNL     1      40.981 -26.124 -13.919  0.00  0.00    +0.031 C 
ENDBRANCH  23  24
ENDBRANCH  20  23
ENDBRANCH   4  21
TORSDOF 6
ENDMDL
MODEL 9
REMARK VINA RESULT:     -11.3      7.694     13.672
REMARK  Name = 5289109
REMARK  6 active torsions:
REMARK  status: ('A' for Active; 'I' for Inactive)
REMARK    1  A    between atoms: C_3  and  C_9
REMARK    2  A    between atoms: C_4  and  C_21
REMARK    3  A    between atoms: N_8  and  C_11
REMARK    4  A    between atoms: C_11  and  C_12
REMARK    5  A    between atoms: N_20  and  C_23
REMARK    6  A    between atoms: C_23  and  C_24
REMARK                            x       y       z     vdW  Elec       q    Type
REMARK                         _______ _______ _______ _____ _____    ______ ____
ROOT
ATOM      1  N   UNL     1      32.003 -24.131 -12.810  0.00  0.00    -0.244 NA
ATOM      2  N   UNL     1      30.553 -23.437 -14.605  0.00  0.00    -0.244 NA
ATOM      3  C   UNL     1      33.056 -23.739 -13.559  0.00  0.00    +0.115 C 
ATOM      4  C   UNL     1      31.655 -23.080 -15.269  0.00  0.00    +0.115 C 
ATOM      5  C   UNL     1      32.938 -23.196 -14.823  0.00  0.00    +0.100 C 
ATOM      6  C   UNL     1      30.799 -23.953 -13.386  0.00  0.00    +0.250 C 
ENDROOT
BRANCH   3   9
ATOM      7  O   UNL     1      34.492 -24.576 -11.905  0.00  0.00    -0.269 OA
ATOM      8  N   UNL     1      35.457 -23.354 -13.623  0.00  0.00    -0.296 N 
ATOM      9  C   UNL     1      34.365 -23.923 -12.956  0.00  0.00    +0.260 C 
ATOM     10  H   UNL     1      35.287 -22.848 -14.450  0.00  0.00    +0.150 HD
BRANCH   8  11
ATOM     11  C   UNL     1      36.823 -23.468 -13.163  0.00  0.00    +0.117 C 
BRANCH  11  12
ATOM     12  C   UNL     1      37.534 -24.628 -13.798  0.00  0.00    -0.003 C 
ATOM     13  C   UNL     1      38.890 -24.816 -13.560  0.00  0.00    -0.007 C 
ATOM     14  C   UNL     1      39.550 -25.895 -14.148  0.00  0.00    -0.022 C 
ATOM     15  C   UNL     1      36.829 -25.502 -14.618  0.00  0.00    -0.003 C 
ATOM     16  C   UNL     1      38.851 -26.776 -14.973  0.00  0.00    -0.004 C 
ATOM     17  C   UNL     1      37.489 -26.579 -15.207  0.00  0.00    -0.001 C 
ATOM     18  C   UNL     1      41.006 -26.105 -13.899  0.00  0.00    +0.031 C 
ENDBRANCH  11  12
ENDBRANCH   8  11
ENDBRANCH   3   9
BRANCH   4  21
ATOM     19  O   UNL     1      30.253 -22.248 -16.955  0.00  0.00    -0.269 OA
ATOM     20  N   UNL     1      32.529 -22.285 -17.400  0.00  0.00    -0.296 N 
ATOM     21  C   UNL     1      31.405 -22.508 -16.617  0.00  0.00    +0.260 C 
ATOM     22  H   UNL     1      33.413 -22.528 -17.040  0.00  0.00    +0.150 HD
BRANCH  20  23
ATOM     23  C   UNL     1      32.453 -21.713 -18.721  0.00  0.00    +0.117 C 
BRANCH  23  24
ATOM     24  C   UNL     1      33.784 -21.265 -19.222  0.00  0.00    -0.003 C 
ATOM     25  C   UNL     1      33.862 -20.316 -20.241  0.00  0.00    -0.007 C 
ATOM     26  C   UNL     1      35.108 -19.895 -20.710  0.00  0.00    -0.022 C 
ATOM     27  C   UNL     1      34.952 -21.794 -18.672  0.00  0.00    -0.003 C 
ATOM     28  C   UNL     1      36.274 -20.425 -20.159  0.00  0.00    -0.004 C 
ATOM     29  C   UNL     1      36.197 -21.374 -19.140  0.00  0.00    -0.001 C 
ATOM     30  C   UNL     1      35.191 -18.881 -21.800  0.00  0.00    +0.031 C 
ENDBRANCH  23  24
ENDBRANCH  20  23
ENDBRANCH   4  21
TORSDOF 6
ENDMDL
