MODEL 1
REMARK VINA RESULT:     -12.1      0.000      0.000
REMARK  Name = 107971
REMARK  9 active torsions:
REMARK  status: ('A' for Active; 'I' for Inactive)
REMARK    1  A    between atoms: C_3  and  O_20
REMARK    2  A    between atoms: C_10  and  C_12
REMARK    3  A    between atoms: C_17  and  O_18
REMARK    4  A    between atoms: O_20  and  C_26
REMARK    5  A    between atoms: C_22  and  O_27
REMARK    6  A    between atoms: C_23  and  O_29
REMARK    7  A    between atoms: C_24  and  O_31
REMARK    8  A    between atoms: C_25  and  C_33
REMARK    9  A    between atoms: C_33  and  O_34
REMARK                            x       y       z     vdW  Elec       q    Type
REMARK                         _______ _______ _______ _____ _____    ______ ____
ROOT
ATOM      1  O   UNL     1      36.319 -21.224 -19.038  0.00  0.00    -0.450 OA
ATOM      2  O   UNL     1      32.767 -20.059 -20.672  0.00  0.00    -0.286 OA
ATOM      3  C   UNL     1      34.046 -23.070 -16.870  0.00  0.00    +0.144 C 
ATOM      4  C   UNL     1      35.215 -22.566 -17.439  0.00  0.00    +0.075 C 
ATOM      5  C   UNL     1      32.801 -22.697 -17.380  0.00  0.00    +0.037 C 
ATOM      6  C   UNL     1      35.137 -21.687 -18.520  0.00  0.00    +0.151 C 
ATOM      7  C   UNL     1      33.893 -21.314 -19.030  0.00  0.00    +0.074 C 
ATOM      8  C   UNL     1      32.721 -21.818 -18.461  0.00  0.00    +0.009 C 
ATOM      9  C   UNL     1      33.836 -20.388 -20.175  0.00  0.00    +0.202 C 
ATOM     10  C   UNL     1      35.141 -19.894 -20.694  0.00  0.00    +0.077 C 
ATOM     11  C   UNL     1      36.252 -20.345 -20.092  0.00  0.00    +0.183 C 
ENDROOT
BRANCH  10  12
ATOM     12  C   UNL     1      35.225 -18.935 -21.808  0.00  0.00    +0.006 C 
ATOM     13  C   UNL     1      34.980 -19.358 -23.117  0.00  0.00    +0.003 C 
ATOM     14  C   UNL     1      35.549 -17.599 -21.560  0.00  0.00    +0.003 C 
ATOM     15  C   UNL     1      35.059 -18.449 -24.171  0.00  0.00    +0.037 C 
ATOM     16  C   UNL     1      35.629 -16.691 -22.615  0.00  0.00    +0.037 C 
ATOM     17  C   UNL     1      35.384 -17.116 -23.921  0.00  0.00    +0.134 C 
BRANCH  17  18
ATOM     18  O   UNL     1      35.462 -16.229 -24.951  0.00  0.00    -0.506 OA
ATOM     19  H   UNL     1      35.134 -16.465 -25.797  0.00  0.00    +0.292 HD
ENDBRANCH  17  18
ENDBRANCH  10  12
BRANCH   3  20
ATOM     20  O   UNL     1      34.118 -23.927 -15.813  0.00  0.00    -0.450 OA
BRANCH  20  26
ATOM     21  O   UNL     1      36.317 -24.322 -15.143  0.00  0.00    -0.316 OA
ATOM     22  C   UNL     1      35.628 -23.974 -12.376  0.00  0.00    +0.173 C 
ATOM     23  C   UNL     1      36.960 -24.578 -12.819  0.00  0.00    +0.169 C 
ATOM     24  C   UNL     1      34.569 -24.107 -13.471  0.00  0.00    +0.210 C 
ATOM     25  C   UNL     1      37.360 -24.057 -14.202  0.00  0.00    +0.177 C 
ATOM     26  C   UNL     1      35.107 -23.641 -14.824  0.00  0.00    +0.318 C 
BRANCH  22  27
ATOM     27  O   UNL     1      35.193 -24.671 -11.207  0.00  0.00    -0.379 OA
ATOM     28  H   UNL     1      34.512 -24.150 -10.754  0.00  0.00    +0.211 HD
ENDBRANCH  22  27
BRANCH  23  29
ATOM     29  O   UNL     1      37.971 -24.232 -11.876  0.00  0.00    -0.379 OA
ATOM     30  H   UNL     1      37.810 -23.336 -11.543  0.00  0.00    +0.211 HD
ENDBRANCH  23  29
BRANCH  24  31
ATOM     31  O   UNL     1      33.439 -23.301 -13.137  0.00  0.00    -0.377 OA
ATOM     32  H   UNL     1      32.718 -23.483 -13.759  0.00  0.00    +0.211 HD
ENDBRANCH  24  31
BRANCH  25  33
ATOM     33  C   UNL     1      38.627 -24.734 -14.716  0.00  0.00    +0.169 C 
BRANCH  33  34
ATOM     34  O   UNL     1      39.353 -23.799 -15.493  0.00  0.00    -0.379 OA
ATOM     35  H   UNL     1      40.109 -23.472 -14.981  0.00  0.00    +0.211 HD
ENDBRANCH  33  34
ENDBRANCH  25  33
ENDBRANCH  20  26
ENDBRANCH   3  20
TORSDOF 9
ENDMDL
MODEL 2
REMARK VINA RESULT:     -11.9      1.057      1.980
REMARK  Name = 107971
REMARK  9 active torsions:
REMARK  status: ('A' for Active; 'I' for Inactive)
REMARK    1  A    between atoms: C_3  and  O_20
REMARK    2  A    between atoms: C_10  and  C_12
REMARK    3  A    between atoms: C_17  and  O_18
REMARK    4  A    between atoms: O_20  and  C_26
REMARK    5  A    between atoms: C_22  and  O_27
REMARK    6  A    between atoms: C_23  and  O_29
REMARK    7  A    between atoms: C_24  and  O_31
REMARK    8  A    between atoms: C_25  and  C_33
REMARK    9  A    between atoms: C_33  and  O_34
REMARK                            x       y       z     vdW  Elec       q    Type
REMARK                         _______ _______ _______ _____ _____    ______ ____
ROOT
ATOM      1  O   UNL     1      33.302 -21.194 -19.598  0.00  0.00    -0.450 OA
ATOM      2  O   UNL     1      37.053 -19.679 -20.127  0.00  0.00    -0.286 OA
ATOM      3  C   UNL     1      35.026 -22.955 -16.915  0.00  0.00    +0.144 C 
ATOM      4  C   UNL     1      34.024 -22.512 -17.776  0.00  0.00    +0.075 C 
ATOM      5  C   UNL     1      36.331 -22.479 -17.056  0.00  0.00    +0.037 C 
ATOM      6  C   UNL     1      34.328 -21.593 -18.781  0.00  0.00    +0.151 C 
ATOM      7  C   UNL     1      35.631 -21.118 -18.922  0.00  0.00    +0.074 C 
ATOM      8  C   UNL     1      36.638 -21.560 -18.060  0.00  0.00    +0.009 C 
ATOM      9  C   UNL     1      35.929 -20.143 -19.988  0.00  0.00    +0.202 C 
ATOM     10  C   UNL     1      34.790 -19.752 -20.864  0.00  0.00    +0.077 C 
ATOM     11  C   UNL     1      33.595 -20.301 -20.600  0.00  0.00    +0.183 C 
ENDROOT
BRANCH  10  12
ATOM     12  C   UNL     1      34.958 -18.818 -21.989  0.00  0.00    +0.006 C 
ATOM     13  C   UNL     1      35.386 -17.508 -21.756  0.00  0.00    +0.003 C 
ATOM     14  C   UNL     1      34.691 -19.238 -23.295  0.00  0.00    +0.003 C 
ATOM     15  C   UNL     1      35.545 -16.624 -22.823  0.00  0.00    +0.037 C 
ATOM     16  C   UNL     1      34.849 -18.353 -24.361  0.00  0.00    +0.037 C 
ATOM     17  C   UNL     1      35.276 -17.045 -24.125  0.00  0.00    +0.134 C 
BRANCH  17  18
ATOM     18  O   UNL     1      35.431 -16.182 -25.166  0.00  0.00    -0.506 OA
ATOM     19  H   UNL     1      36.194 -15.640 -25.214  0.00  0.00    +0.292 HD
ENDBRANCH  17  18
ENDBRANCH  10  12
BRANCH   3  20
ATOM     20  O   UNL     1      34.733 -23.854 -15.934  0.00  0.00    -0.450 OA
BRANCH  20  26
ATOM     21  O   UNL     1      36.563 -25.055 -15.126  0.00  0.00    -0.316 OA
ATOM     22  C   UNL     1      35.843 -24.488 -12.404  0.00  0.00    +0.173 C 
ATOM     23  C   UNL     1      36.881 -25.549 -12.774  0.00  0.00    +0.169 C 
ATOM     24  C   UNL     1      34.901 -24.205 -13.573  0.00  0.00    +0.210 C 
ATOM     25  C   UNL     1      37.553 -25.209 -14.107  0.00  0.00    +0.177 C 
ATOM     26  C   UNL     1      35.678 -23.968 -14.869  0.00  0.00    +0.318 C 
BRANCH  22  27
ATOM     27  O   UNL     1      35.089 -24.977 -11.293  0.00  0.00    -0.379 OA
ATOM     28  H   UNL     1      35.080 -24.309 -10.590  0.00  0.00    +0.211 HD
ENDBRANCH  22  27
BRANCH  23  29
ATOM     29  O   UNL     1      37.871 -25.616 -11.751  0.00  0.00    -0.379 OA
ATOM     30  H   UNL     1      37.478 -25.983 -10.944  0.00  0.00    +0.211 HD
ENDBRANCH  23  29
BRANCH  24  31
ATOM     31  O   UNL     1      34.135 -23.034 -13.291  0.00  0.00    -0.377 OA
ATOM     32  H   UNL     1      34.390 -22.326 -13.902  0.00  0.00    +0.211 HD
ENDBRANCH  24  31
BRANCH  25  33
ATOM     33  C   UNL     1      38.508 -26.311 -14.554  0.00  0.00    +0.169 C 
BRANCH  33  34
ATOM     34  O   UNL     1      39.631 -26.311 -13.691  0.00  0.00    -0.379 OA
ATOM     35  H   UNL     1      39.342 -26.508 -12.787  0.00  0.00    +0.211 HD
ENDBRANCH  33  34
ENDBRANCH  25  33
ENDBRANCH  20  26
ENDBRANCH   3  20
TORSDOF 9
ENDMDL
MODEL 3
REMARK VINA RESULT:     -10.9      1.284      1.719
REMARK  Name = 107971
REMARK  9 active torsions:
REMARK  status: ('A' for Active; 'I' for Inactive)
REMARK    1  A    between atoms: C_3  and  O_20
REMARK    2  A    between atoms: C_10  and  C_12
REMARK    3  A    between atoms: C_17  and  O_18
REMARK    4  A    between atoms: O_20  and  C_26
REMARK    5  A    between atoms: C_22  and  O_27
REMARK    6  A    between atoms: C_23  and  O_29
REMARK    7  A    between atoms: C_24  and  O_31
REMARK    8  A    between atoms: C_25  and  C_33
REMARK    9  A    between atoms: C_33  and  O_34
REMARK                            x       y       z     vdW  Elec       q    Type
REMARK                         _______ _______ _______ _____ _____    ______ ____
ROOT
ATOM      1  O   UNL     1      36.597 -20.470 -19.832  0.00  0.00    -0.450 OA
ATOM      2  O   UNL     1      32.862 -19.522 -21.173  0.00  0.00    -0.286 OA
ATOM      3  C   UNL     1      34.642 -22.763 -17.785  0.00  0.00    +0.144 C 
ATOM      4  C   UNL     1      35.722 -22.081 -18.345  0.00  0.00    +0.075 C 
ATOM      5  C   UNL     1      33.341 -22.473 -18.197  0.00  0.00    +0.037 C 
ATOM      6  C   UNL     1      35.498 -21.107 -19.318  0.00  0.00    +0.151 C 
ATOM      7  C   UNL     1      34.197 -20.817 -19.730  0.00  0.00    +0.074 C 
ATOM      8  C   UNL     1      33.114 -21.499 -19.170  0.00  0.00    +0.009 C 
ATOM      9  C   UNL     1      33.985 -19.786 -20.762  0.00  0.00    +0.202 C 
ATOM     10  C   UNL     1      35.204 -19.105 -21.279  0.00  0.00    +0.077 C 
ATOM     11  C   UNL     1      36.385 -19.497 -20.779  0.00  0.00    +0.183 C 
ENDROOT
BRANCH  10  12
ATOM     12  C   UNL     1      35.130 -18.031 -22.284  0.00  0.00    +0.006 C 
ATOM     13  C   UNL     1      34.858 -18.338 -23.620  0.00  0.00    +0.003 C 
ATOM     14  C   UNL     1      35.331 -16.702 -21.905  0.00  0.00    +0.003 C 
ATOM     15  C   UNL     1      34.788 -17.320 -24.570  0.00  0.00    +0.037 C 
ATOM     16  C   UNL     1      35.262 -15.685 -22.856  0.00  0.00    +0.037 C 
ATOM     17  C   UNL     1      34.990 -15.994 -24.189  0.00  0.00    +0.134 C 
BRANCH  17  18
ATOM     18  O   UNL     1      34.922 -15.001 -25.118  0.00  0.00    -0.506 OA
ATOM     19  H   UNL     1      34.199 -14.965 -25.713  0.00  0.00    +0.292 HD
ENDBRANCH  17  18
ENDBRANCH  10  12
BRANCH   3  20
ATOM     20  O   UNL     1      34.857 -23.715 -16.833  0.00  0.00    -0.450 OA
BRANCH  20  26
ATOM     21  O   UNL     1      35.979 -23.469 -14.802  0.00  0.00    -0.316 OA
ATOM     22  C   UNL     1      33.554 -23.869 -13.315  0.00  0.00    +0.173 C 
ATOM     23  C   UNL     1      34.934 -23.907 -12.658  0.00  0.00    +0.169 C 
ATOM     24  C   UNL     1      33.648 -24.148 -14.815  0.00  0.00    +0.210 C 
ATOM     25  C   UNL     1      35.931 -23.045 -13.438  0.00  0.00    +0.177 C 
ATOM     26  C   UNL     1      34.734 -23.297 -15.473  0.00  0.00    +0.318 C 
BRANCH  22  27
ATOM     27  O   UNL     1      32.742 -24.867 -12.696  0.00  0.00    -0.379 OA
ATOM     28  H   UNL     1      32.247 -24.472 -11.961  0.00  0.00    +0.211 HD
ENDBRANCH  22  27
BRANCH  23  29
ATOM     29  O   UNL     1      34.834 -23.419 -11.323  0.00  0.00    -0.379 OA
ATOM     30  H   UNL     1      34.625 -24.154 -10.725  0.00  0.00    +0.211 HD
ENDBRANCH  23  29
BRANCH  24  31
ATOM     31  O   UNL     1      32.400 -23.837 -15.434  0.00  0.00    -0.377 OA
ATOM     32  H   UNL     1      32.137 -22.934 -15.195  0.00  0.00    +0.211 HD
ENDBRANCH  24  31
BRANCH  25  33
ATOM     33  C   UNL     1      37.341 -23.159 -12.869  0.00  0.00    +0.169 C 
BRANCH  33  34
ATOM     34  O   UNL     1      37.416 -24.335 -12.084  0.00  0.00    -0.379 OA
ATOM     35  H   UNL     1      38.326 -24.458 -11.772  0.00  0.00    +0.211 HD
ENDBRANCH  33  34
ENDBRANCH  25  33
ENDBRANCH  20  26
ENDBRANCH   3  20
TORSDOF 9
ENDMDL
MODEL 4
REMARK VINA RESULT:     -10.8      1.665      3.088
REMARK  Name = 107971
REMARK  9 active torsions:
REMARK  status: ('A' for Active; 'I' for Inactive)
REMARK    1  A    between atoms: C_3  and  O_20
REMARK    2  A    between atoms: C_10  and  C_12
REMARK    3  A    between atoms: C_17  and  O_18
REMARK    4  A    between atoms: O_20  and  C_26
REMARK    5  A    between atoms: C_22  and  O_27
REMARK    6  A    between atoms: C_23  and  O_29
REMARK    7  A    between atoms: C_24  and  O_31
REMARK    8  A    between atoms: C_25  and  C_33
REMARK    9  A    between atoms: C_33  and  O_34
REMARK                            x       y       z     vdW  Elec       q    Type
REMARK                         _______ _______ _______ _____ _____    ______ ____
ROOT
ATOM      1  O   UNL     1      36.876 -20.130 -19.656  0.00  0.00    -0.450 OA
ATOM      2  O   UNL     1      33.106 -19.924 -21.202  0.00  0.00    -0.286 OA
ATOM      3  C   UNL     1      35.222 -22.543 -17.485  0.00  0.00    +0.144 C 
ATOM      4  C   UNL     1      36.203 -21.739 -18.065  0.00  0.00    +0.075 C 
ATOM      5  C   UNL     1      33.912 -22.506 -17.965  0.00  0.00    +0.037 C 
ATOM      6  C   UNL     1      35.871 -20.897 -19.126  0.00  0.00    +0.151 C 
ATOM      7  C   UNL     1      34.562 -20.860 -19.606  0.00  0.00    +0.074 C 
ATOM      8  C   UNL     1      33.577 -21.665 -19.026  0.00  0.00    +0.009 C 
ATOM      9  C   UNL     1      34.235 -19.965 -20.731  0.00  0.00    +0.202 C 
ATOM     10  C   UNL     1      35.351 -19.136 -21.264  0.00  0.00    +0.077 C 
ATOM     11  C   UNL     1      36.555 -19.286 -20.691  0.00  0.00    +0.183 C 
ENDROOT
BRANCH  10  12
ATOM     12  C   UNL     1      35.153 -18.174 -22.361  0.00  0.00    +0.006 C 
ATOM     13  C   UNL     1      34.700 -18.614 -23.607  0.00  0.00    +0.003 C 
ATOM     14  C   UNL     1      35.417 -16.817 -22.158  0.00  0.00    +0.003 C 
ATOM     15  C   UNL     1      34.512 -17.702 -24.644  0.00  0.00    +0.037 C 
ATOM     16  C   UNL     1      35.230 -15.905 -23.197  0.00  0.00    +0.037 C 
ATOM     17  C   UNL     1      34.777 -16.347 -24.440  0.00  0.00    +0.134 C 
BRANCH  17  18
ATOM     18  O   UNL     1      34.594 -15.457 -25.454  0.00  0.00    -0.506 OA
ATOM     19  H   UNL     1      33.798 -15.468 -25.947  0.00  0.00    +0.292 HD
ENDBRANCH  17  18
ENDBRANCH  10  12
BRANCH   3  20
ATOM     20  O   UNL     1      35.542 -23.366 -16.446  0.00  0.00    -0.450 OA
BRANCH  20  26
ATOM     21  O   UNL     1      33.367 -22.989 -15.694  0.00  0.00    -0.316 OA
ATOM     22  C   UNL     1      33.790 -24.635 -13.378  0.00  0.00    +0.173 C 
ATOM     23  C   UNL     1      32.584 -23.705 -13.513  0.00  0.00    +0.169 C 
ATOM     24  C   UNL     1      34.938 -24.186 -14.282  0.00  0.00    +0.210 C 
ATOM     25  C   UNL     1      32.229 -23.487 -14.987  0.00  0.00    +0.177 C 
ATOM     26  C   UNL     1      34.451 -23.913 -15.705  0.00  0.00    +0.318 C 
BRANCH  22  27
ATOM     27  O   UNL     1      34.219 -24.606 -12.016  0.00  0.00    -0.379 OA
ATOM     28  H   UNL     1      34.600 -25.466 -11.778  0.00  0.00    +0.211 HD
ENDBRANCH  22  27
BRANCH  23  29
ATOM     29  O   UNL     1      31.467 -24.281 -12.840  0.00  0.00    -0.379 OA
ATOM     30  H   UNL     1      31.686 -24.411 -11.905  0.00  0.00    +0.211 HD
ENDBRANCH  23  29
BRANCH  24  31
ATOM     31  O   UNL     1      35.927 -25.214 -14.337  0.00  0.00    -0.377 OA
ATOM     32  H   UNL     1      36.803 -24.814 -14.451  0.00  0.00    +0.211 HD
ENDBRANCH  24  31
BRANCH  25  33
ATOM     33  C   UNL     1      31.102 -22.472 -15.152  0.00  0.00    +0.169 C 
BRANCH  33  34
ATOM     34  O   UNL     1      30.725 -22.436 -16.516  0.00  0.00    -0.379 OA
ATOM     35  H   UNL     1      31.501 -22.612 -17.070  0.00  0.00    +0.211 HD
ENDBRANCH  33  34
ENDBRANCH  25  33
ENDBRANCH  20  26
ENDBRANCH   3  20
TORSDOF 9
ENDMDL
MODEL 5
REMARK VINA RESULT:     -10.7      1.700     10.055
REMARK  Name = 107971
REMARK  9 active torsions:
REMARK  status: ('A' for Active; 'I' for Inactive)
REMARK    1  A    between atoms: C_3  and  O_20
REMARK    2  A    between atoms: C_10  and  C_12
REMARK    3  A    between atoms: C_17  and  O_18
REMARK    4  A    between atoms: O_20  and  C_26
REMARK    5  A    between atoms: C_22  and  O_27
REMARK    6  A    between atoms: C_23  and  O_29
REMARK    7  A    between atoms: C_24  and  O_31
REMARK    8  A    between atoms: C_25  and  C_33
REMARK    9  A    between atoms: C_33  and  O_34
REMARK                            x       y       z     vdW  Elec       q    Type
REMARK                         _______ _______ _______ _____ _____    ______ ____
ROOT
ATOM      1  O   UNL     1      33.798 -22.627 -17.540  0.00  0.00    -0.450 OA
ATOM      2  O   UNL     1      37.726 -22.236 -16.506  0.00  0.00    -0.286 OA
ATOM      3  C   UNL     1      34.916 -20.504 -20.282  0.00  0.00    +0.144 C 
ATOM      4  C   UNL     1      34.104 -21.279 -19.455  0.00  0.00    +0.075 C 
ATOM      5  C   UNL     1      36.265 -20.326 -19.972  0.00  0.00    +0.037 C 
ATOM      6  C   UNL     1      34.644 -21.876 -18.316  0.00  0.00    +0.151 C 
ATOM      7  C   UNL     1      35.992 -21.698 -18.005  0.00  0.00    +0.074 C 
ATOM      8  C   UNL     1      36.807 -20.922 -18.833  0.00  0.00    +0.009 C 
ATOM      9  C   UNL     1      36.541 -22.342 -16.798  0.00  0.00    +0.202 C 
ATOM     10  C   UNL     1      35.585 -23.132 -15.975  0.00  0.00    +0.077 C 
ATOM     11  C   UNL     1      34.317 -23.205 -16.407  0.00  0.00    +0.183 C 
ENDROOT
BRANCH  10  12
ATOM     12  C   UNL     1      35.994 -23.794 -14.725  0.00  0.00    +0.006 C 
ATOM     13  C   UNL     1      35.855 -23.132 -13.502  0.00  0.00    +0.003 C 
ATOM     14  C   UNL     1      36.523 -25.087 -14.758  0.00  0.00    +0.003 C 
ATOM     15  C   UNL     1      36.243 -23.761 -12.320  0.00  0.00    +0.037 C 
ATOM     16  C   UNL     1      36.911 -25.714 -13.575  0.00  0.00    +0.037 C 
ATOM     17  C   UNL     1      36.772 -25.051 -12.355  0.00  0.00    +0.134 C 
BRANCH  17  18
ATOM     18  O   UNL     1      37.151 -25.664 -11.200  0.00  0.00    -0.506 OA
ATOM     19  H   UNL     1      37.881 -26.250 -11.200  0.00  0.00    +0.292 HD
ENDBRANCH  17  18
ENDBRANCH  10  12
BRANCH   3  20
ATOM     20  O   UNL     1      34.391 -19.917 -21.395  0.00  0.00    -0.450 OA
BRANCH  20  26
ATOM     21  O   UNL     1      34.700 -17.610 -21.245  0.00  0.00    -0.316 OA
ATOM     22  C   UNL     1      35.388 -17.433 -24.027  0.00  0.00    +0.173 C 
ATOM     23  C   UNL     1      35.066 -16.200 -23.183  0.00  0.00    +0.169 C 
ATOM     24  C   UNL     1      34.785 -18.697 -23.415  0.00  0.00    +0.210 C 
ATOM     25  C   UNL     1      35.395 -16.451 -21.709  0.00  0.00    +0.177 C 
ATOM     26  C   UNL     1      35.103 -18.797 -21.923  0.00  0.00    +0.318 C 
BRANCH  22  27
ATOM     27  O   UNL     1      34.841 -17.230 -25.332  0.00  0.00    -0.379 OA
ATOM     28  H   UNL     1      35.281 -16.474 -25.753  0.00  0.00    +0.211 HD
ENDBRANCH  22  27
BRANCH  23  29
ATOM     29  O   UNL     1      35.830 -15.093 -23.654  0.00  0.00    -0.379 OA
ATOM     30  H   UNL     1      35.333 -14.628 -24.345  0.00  0.00    +0.211 HD
ENDBRANCH  23  29
BRANCH  24  31
ATOM     31  O   UNL     1      35.328 -19.845 -24.066  0.00  0.00    -0.377 OA
ATOM     32  H   UNL     1      36.290 -19.860 -23.945  0.00  0.00    +0.211 HD
ENDBRANCH  24  31
BRANCH  25  33
ATOM     33  C   UNL     1      34.974 -15.278 -20.829  0.00  0.00    +0.169 C 
BRANCH  33  34
ATOM     34  O   UNL     1      34.214 -14.377 -21.614  0.00  0.00    -0.379 OA
ATOM     35  H   UNL     1      34.407 -13.467 -21.338  0.00  0.00    +0.211 HD
ENDBRANCH  33  34
ENDBRANCH  25  33
ENDBRANCH  20  26
ENDBRANCH   3  20
TORSDOF 9
ENDMDL
MODEL 6
REMARK VINA RESULT:     -10.1      1.317      2.697
REMARK  Name = 107971
REMARK  9 active torsions:
REMARK  status: ('A' for Active; 'I' for Inactive)
REMARK    1  A    between atoms: C_3  and  O_20
REMARK    2  A    between atoms: C_10  and  C_12
REMARK    3  A    between atoms: C_17  and  O_18
REMARK    4  A    between atoms: O_20  and  C_26
REMARK    5  A    between atoms: C_22  and  O_27
REMARK    6  A    between atoms: C_23  and  O_29
REMARK    7  A    between atoms: C_24  and  O_31
REMARK    8  A    between atoms: C_25  and  C_33
REMARK    9  A    between atoms: C_33  and  O_34
REMARK                            x       y       z     vdW  Elec       q    Type
REMARK                         _______ _______ _______ _____ _____    ______ ____
ROOT
ATOM      1  O   UNL     1      33.192 -21.493 -19.143  0.00  0.00    -0.450 OA
ATOM      2  O   UNL     1      36.983 -20.053 -19.586  0.00  0.00    -0.286 OA
ATOM      3  C   UNL     1      34.794 -23.197 -16.350  0.00  0.00    +0.144 C 
ATOM      4  C   UNL     1      33.828 -22.766 -17.258  0.00  0.00    +0.075 C 
ATOM      5  C   UNL     1      36.110 -22.747 -16.459  0.00  0.00    +0.037 C 
ATOM      6  C   UNL     1      34.182 -21.882 -18.279  0.00  0.00    +0.151 C 
ATOM      7  C   UNL     1      35.498 -21.432 -18.389  0.00  0.00    +0.074 C 
ATOM      8  C   UNL     1      36.467 -21.863 -17.479  0.00  0.00    +0.009 C 
ATOM      9  C   UNL     1      35.848 -20.496 -19.472  0.00  0.00    +0.202 C 
ATOM     10  C   UNL     1      34.747 -20.114 -20.399  0.00  0.00    +0.077 C 
ATOM     11  C   UNL     1      33.534 -20.636 -20.161  0.00  0.00    +0.183 C 
ENDROOT
BRANCH  10  12
ATOM     12  C   UNL     1      34.969 -19.217 -21.546  0.00  0.00    +0.006 C 
ATOM     13  C   UNL     1      35.369 -17.895 -21.335  0.00  0.00    +0.003 C 
ATOM     14  C   UNL     1      34.780 -19.685 -22.848  0.00  0.00    +0.003 C 
ATOM     15  C   UNL     1      35.579 -17.047 -22.421  0.00  0.00    +0.037 C 
ATOM     16  C   UNL     1      34.989 -18.836 -23.934  0.00  0.00    +0.037 C 
ATOM     17  C   UNL     1      35.389 -17.516 -23.721  0.00  0.00    +0.134 C 
BRANCH  17  18
ATOM     18  O   UNL     1      35.594 -16.687 -24.781  0.00  0.00    -0.506 OA
ATOM     19  H   UNL     1      36.302 -16.074 -24.765  0.00  0.00    +0.292 HD
ENDBRANCH  17  18
ENDBRANCH  10  12
BRANCH   3  20
ATOM     20  O   UNL     1      34.452 -24.062 -15.352  0.00  0.00    -0.450 OA
BRANCH  20  26
ATOM     21  O   UNL     1      36.096 -23.325 -13.871  0.00  0.00    -0.316 OA
ATOM     22  C   UNL     1      37.766 -25.584 -14.465  0.00  0.00    +0.173 C 
ATOM     23  C   UNL     1      38.282 -24.361 -13.706  0.00  0.00    +0.169 C 
ATOM     24  C   UNL     1      36.534 -25.239 -15.299  0.00  0.00    +0.210 C 
ATOM     25  C   UNL     1      37.141 -23.666 -12.958  0.00  0.00    +0.177 C 
ATOM     26  C   UNL     1      35.501 -24.470 -14.474  0.00  0.00    +0.318 C 
BRANCH  22  27
ATOM     27  O   UNL     1      38.810 -26.042 -15.326  0.00  0.00    -0.379 OA
ATOM     28  H   UNL     1      39.026 -25.349 -15.970  0.00  0.00    +0.211 HD
ENDBRANCH  22  27
BRANCH  23  29
ATOM     29  O   UNL     1      39.277 -24.771 -12.772  0.00  0.00    -0.379 OA
ATOM     30  H   UNL     1      39.372 -24.094 -12.084  0.00  0.00    +0.211 HD
ENDBRANCH  23  29
BRANCH  24  31
ATOM     31  O   UNL     1      35.926 -26.442 -15.767  0.00  0.00    -0.377 OA
ATOM     32  H   UNL     1      35.265 -26.742 -15.124  0.00  0.00    +0.211 HD
ENDBRANCH  24  31
BRANCH  25  33
ATOM     33  C   UNL     1      37.608 -22.378 -12.288  0.00  0.00    +0.169 C 
BRANCH  33  34
ATOM     34  O   UNL     1      38.473 -22.714 -11.219  0.00  0.00    -0.379 OA
ATOM     35  H   UNL     1      38.163 -22.285 -10.406  0.00  0.00    +0.211 HD
ENDBRANCH  33  34
ENDBRANCH  25  33
ENDBRANCH  20  26
ENDBRANCH   3  20
TORSDOF 9
ENDMDL
MODEL 7
REMARK VINA RESULT:     -10.1      2.320      4.368
REMARK  Name = 107971
REMARK  9 active torsions:
REMARK  status: ('A' for Active; 'I' for Inactive)
REMARK    1  A    between atoms: C_3  and  O_20
REMARK    2  A    between atoms: C_10  and  C_12
REMARK    3  A    between atoms: C_17  and  O_18
REMARK    4  A    between atoms: O_20  and  C_26
REMARK    5  A    between atoms: C_22  and  O_27
REMARK    6  A    between atoms: C_23  and  O_29
REMARK    7  A    between atoms: C_24  and  O_31
REMARK    8  A    between atoms: C_25  and  C_33
REMARK    9  A    between atoms: C_33  and  O_34
REMARK                            x       y       z     vdW  Elec       q    Type
REMARK                         _______ _______ _______ _____ _____    ______ ____
ROOT
ATOM      1  O   UNL     1      32.991 -21.037 -19.428  0.00  0.00    -0.450 OA
ATOM      2  O   UNL     1      36.858 -19.920 -20.095  0.00  0.00    -0.286 OA
ATOM      3  C   UNL     1      34.596 -22.824 -16.689  0.00  0.00    +0.144 C 
ATOM      4  C   UNL     1      33.622 -22.329 -17.555  0.00  0.00    +0.075 C 
ATOM      5  C   UNL     1      35.937 -22.485 -16.875  0.00  0.00    +0.037 C 
ATOM      6  C   UNL     1      33.992 -21.493 -18.609  0.00  0.00    +0.151 C 
ATOM      7  C   UNL     1      35.331 -21.154 -18.795  0.00  0.00    +0.074 C 
ATOM      8  C   UNL     1      36.309 -21.649 -17.928  0.00  0.00    +0.009 C 
ATOM      9  C   UNL     1      35.698 -20.266 -19.914  0.00  0.00    +0.202 C 
ATOM     10  C   UNL     1      34.584 -19.810 -20.790  0.00  0.00    +0.077 C 
ATOM     11  C   UNL     1      33.348 -20.227 -20.479  0.00  0.00    +0.183 C 
ENDROOT
BRANCH  10  12
ATOM     12  C   UNL     1      34.817 -18.952 -21.964  0.00  0.00    +0.006 C 
ATOM     13  C   UNL     1      35.344 -17.668 -21.801  0.00  0.00    +0.003 C 
ATOM     14  C   UNL     1      34.512 -19.419 -23.244  0.00  0.00    +0.003 C 
ATOM     15  C   UNL     1      35.565 -16.857 -22.913  0.00  0.00    +0.037 C 
ATOM     16  C   UNL     1      34.731 -18.606 -24.356  0.00  0.00    +0.037 C 
ATOM     17  C   UNL     1      35.258 -17.324 -24.191  0.00  0.00    +0.134 C 
BRANCH  17  18
ATOM     18  O   UNL     1      35.473 -16.532 -25.276  0.00  0.00    -0.506 OA
ATOM     19  H   UNL     1      36.348 -16.338 -25.548  0.00  0.00    +0.292 HD
ENDBRANCH  17  18
ENDBRANCH  10  12
BRANCH   3  20
ATOM     20  O   UNL     1      34.239 -23.642 -15.659  0.00  0.00    -0.450 OA
BRANCH  20  26
ATOM     21  O   UNL     1      32.029 -22.967 -15.984  0.00  0.00    -0.316 OA
ATOM     22  C   UNL     1      31.079 -24.833 -14.018  0.00  0.00    +0.173 C 
ATOM     23  C   UNL     1      30.204 -23.708 -14.571  0.00  0.00    +0.169 C 
ATOM     24  C   UNL     1      32.564 -24.514 -14.190  0.00  0.00    +0.210 C 
ATOM     25  C   UNL     1      30.645 -23.322 -15.986  0.00  0.00    +0.177 C 
ATOM     26  C   UNL     1      32.872 -24.056 -15.615  0.00  0.00    +0.318 C 
BRANCH  22  27
ATOM     27  O   UNL     1      30.782 -24.980 -12.628  0.00  0.00    -0.379 OA
ATOM     28  H   UNL     1      30.055 -25.612 -12.518  0.00  0.00    +0.211 HD
ENDBRANCH  22  27
BRANCH  23  29
ATOM     29  O   UNL     1      28.846 -24.140 -14.603  0.00  0.00    -0.379 OA
ATOM     30  H   UNL     1      28.563 -24.248 -15.525  0.00  0.00    +0.211 HD
ENDBRANCH  23  29
BRANCH  24  31
ATOM     31  O   UNL     1      33.334 -25.685 -13.920  0.00  0.00    -0.377 OA
ATOM     32  H   UNL     1      32.984 -26.428 -14.436  0.00  0.00    +0.211 HD
ENDBRANCH  24  31
BRANCH  25  33
ATOM     33  C   UNL     1      29.863 -22.124 -16.514  0.00  0.00    +0.169 C 
BRANCH  33  34
ATOM     34  O   UNL     1      28.681 -22.597 -17.135  0.00  0.00    -0.379 OA
ATOM     35  H   UNL     1      28.073 -21.855 -17.279  0.00  0.00    +0.211 HD
ENDBRANCH  33  34
ENDBRANCH  25  33
ENDBRANCH  20  26
ENDBRANCH   3  20
TORSDOF 9
ENDMDL
MODEL 8
REMARK VINA RESULT:      -9.9      5.695     13.223
REMARK  Name = 107971
REMARK  9 active torsions:
REMARK  status: ('A' for Active; 'I' for Inactive)
REMARK    1  A    between atoms: C_3  and  O_20
REMARK    2  A    between atoms: C_10  and  C_12
REMARK    3  A    between atoms: C_17  and  O_18
REMARK    4  A    between atoms: O_20  and  C_26
REMARK    5  A    between atoms: C_22  and  O_27
REMARK    6  A    between atoms: C_23  and  O_29
REMARK    7  A    between atoms: C_24  and  O_31
REMARK    8  A    between atoms: C_25  and  C_33
REMARK    9  A    between atoms: C_33  and  O_34
REMARK                            x       y       z     vdW  Elec       q    Type
REMARK                         _______ _______ _______ _____ _____    ______ ____
ROOT
ATOM      1  O   UNL     1      34.912 -14.313 -21.472  0.00  0.00    -0.450 OA
ATOM      2  O   UNL     1      34.749 -17.434 -24.095  0.00  0.00    -0.286 OA
ATOM      3  C   UNL     1      34.067 -12.482 -24.506  0.00  0.00    +0.144 C 
ATOM      4  C   UNL     1      34.371 -12.771 -23.176  0.00  0.00    +0.075 C 
ATOM      5  C   UNL     1      34.008 -13.508 -25.450  0.00  0.00    +0.037 C 
ATOM      6  C   UNL     1      34.618 -14.089 -22.792  0.00  0.00    +0.151 C 
ATOM      7  C   UNL     1      34.559 -15.115 -23.735  0.00  0.00    +0.074 C 
ATOM      8  C   UNL     1      34.254 -14.828 -25.068  0.00  0.00    +0.009 C 
ATOM      9  C   UNL     1      34.820 -16.501 -23.305  0.00  0.00    +0.202 C 
ATOM     10  C   UNL     1      35.155 -16.697 -21.868  0.00  0.00    +0.077 C 
ATOM     11  C   UNL     1      35.173 -15.606 -21.087  0.00  0.00    +0.183 C 
ENDROOT
BRANCH  10  12
ATOM     12  C   UNL     1      35.473 -18.024 -21.315  0.00  0.00    +0.006 C 
ATOM     13  C   UNL     1      34.451 -18.942 -21.060  0.00  0.00    +0.003 C 
ATOM     14  C   UNL     1      36.799 -18.370 -21.045  0.00  0.00    +0.003 C 
ATOM     15  C   UNL     1      34.754 -20.198 -20.537  0.00  0.00    +0.037 C 
ATOM     16  C   UNL     1      37.102 -19.627 -20.521  0.00  0.00    +0.037 C 
ATOM     17  C   UNL     1      36.079 -20.542 -20.267  0.00  0.00    +0.134 C 
BRANCH  17  18
ATOM     18  O   UNL     1      36.374 -21.768 -19.757  0.00  0.00    -0.506 OA
ATOM     19  H   UNL     1      37.192 -22.176 -19.962  0.00  0.00    +0.292 HD
ENDBRANCH  17  18
ENDBRANCH  10  12
BRANCH   3  20
ATOM     20  O   UNL     1      33.827 -11.195 -24.885  0.00  0.00    -0.450 OA
BRANCH  20  26
ATOM     21  O   UNL     1      32.784  -9.651 -23.482  0.00  0.00    -0.316 OA
ATOM     22  C   UNL     1      35.061  -7.903 -23.568  0.00  0.00    +0.173 C 
ATOM     23  C   UNL     1      33.705  -7.456 -23.021  0.00  0.00    +0.169 C 
ATOM     24  C   UNL     1      34.911  -9.095 -24.513  0.00  0.00    +0.210 C 
ATOM     25  C   UNL     1      32.922  -8.651 -22.471  0.00  0.00    +0.177 C 
ATOM     26  C   UNL     1      34.038 -10.187 -23.895  0.00  0.00    +0.318 C 
BRANCH  22  27
ATOM     27  O   UNL     1      35.635  -6.804 -24.278  0.00  0.00    -0.379 OA
ATOM     28  H   UNL     1      35.040  -6.039 -24.227  0.00  0.00    +0.211 HD
ENDBRANCH  22  27
BRANCH  23  29
ATOM     29  O   UNL     1      33.908  -6.506 -21.979  0.00  0.00    -0.379 OA
ATOM     30  H   UNL     1      33.226  -5.818 -22.032  0.00  0.00    +0.211 HD
ENDBRANCH  23  29
BRANCH  24  31
ATOM     31  O   UNL     1      36.197  -9.651 -24.783  0.00  0.00    -0.377 OA
ATOM     32  H   UNL     1      36.095 -10.559 -25.107  0.00  0.00    +0.211 HD
ENDBRANCH  24  31
BRANCH  25  33
ATOM     33  C   UNL     1      31.519  -8.249 -22.025  0.00  0.00    +0.169 C 
BRANCH  33  34
ATOM     34  O   UNL     1      31.159  -7.054 -22.695  0.00  0.00    -0.379 OA
ATOM     35  H   UNL     1      31.805  -6.361 -22.487  0.00  0.00    +0.211 HD
ENDBRANCH  33  34
ENDBRANCH  25  33
ENDBRANCH  20  26
ENDBRANCH   3  20
TORSDOF 9
ENDMDL
MODEL 9
REMARK VINA RESULT:      -9.9      2.034     10.139
REMARK  Name = 107971
REMARK  9 active torsions:
REMARK  status: ('A' for Active; 'I' for Inactive)
REMARK    1  A    between atoms: C_3  and  O_20
REMARK    2  A    between atoms: C_10  and  C_12
REMARK    3  A    between atoms: C_17  and  O_18
REMARK    4  A    between atoms: O_20  and  C_26
REMARK    5  A    between atoms: C_22  and  O_27
REMARK    6  A    between atoms: C_23  and  O_29
REMARK    7  A    between atoms: C_24  and  O_31
REMARK    8  A    between atoms: C_25  and  C_33
REMARK    9  A    between atoms: C_33  and  O_34
REMARK                            x       y       z     vdW  Elec       q    Type
REMARK                         _______ _______ _______ _____ _____    ______ ____
ROOT
ATOM      1  O   UNL     1      32.694 -21.035 -19.600  0.00  0.00    -0.450 OA
ATOM      2  O   UNL     1      36.276 -21.894 -17.847  0.00  0.00    -0.286 OA
ATOM      3  C   UNL     1      34.916 -19.418 -21.992  0.00  0.00    +0.144 C 
ATOM      4  C   UNL     1      33.761 -19.883 -21.363  0.00  0.00    +0.075 C 
ATOM      5  C   UNL     1      36.169 -19.672 -21.432  0.00  0.00    +0.037 C 
ATOM      6  C   UNL     1      33.862 -20.603 -20.172  0.00  0.00    +0.151 C 
ATOM      7  C   UNL     1      35.114 -20.857 -19.613  0.00  0.00    +0.074 C 
ATOM      8  C   UNL     1      36.272 -20.392 -20.241  0.00  0.00    +0.009 C 
ATOM      9  C   UNL     1      35.196 -21.623 -18.356  0.00  0.00    +0.202 C 
ATOM     10  C   UNL     1      33.903 -22.056 -17.758  0.00  0.00    +0.077 C 
ATOM     11  C   UNL     1      32.782 -21.731 -18.418  0.00  0.00    +0.183 C 
ENDROOT
BRANCH  10  12
ATOM     12  C   UNL     1      33.841 -22.794 -16.486  0.00  0.00    +0.006 C 
ATOM     13  C   UNL     1      35.016 -23.245 -15.878  0.00  0.00    +0.003 C 
ATOM     14  C   UNL     1      32.607 -23.046 -15.882  0.00  0.00    +0.003 C 
ATOM     15  C   UNL     1      34.956 -23.945 -14.673  0.00  0.00    +0.037 C 
ATOM     16  C   UNL     1      32.548 -23.747 -14.677  0.00  0.00    +0.037 C 
ATOM     17  C   UNL     1      33.722 -24.196 -14.072  0.00  0.00    +0.134 C 
BRANCH  17  18
ATOM     18  O   UNL     1      33.664 -24.879 -12.897  0.00  0.00    -0.506 OA
ATOM     19  H   UNL     1      34.444 -25.015 -12.396  0.00  0.00    +0.292 HD
ENDBRANCH  17  18
ENDBRANCH  10  12
BRANCH   3  20
ATOM     20  O   UNL     1      34.821 -18.713 -23.154  0.00  0.00    -0.450 OA
BRANCH  20  26
ATOM     21  O   UNL     1      34.769 -16.743 -21.906  0.00  0.00    -0.316 OA
ATOM     22  C   UNL     1      34.923 -15.133 -24.279  0.00  0.00    +0.173 C 
ATOM     23  C   UNL     1      34.556 -14.549 -22.915  0.00  0.00    +0.169 C 
ATOM     24  C   UNL     1      34.651 -16.636 -24.329  0.00  0.00    +0.210 C 
ATOM     25  C   UNL     1      35.173 -15.378 -21.785  0.00  0.00    +0.177 C 
ATOM     26  C   UNL     1      35.237 -17.347 -23.109  0.00  0.00    +0.318 C 
BRANCH  22  27
ATOM     27  O   UNL     1      34.132 -14.474 -25.269  0.00  0.00    -0.379 OA
ATOM     28  H   UNL     1      33.242 -14.311 -24.917  0.00  0.00    +0.211 HD
ENDBRANCH  22  27
BRANCH  23  29
ATOM     29  O   UNL     1      35.034 -13.209 -22.831  0.00  0.00    -0.379 OA
ATOM     30  H   UNL     1      34.931 -12.775 -23.692  0.00  0.00    +0.211 HD
ENDBRANCH  23  29
BRANCH  24  31
ATOM     31  O   UNL     1      35.253 -17.188 -25.499  0.00  0.00    -0.377 OA
ATOM     32  H   UNL     1      36.092 -17.613 -25.262  0.00  0.00    +0.211 HD
ENDBRANCH  24  31
BRANCH  25  33
ATOM     33  C   UNL     1      34.726 -14.884 -20.413  0.00  0.00    +0.169 C 
BRANCH  33  34
ATOM     34  O   UNL     1      33.687 -13.939 -20.592  0.00  0.00    -0.379 OA
ATOM     35  H   UNL     1      33.206 -14.139 -21.409  0.00  0.00    +0.211 HD
ENDBRANCH  33  34
ENDBRANCH  25  33
ENDBRANCH  20  26
ENDBRANCH   3  20
TORSDOF 9
ENDMDL
