MODEL 1
REMARK VINA RESULT:     -12.2      0.000      0.000
REMARK  Name = 16040279
REMARK  5 active torsions:
REMARK  status: ('A' for Active; 'I' for Inactive)
REMARK    1  A    between atoms: N_2  and  C_21
REMARK    2  A    between atoms: C_3  and  C_11
REMARK    3  A    between atoms: C_4  and  N_17
REMARK    4  A    between atoms: C_21  and  C_22
REMARK    5  A    between atoms: C_22  and  C_25
REMARK                            x       y       z     vdW  Elec       q    Type
REMARK                         _______ _______ _______ _____ _____    ______ ____
ROOT
ATOM      1  O   UNL     1      34.486 -17.014 -25.300  0.00  0.00    -0.275 OA
ATOM      2  N   UNL     1      35.161 -16.862 -23.085  0.00  0.00    -0.281 N 
ATOM      3  C   UNL     1      33.919 -14.275 -22.925  0.00  0.00    +0.015 C 
ATOM      4  C   UNL     1      35.022 -14.644 -21.916  0.00  0.00    -0.041 C 
ATOM      5  C   UNL     1      35.087 -16.165 -21.802  0.00  0.00    +0.072 C 
ATOM      6  C   UNL     1      34.285 -14.878 -24.285  0.00  0.00    +0.088 C 
ATOM      7  C   UNL     1      34.621 -16.357 -24.265  0.00  0.00    +0.226 C 
ENDROOT
BRANCH   3  11
ATOM      8  F   UNL     1      31.978 -12.872 -21.403  0.00  0.00    -0.204 F 
ATOM      9  F   UNL     1      34.904  -9.957 -24.988  0.00  0.00    -0.202 F 
ATOM     10  F   UNL     1      32.999  -8.733 -23.456  0.00  0.00    -0.202 F 
ATOM     11  C   UNL     1      33.669 -12.782 -23.067  0.00  0.00    +0.006 C 
ATOM     12  C   UNL     1      32.698 -12.164 -22.284  0.00  0.00    +0.138 C 
ATOM     13  C   UNL     1      34.415 -12.043 -23.980  0.00  0.00    +0.030 C 
ATOM     14  C   UNL     1      34.189 -10.672 -24.112  0.00  0.00    +0.167 C 
ATOM     15  C   UNL     1      32.471 -10.794 -22.417  0.00  0.00    +0.061 C 
ATOM     16  C   UNL     1      33.217 -10.048 -23.330  0.00  0.00    +0.170 C 
ENDBRANCH   3  11
BRANCH   4  17
ATOM     17  N   UNL     1      34.756 -14.092 -20.586  0.00  0.00    +0.383 N 
ATOM     18  H   UNL     1      35.469 -13.399 -20.357  0.00  0.00    -0.089 HD
ATOM     19  H   UNL     1      34.779 -14.844 -19.895  0.00  0.00    -0.089 HD
ATOM     20  H   UNL     1      33.837 -13.650 -20.577  0.00  0.00    -0.089 HD
ENDBRANCH   4  17
BRANCH   2  21
ATOM     21  C   UNL     1      35.593 -18.253 -23.029  0.00  0.00    +0.098 C 
BRANCH  21  22
ATOM     22  C   UNL     1      36.149 -18.638 -21.660  0.00  0.00    +0.048 C 
BRANCH  22  25
ATOM     23  O   UNL     1      35.271 -22.304 -18.470  0.00  0.00    -0.435 OA
ATOM     24  O   UNL     1      32.885 -22.146 -18.767  0.00  0.00    -0.435 OA
ATOM     25  C   UNL     1      35.239 -19.568 -20.895  0.00  0.00    -0.017 C 
ATOM     26  C   UNL     1      35.796 -20.501 -20.031  0.00  0.00    +0.036 C 
ATOM     27  C   UNL     1      33.858 -19.466 -21.078  0.00  0.00    -0.001 C 
ATOM     28  C   UNL     1      34.924 -21.330 -19.355  0.00  0.00    +0.176 C 
ATOM     29  C   UNL     1      33.561 -21.240 -19.525  0.00  0.00    +0.176 C 
ATOM     30  C   UNL     1      32.996 -20.317 -20.381  0.00  0.00    +0.040 C 
ATOM     31  C   UNL     1      33.974 -22.816 -18.102  0.00  0.00    +0.429 C 
ENDBRANCH  22  25
ENDBRANCH  21  22
ENDBRANCH   2  21
TORSDOF 5
ENDMDL
MODEL 2
REMARK VINA RESULT:     -11.8      1.357      2.148
REMARK  Name = 16040279
REMARK  5 active torsions:
REMARK  status: ('A' for Active; 'I' for Inactive)
REMARK    1  A    between atoms: N_2  and  C_21
REMARK    2  A    between atoms: C_3  and  C_11
REMARK    3  A    between atoms: C_4  and  N_17
REMARK    4  A    between atoms: C_21  and  C_22
REMARK    5  A    between atoms: C_22  and  C_25
REMARK                            x       y       z     vdW  Elec       q    Type
REMARK                         _______ _______ _______ _____ _____    ______ ____
ROOT
ATOM      1  O   UNL     1      33.585 -15.520 -25.850  0.00  0.00    -0.275 OA
ATOM      2  N   UNL     1      34.790 -15.723 -23.876  0.00  0.00    -0.281 N 
ATOM      3  C   UNL     1      33.354 -13.471 -22.815  0.00  0.00    +0.015 C 
ATOM      4  C   UNL     1      34.713 -13.853 -22.203  0.00  0.00    -0.041 C 
ATOM      5  C   UNL     1      34.973 -15.332 -22.480  0.00  0.00    +0.072 C 
ATOM      6  C   UNL     1      33.420 -13.707 -24.326  0.00  0.00    +0.088 C 
ATOM      7  C   UNL     1      33.910 -15.081 -24.744  0.00  0.00    +0.226 C 
ENDROOT
BRANCH   3  11
ATOM      8  F   UNL     1      31.626 -12.778 -20.673  0.00  0.00    -0.204 F 
ATOM      9  F   UNL     1      33.392  -8.698 -23.859  0.00  0.00    -0.202 F 
ATOM     10  F   UNL     1      31.722  -8.173 -21.759  0.00  0.00    -0.202 F 
ATOM     11  C   UNL     1      32.913 -12.045 -22.528  0.00  0.00    +0.006 C 
ATOM     12  C   UNL     1      32.063 -11.783 -21.458  0.00  0.00    +0.138 C 
ATOM     13  C   UNL     1      33.363 -11.009 -23.341  0.00  0.00    +0.030 C 
ATOM     14  C   UNL     1      32.961  -9.698 -23.080  0.00  0.00    +0.167 C 
ATOM     15  C   UNL     1      31.659 -10.473 -21.198  0.00  0.00    +0.061 C 
ATOM     16  C   UNL     1      32.109  -9.431 -22.009  0.00  0.00    +0.170 C 
ENDBRANCH   3  11
BRANCH   4  17
ATOM     17  N   UNL     1      34.742 -13.643 -20.753  0.00  0.00    +0.383 N 
ATOM     18  H   UNL     1      35.091 -12.706 -20.552  0.00  0.00    -0.089 HD
ATOM     19  H   UNL     1      35.357 -14.335 -20.322  0.00  0.00    -0.089 HD
ATOM     20  H   UNL     1      33.800 -13.743 -20.376  0.00  0.00    -0.089 HD
ENDBRANCH   4  17
BRANCH   2  21
ATOM     21  C   UNL     1      35.372 -17.003 -24.259  0.00  0.00    +0.098 C 
BRANCH  21  22
ATOM     22  C   UNL     1      34.607 -18.191 -23.680  0.00  0.00    +0.048 C 
BRANCH  22  25
ATOM     23  O   UNL     1      34.700 -21.070 -19.669  0.00  0.00    -0.435 OA
ATOM     24  O   UNL     1      36.974 -20.468 -19.148  0.00  0.00    -0.435 OA
ATOM     25  C   UNL     1      35.276 -18.787 -22.466  0.00  0.00    -0.017 C 
ATOM     26  C   UNL     1      34.566 -19.674 -21.668  0.00  0.00    +0.036 C 
ATOM     27  C   UNL     1      36.595 -18.428 -22.175  0.00  0.00    -0.001 C 
ATOM     28  C   UNL     1      35.221 -20.192 -20.569  0.00  0.00    +0.176 C 
ATOM     29  C   UNL     1      36.520 -19.847 -20.271  0.00  0.00    +0.176 C 
ATOM     30  C   UNL     1      37.235 -18.967 -21.056  0.00  0.00    +0.040 C 
ATOM     31  C   UNL     1      35.816 -21.241 -18.773  0.00  0.00    +0.429 C 
ENDBRANCH  22  25
ENDBRANCH  21  22
ENDBRANCH   2  21
TORSDOF 5
ENDMDL
MODEL 3
REMARK VINA RESULT:     -11.5      1.507      2.699
REMARK  Name = 16040279
REMARK  5 active torsions:
REMARK  status: ('A' for Active; 'I' for Inactive)
REMARK    1  A    between atoms: N_2  and  C_21
REMARK    2  A    between atoms: C_3  and  C_11
REMARK    3  A    between atoms: C_4  and  N_17
REMARK    4  A    between atoms: C_21  and  C_22
REMARK    5  A    between atoms: C_22  and  C_25
REMARK                            x       y       z     vdW  Elec       q    Type
REMARK                         _______ _______ _______ _____ _____    ______ ____
ROOT
ATOM      1  O   UNL     1      33.466 -15.630 -25.822  0.00  0.00    -0.275 OA
ATOM      2  N   UNL     1      34.762 -15.778 -23.902  0.00  0.00    -0.281 N 
ATOM      3  C   UNL     1      33.321 -13.547 -22.805  0.00  0.00    +0.015 C 
ATOM      4  C   UNL     1      34.715 -13.888 -22.250  0.00  0.00    -0.041 C 
ATOM      5  C   UNL     1      34.997 -15.364 -22.520  0.00  0.00    +0.072 C 
ATOM      6  C   UNL     1      33.325 -13.801 -24.315  0.00  0.00    +0.088 C 
ATOM      7  C   UNL     1      33.829 -15.168 -24.737  0.00  0.00    +0.226 C 
ENDROOT
BRANCH   3  11
ATOM      8  F   UNL     1      34.347 -11.271 -24.155  0.00  0.00    -0.204 F 
ATOM      9  F   UNL     1      30.522 -10.384 -20.348  0.00  0.00    -0.202 F 
ATOM     10  F   UNL     1      31.598  -8.282 -21.726  0.00  0.00    -0.202 F 
ATOM     11  C   UNL     1      32.859 -12.127 -22.516  0.00  0.00    +0.006 C 
ATOM     12  C   UNL     1      33.409 -11.061 -23.221  0.00  0.00    +0.138 C 
ATOM     13  C   UNL     1      31.885 -11.904 -21.547  0.00  0.00    +0.030 C 
ATOM     14  C   UNL     1      31.458 -10.603 -21.280  0.00  0.00    +0.167 C 
ATOM     15  C   UNL     1      32.983  -9.759 -22.953  0.00  0.00    +0.061 C 
ATOM     16  C   UNL     1      32.007  -9.531 -21.983  0.00  0.00    +0.170 C 
ENDBRANCH   3  11
BRANCH   4  17
ATOM     17  N   UNL     1      34.803 -13.658 -20.806  0.00  0.00    +0.383 N 
ATOM     18  H   UNL     1      35.519 -12.957 -20.616  0.00  0.00    -0.089 HD
ATOM     19  H   UNL     1      35.048 -14.532 -20.337  0.00  0.00    -0.089 HD
ATOM     20  H   UNL     1      33.903 -13.327 -20.458  0.00  0.00    -0.089 HD
ENDBRANCH   4  17
BRANCH   2  21
ATOM     21  C   UNL     1      35.357 -17.049 -24.295  0.00  0.00    +0.098 C 
BRANCH  21  22
ATOM     22  C   UNL     1      34.618 -18.249 -23.706  0.00  0.00    +0.048 C 
BRANCH  22  25
ATOM     23  O   UNL     1      34.756 -21.067 -19.654  0.00  0.00    -0.435 OA
ATOM     24  O   UNL     1      37.022 -20.426 -19.145  0.00  0.00    -0.435 OA
ATOM     25  C   UNL     1      35.297 -18.817 -22.485  0.00  0.00    -0.017 C 
ATOM     26  C   UNL     1      34.600 -19.702 -21.674  0.00  0.00    +0.036 C 
ATOM     27  C   UNL     1      36.611 -18.436 -22.201  0.00  0.00    -0.001 C 
ATOM     28  C   UNL     1      35.263 -20.195 -20.567  0.00  0.00    +0.176 C 
ATOM     29  C   UNL     1      36.558 -19.828 -20.276  0.00  0.00    +0.176 C 
ATOM     30  C   UNL     1      37.260 -18.949 -21.075  0.00  0.00    +0.040 C 
ATOM     31  C   UNL     1      35.876 -21.209 -18.757  0.00  0.00    +0.429 C 
ENDBRANCH  22  25
ENDBRANCH  21  22
ENDBRANCH   2  21
TORSDOF 5
ENDMDL
MODEL 4
REMARK VINA RESULT:     -11.4      1.551      2.727
REMARK  Name = 16040279
REMARK  5 active torsions:
REMARK  status: ('A' for Active; 'I' for Inactive)
REMARK    1  A    between atoms: N_2  and  C_21
REMARK    2  A    between atoms: C_3  and  C_11
REMARK    3  A    between atoms: C_4  and  N_17
REMARK    4  A    between atoms: C_21  and  C_22
REMARK    5  A    between atoms: C_22  and  C_25
REMARK                            x       y       z     vdW  Elec       q    Type
REMARK                         _______ _______ _______ _____ _____    ______ ____
ROOT
ATOM      1  O   UNL     1      35.314 -15.982 -20.405  0.00  0.00    -0.275 OA
ATOM      2  N   UNL     1      34.958 -16.215 -22.687  0.00  0.00    -0.281 N 
ATOM      3  C   UNL     1      34.270 -13.428 -22.823  0.00  0.00    +0.015 C 
ATOM      4  C   UNL     1      33.783 -14.378 -23.932  0.00  0.00    -0.041 C 
ATOM      5  C   UNL     1      34.718 -15.585 -23.983  0.00  0.00    +0.072 C 
ATOM      6  C   UNL     1      34.220 -14.175 -21.488  0.00  0.00    +0.088 C 
ATOM      7  C   UNL     1      34.911 -15.525 -21.478  0.00  0.00    +0.226 C 
ENDROOT
BRANCH   3  11
ATOM      8  F   UNL     1      34.920 -11.107 -24.322  0.00  0.00    -0.204 F 
ATOM      9  F   UNL     1      30.635 -10.762 -20.940  0.00  0.00    -0.202 F 
ATOM     10  F   UNL     1      31.372  -8.601 -22.444  0.00  0.00    -0.202 F 
ATOM     11  C   UNL     1      33.491 -12.126 -22.723  0.00  0.00    +0.006 C 
ATOM     12  C   UNL     1      33.871 -11.029 -23.491  0.00  0.00    +0.138 C 
ATOM     13  C   UNL     1      32.402 -12.041 -21.861  0.00  0.00    +0.030 C 
ATOM     14  C   UNL     1      31.684 -10.848 -21.767  0.00  0.00    +0.167 C 
ATOM     15  C   UNL     1      33.154  -9.836 -23.396  0.00  0.00    +0.061 C 
ATOM     16  C   UNL     1      32.060  -9.746 -22.534  0.00  0.00    +0.170 C 
ENDBRANCH   3  11
BRANCH   4  17
ATOM     17  N   UNL     1      33.786 -13.735 -25.248  0.00  0.00    +0.383 N 
ATOM     18  H   UNL     1      34.347 -12.884 -25.209  0.00  0.00    -0.089 HD
ATOM     19  H   UNL     1      32.828 -13.501 -25.514  0.00  0.00    -0.089 HD
ATOM     20  H   UNL     1      34.183 -14.373 -25.938  0.00  0.00    -0.089 HD
ENDBRANCH   4  17
BRANCH   2  21
ATOM     21  C   UNL     1      35.524 -17.557 -22.728  0.00  0.00    +0.098 C 
BRANCH  21  22
ATOM     22  C   UNL     1      34.458 -18.646 -22.610  0.00  0.00    +0.048 C 
BRANCH  22  25
ATOM     23  O   UNL     1      32.913 -21.678 -19.033  0.00  0.00    -0.435 OA
ATOM     24  O   UNL     1      35.153 -22.072 -18.240  0.00  0.00    -0.435 OA
ATOM     25  C   UNL     1      34.682 -19.564 -21.434  0.00  0.00    -0.017 C 
ATOM     26  C   UNL     1      33.588 -20.168 -20.829  0.00  0.00    +0.036 C 
ATOM     27  C   UNL     1      35.987 -19.783 -20.984  0.00  0.00    -0.001 C 
ATOM     28  C   UNL     1      33.843 -20.999 -19.757  0.00  0.00    +0.176 C 
ATOM     29  C   UNL     1      35.124 -21.224 -19.303  0.00  0.00    +0.176 C 
ATOM     30  C   UNL     1      36.218 -20.630 -19.897  0.00  0.00    +0.040 C 
ATOM     31  C   UNL     1      33.750 -22.356 -18.074  0.00  0.00    +0.429 C 
ENDBRANCH  22  25
ENDBRANCH  21  22
ENDBRANCH   2  21
TORSDOF 5
ENDMDL
MODEL 5
REMARK VINA RESULT:     -11.3      3.714      5.998
REMARK  Name = 16040279
REMARK  5 active torsions:
REMARK  status: ('A' for Active; 'I' for Inactive)
REMARK    1  A    between atoms: N_2  and  C_21
REMARK    2  A    between atoms: C_3  and  C_11
REMARK    3  A    between atoms: C_4  and  N_17
REMARK    4  A    between atoms: C_21  and  C_22
REMARK    5  A    between atoms: C_22  and  C_25
REMARK                            x       y       z     vdW  Elec       q    Type
REMARK                         _______ _______ _______ _____ _____    ______ ____
ROOT
ATOM      1  O   UNL     1      33.194 -20.988 -19.441  0.00  0.00    -0.275 OA
ATOM      2  N   UNL     1      35.511 -20.933 -19.546  0.00  0.00    -0.281 N 
ATOM      3  C   UNL     1      35.343 -18.542 -21.131  0.00  0.00    +0.015 C 
ATOM      4  C   UNL     1      36.622 -19.396 -21.192  0.00  0.00    -0.041 C 
ATOM      5  C   UNL     1      36.728 -20.205 -19.901  0.00  0.00    +0.072 C 
ATOM      6  C   UNL     1      34.139 -19.480 -21.012  0.00  0.00    +0.088 C 
ATOM      7  C   UNL     1      34.234 -20.512 -19.904  0.00  0.00    +0.226 C 
ENDROOT
BRANCH   3  11
ATOM      8  F   UNL     1      34.831 -19.445 -23.773  0.00  0.00    -0.204 F 
ATOM      9  F   UNL     1      35.143 -14.038 -23.014  0.00  0.00    -0.202 F 
ATOM     10  F   UNL     1      34.655 -15.046 -25.508  0.00  0.00    -0.202 F 
ATOM     11  C   UNL     1      35.158 -17.603 -22.312  0.00  0.00    +0.006 C 
ATOM     12  C   UNL     1      34.909 -18.121 -23.580  0.00  0.00    +0.138 C 
ATOM     13  C   UNL     1      35.238 -16.227 -22.116  0.00  0.00    +0.030 C 
ATOM     14  C   UNL     1      35.068 -15.361 -23.197  0.00  0.00    +0.167 C 
ATOM     15  C   UNL     1      34.740 -17.256 -24.661  0.00  0.00    +0.061 C 
ATOM     16  C   UNL     1      34.818 -15.876 -24.470  0.00  0.00    +0.170 C 
ENDBRANCH   3  11
BRANCH   4  17
ATOM     17  N   UNL     1      37.827 -18.574 -21.322  0.00  0.00    +0.383 N 
ATOM     18  H   UNL     1      37.841 -17.872 -20.582  0.00  0.00    -0.089 HD
ATOM     19  H   UNL     1      37.826 -18.110 -22.232  0.00  0.00    -0.089 HD
ATOM     20  H   UNL     1      38.654 -19.166 -21.243  0.00  0.00    -0.089 HD
ENDBRANCH   4  17
BRANCH   2  21
ATOM     21  C   UNL     1      35.670 -21.990 -18.556  0.00  0.00    +0.098 C 
BRANCH  21  22
ATOM     22  C   UNL     1      36.760 -21.676 -17.533  0.00  0.00    +0.048 C 
BRANCH  22  25
ATOM     23  O   UNL     1      38.388 -23.947 -13.462  0.00  0.00    -0.435 OA
ATOM     24  O   UNL     1      36.154 -24.347 -12.652  0.00  0.00    -0.435 OA
ATOM     25  C   UNL     1      36.560 -22.393 -16.220  0.00  0.00    -0.017 C 
ATOM     26  C   UNL     1      37.671 -22.810 -15.501  0.00  0.00    +0.036 C 
ATOM     27  C   UNL     1      35.259 -22.619 -15.763  0.00  0.00    -0.001 C 
ATOM     28  C   UNL     1      37.438 -23.462 -14.307  0.00  0.00    +0.176 C 
ATOM     29  C   UNL     1      36.162 -23.691 -13.844  0.00  0.00    +0.176 C 
ATOM     30  C   UNL     1      35.050 -23.281 -14.550  0.00  0.00    +0.040 C 
ATOM     31  C   UNL     1      37.567 -24.505 -12.416  0.00  0.00    +0.429 C 
ENDBRANCH  22  25
ENDBRANCH  21  22
ENDBRANCH   2  21
TORSDOF 5
ENDMDL
MODEL 6
REMARK VINA RESULT:     -11.3      4.105      6.822
REMARK  Name = 16040279
REMARK  5 active torsions:
REMARK  status: ('A' for Active; 'I' for Inactive)
REMARK    1  A    between atoms: N_2  and  C_21
REMARK    2  A    between atoms: C_3  and  C_11
REMARK    3  A    between atoms: C_4  and  N_17
REMARK    4  A    between atoms: C_21  and  C_22
REMARK    5  A    between atoms: C_22  and  C_25
REMARK                            x       y       z     vdW  Elec       q    Type
REMARK                         _______ _______ _______ _____ _____    ______ ____
ROOT
ATOM      1  O   UNL     1      36.858 -21.982 -18.427  0.00  0.00    -0.275 OA
ATOM      2  N   UNL     1      34.553 -21.970 -18.703  0.00  0.00    -0.281 N 
ATOM      3  C   UNL     1      34.865 -20.139 -20.896  0.00  0.00    +0.015 C 
ATOM      4  C   UNL     1      33.509 -20.222 -20.172  0.00  0.00    -0.041 C 
ATOM      5  C   UNL     1      33.395 -21.593 -19.511  0.00  0.00    +0.072 C 
ATOM      6  C   UNL     1      35.979 -20.304 -19.859  0.00  0.00    +0.088 C 
ATOM      7  C   UNL     1      35.845 -21.516 -18.956  0.00  0.00    +0.226 C 
ENDROOT
BRANCH   3  11
ATOM      8  F   UNL     1      35.238 -20.099 -23.709  0.00  0.00    -0.204 F 
ATOM      9  F   UNL     1      35.304 -15.278 -21.126  0.00  0.00    -0.202 F 
ATOM     10  F   UNL     1      35.651 -15.386 -23.836  0.00  0.00    -0.202 F 
ATOM     11  C   UNL     1      35.077 -18.860 -21.690  0.00  0.00    +0.006 C 
ATOM     12  C   UNL     1      35.254 -18.921 -23.070  0.00  0.00    +0.138 C 
ATOM     13  C   UNL     1      35.094 -17.635 -21.031  0.00  0.00    +0.030 C 
ATOM     14  C   UNL     1      35.288 -16.459 -21.757  0.00  0.00    +0.167 C 
ATOM     15  C   UNL     1      35.449 -17.745 -23.796  0.00  0.00    +0.061 C 
ATOM     16  C   UNL     1      35.465 -16.515 -23.139  0.00  0.00    +0.170 C 
ENDBRANCH   3  11
BRANCH   4  17
ATOM     17  N   UNL     1      32.383 -20.058 -21.094  0.00  0.00    +0.383 N 
ATOM     18  H   UNL     1      32.709 -20.174 -22.054  0.00  0.00    -0.089 HD
ATOM     19  H   UNL     1      31.983 -19.126 -20.981  0.00  0.00    -0.089 HD
ATOM     20  H   UNL     1      31.671 -20.760 -20.890  0.00  0.00    -0.089 HD
ENDBRANCH   4  17
BRANCH   2  21
ATOM     21  C   UNL     1      34.348 -23.071 -17.771  0.00  0.00    +0.098 C 
BRANCH  21  22
ATOM     22  C   UNL     1      33.990 -22.590 -16.366  0.00  0.00    +0.048 C 
BRANCH  22  25
ATOM     23  O   UNL     1      29.082 -22.364 -16.856  0.00  0.00    -0.435 OA
ATOM     24  O   UNL     1      28.711 -23.825 -14.976  0.00  0.00    -0.435 OA
ATOM     25  C   UNL     1      32.579 -22.944 -15.964  0.00  0.00    -0.017 C 
ATOM     26  C   UNL     1      31.517 -22.420 -16.688  0.00  0.00    +0.036 C 
ATOM     27  C   UNL     1      32.379 -23.791 -14.871  0.00  0.00    -0.001 C 
ATOM     28  C   UNL     1      30.246 -22.772 -16.282  0.00  0.00    +0.176 C 
ATOM     29  C   UNL     1      30.034 -23.606 -15.207  0.00  0.00    +0.176 C 
ATOM     30  C   UNL     1      31.082 -24.133 -14.480  0.00  0.00    +0.040 C 
ATOM     31  C   UNL     1      28.114 -23.036 -16.024  0.00  0.00    +0.429 C 
ENDBRANCH  22  25
ENDBRANCH  21  22
ENDBRANCH   2  21
TORSDOF 5
ENDMDL
MODEL 7
REMARK VINA RESULT:     -10.8      3.984      6.758
REMARK  Name = 16040279
REMARK  5 active torsions:
REMARK  status: ('A' for Active; 'I' for Inactive)
REMARK    1  A    between atoms: N_2  and  C_21
REMARK    2  A    between atoms: C_3  and  C_11
REMARK    3  A    between atoms: C_4  and  N_17
REMARK    4  A    between atoms: C_21  and  C_22
REMARK    5  A    between atoms: C_22  and  C_25
REMARK                            x       y       z     vdW  Elec       q    Type
REMARK                         _______ _______ _______ _____ _____    ______ ____
ROOT
ATOM      1  O   UNL     1      37.072 -21.705 -18.736  0.00  0.00    -0.275 OA
ATOM      2  N   UNL     1      34.757 -21.734 -18.887  0.00  0.00    -0.281 N 
ATOM      3  C   UNL     1      34.921 -19.956 -21.138  0.00  0.00    +0.015 C 
ATOM      4  C   UNL     1      33.607 -20.039 -20.340  0.00  0.00    -0.041 C 
ATOM      5  C   UNL     1      33.550 -21.395 -19.639  0.00  0.00    +0.072 C 
ATOM      6  C   UNL     1      36.091 -20.078 -20.159  0.00  0.00    +0.088 C 
ATOM      7  C   UNL     1      36.025 -21.268 -19.221  0.00  0.00    +0.226 C 
ENDROOT
BRANCH   3  11
ATOM      8  F   UNL     1      35.105 -19.980 -23.970  0.00  0.00    -0.204 F 
ATOM      9  F   UNL     1      35.305 -15.099 -21.512  0.00  0.00    -0.202 F 
ATOM     10  F   UNL     1      35.472 -15.270 -24.235  0.00  0.00    -0.202 F 
ATOM     11  C   UNL     1      35.069 -18.695 -21.975  0.00  0.00    +0.006 C 
ATOM     12  C   UNL     1      35.154 -18.787 -23.361  0.00  0.00    +0.138 C 
ATOM     13  C   UNL     1      35.121 -17.454 -21.347  0.00  0.00    +0.030 C 
ATOM     14  C   UNL     1      35.256 -16.295 -22.111  0.00  0.00    +0.167 C 
ATOM     15  C   UNL     1      35.291 -17.628 -24.126  0.00  0.00    +0.061 C 
ATOM     16  C   UNL     1      35.341 -16.382 -23.501  0.00  0.00    +0.170 C 
ENDBRANCH   3  11
BRANCH   4  17
ATOM     17  N   UNL     1      32.430 -19.916 -21.203  0.00  0.00    +0.383 N 
ATOM     18  H   UNL     1      31.647 -19.553 -20.660  0.00  0.00    -0.089 HD
ATOM     19  H   UNL     1      32.188 -20.833 -21.580  0.00  0.00    -0.089 HD
ATOM     20  H   UNL     1      32.636 -19.276 -21.971  0.00  0.00    -0.089 HD
ENDBRANCH   4  17
BRANCH   2  21
ATOM     21  C   UNL     1      34.619 -22.813 -17.917  0.00  0.00    +0.098 C 
BRANCH  21  22
ATOM     22  C   UNL     1      33.413 -22.625 -16.999  0.00  0.00    +0.048 C 
BRANCH  22  25
ATOM     23  O   UNL     1      36.339 -24.025 -13.277  0.00  0.00    -0.435 OA
ATOM     24  O   UNL     1      34.472 -24.427 -11.808  0.00  0.00    -0.435 OA
ATOM     25  C   UNL     1      33.662 -23.111 -15.593  0.00  0.00    -0.017 C 
ATOM     26  C   UNL     1      34.968 -23.318 -15.170  0.00  0.00    +0.036 C 
ATOM     27  C   UNL     1      32.570 -23.341 -14.752  0.00  0.00    -0.001 C 
ATOM     28  C   UNL     1      35.145 -23.763 -13.875  0.00  0.00    +0.176 C 
ATOM     29  C   UNL     1      34.079 -23.993 -13.036  0.00  0.00    +0.176 C 
ATOM     30  C   UNL     1      32.777 -23.791 -13.446  0.00  0.00    +0.040 C 
ATOM     31  C   UNL     1      35.905 -24.445 -11.967  0.00  0.00    +0.429 C 
ENDBRANCH  22  25
ENDBRANCH  21  22
ENDBRANCH   2  21
TORSDOF 5
ENDMDL
MODEL 8
REMARK VINA RESULT:     -10.7      1.543      2.081
REMARK  Name = 16040279
REMARK  5 active torsions:
REMARK  status: ('A' for Active; 'I' for Inactive)
REMARK    1  A    between atoms: N_2  and  C_21
REMARK    2  A    between atoms: C_3  and  C_11
REMARK    3  A    between atoms: C_4  and  N_17
REMARK    4  A    between atoms: C_21  and  C_22
REMARK    5  A    between atoms: C_22  and  C_25
REMARK                            x       y       z     vdW  Elec       q    Type
REMARK                         _______ _______ _______ _____ _____    ______ ____
ROOT
ATOM      1  O   UNL     1      35.383 -16.113 -20.638  0.00  0.00    -0.275 OA
ATOM      2  N   UNL     1      34.986 -16.229 -22.922  0.00  0.00    -0.281 N 
ATOM      3  C   UNL     1      34.282 -13.443 -22.901  0.00  0.00    +0.015 C 
ATOM      4  C   UNL     1      33.779 -14.337 -24.048  0.00  0.00    -0.041 C 
ATOM      5  C   UNL     1      34.719 -15.534 -24.179  0.00  0.00    +0.072 C 
ATOM      6  C   UNL     1      34.260 -14.259 -21.605  0.00  0.00    +0.088 C 
ATOM      7  C   UNL     1      34.958 -15.603 -21.678  0.00  0.00    +0.226 C 
ENDROOT
BRANCH   3  11
ATOM      8  F   UNL     1      32.067 -13.202 -21.143  0.00  0.00    -0.204 F 
ATOM      9  F   UNL     1      33.497  -8.738 -23.960  0.00  0.00    -0.202 F 
ATOM     10  F   UNL     1      31.382  -8.648 -22.231  0.00  0.00    -0.202 F 
ATOM     11  C   UNL     1      33.499 -12.153 -22.719  0.00  0.00    +0.006 C 
ATOM     12  C   UNL     1      32.423 -12.112 -21.837  0.00  0.00    +0.138 C 
ATOM     13  C   UNL     1      33.865 -11.018 -23.437  0.00  0.00    +0.030 C 
ATOM     14  C   UNL     1      33.149  -9.832 -23.272  0.00  0.00    +0.167 C 
ATOM     15  C   UNL     1      31.706 -10.927 -21.672  0.00  0.00    +0.061 C 
ATOM     16  C   UNL     1      32.070  -9.787 -22.390  0.00  0.00    +0.170 C 
ENDBRANCH   3  11
BRANCH   4  17
ATOM     17  N   UNL     1      33.755 -13.627 -25.329  0.00  0.00    +0.383 N 
ATOM     18  H   UNL     1      32.789 -13.523 -25.642  0.00  0.00    -0.089 HD
ATOM     19  H   UNL     1      34.282 -14.159 -26.023  0.00  0.00    -0.089 HD
ATOM     20  H   UNL     1      34.176 -12.705 -25.215  0.00  0.00    -0.089 HD
ENDBRANCH   4  17
BRANCH   2  21
ATOM     21  C   UNL     1      35.557 -17.564 -23.043  0.00  0.00    +0.098 C 
BRANCH  21  22
ATOM     22  C   UNL     1      34.497 -18.662 -22.989  0.00  0.00    +0.048 C 
BRANCH  22  25
ATOM     23  O   UNL     1      36.917 -20.957 -19.349  0.00  0.00    -0.435 OA
ATOM     24  O   UNL     1      34.877 -21.702 -18.305  0.00  0.00    -0.435 OA
ATOM     25  C   UNL     1      34.562 -19.483 -21.725  0.00  0.00    -0.017 C 
ATOM     26  C   UNL     1      35.802 -19.795 -21.184  0.00  0.00    +0.036 C 
ATOM     27  C   UNL     1      33.371 -19.909 -21.131  0.00  0.00    -0.001 C 
ATOM     28  C   UNL     1      35.811 -20.549 -20.028  0.00  0.00    +0.176 C 
ATOM     29  C   UNL     1      34.645 -20.975 -19.432  0.00  0.00    +0.176 C 
ATOM     30  C   UNL     1      33.408 -20.671 -19.961  0.00  0.00    +0.040 C 
ATOM     31  C   UNL     1      36.318 -21.686 -18.259  0.00  0.00    +0.429 C 
ENDBRANCH  22  25
ENDBRANCH  21  22
ENDBRANCH   2  21
TORSDOF 5
ENDMDL
MODEL 9
REMARK VINA RESULT:     -10.6      3.470      5.758
REMARK  Name = 16040279
REMARK  5 active torsions:
REMARK  status: ('A' for Active; 'I' for Inactive)
REMARK    1  A    between atoms: N_2  and  C_21
REMARK    2  A    between atoms: C_3  and  C_11
REMARK    3  A    between atoms: C_4  and  N_17
REMARK    4  A    between atoms: C_21  and  C_22
REMARK    5  A    between atoms: C_22  and  C_25
REMARK                            x       y       z     vdW  Elec       q    Type
REMARK                         _______ _______ _______ _____ _____    ______ ____
ROOT
ATOM      1  O   UNL     1      31.406 -11.923 -21.041  0.00  0.00    -0.275 OA
ATOM      2  N   UNL     1      32.992 -11.705 -22.721  0.00  0.00    -0.281 N 
ATOM      3  C   UNL     1      33.032  -8.869 -22.259  0.00  0.00    +0.015 C 
ATOM      4  C   UNL     1      33.516  -9.417 -23.613  0.00  0.00    -0.041 C 
ATOM      5  C   UNL     1      33.963 -10.864 -23.419  0.00  0.00    +0.072 C 
ATOM      6  C   UNL     1      31.845  -9.714 -21.790  0.00  0.00    +0.088 C 
ATOM      7  C   UNL     1      32.081 -11.213 -21.789  0.00  0.00    +0.226 C 
ENDROOT
BRANCH   3  11
ATOM      8  F   UNL     1      33.592  -7.090 -20.119  0.00  0.00    -0.204 F 
ATOM      9  F   UNL     1      31.008  -5.008 -24.467  0.00  0.00    -0.202 F 
ATOM     10  F   UNL     1      31.610  -3.408 -22.333  0.00  0.00    -0.202 F 
ATOM     11  C   UNL     1      32.650  -7.397 -22.276  0.00  0.00    +0.006 C 
ATOM     12  C   UNL     1      32.959  -6.587 -21.188  0.00  0.00    +0.138 C 
ATOM     13  C   UNL     1      31.992  -6.870 -23.384  0.00  0.00    +0.030 C 
ATOM     14  C   UNL     1      31.640  -5.520 -23.404  0.00  0.00    +0.167 C 
ATOM     15  C   UNL     1      32.606  -5.237 -21.207  0.00  0.00    +0.061 C 
ATOM     16  C   UNL     1      31.947  -4.704 -22.315  0.00  0.00    +0.170 C 
ENDBRANCH   3  11
BRANCH   4  17
ATOM     17  N   UNL     1      34.648  -8.652 -24.143  0.00  0.00    +0.383 N 
ATOM     18  H   UNL     1      35.031  -8.058 -23.408  0.00  0.00    -0.089 HD
ATOM     19  H   UNL     1      34.331  -8.070 -24.920  0.00  0.00    -0.089 HD
ATOM     20  H   UNL     1      35.369  -9.294 -24.472  0.00  0.00    -0.089 HD
ENDBRANCH   4  17
BRANCH   2  21
ATOM     21  C   UNL     1      33.196 -13.143 -22.837  0.00  0.00    +0.098 C 
BRANCH  21  22
ATOM     22  C   UNL     1      34.602 -13.498 -23.318  0.00  0.00    +0.048 C 
BRANCH  22  25
ATOM     23  O   UNL     1      35.709 -17.675 -20.929  0.00  0.00    -0.435 OA
ATOM     24  O   UNL     1      35.684 -18.977 -22.957  0.00  0.00    -0.435 OA
ATOM     25  C   UNL     1      34.888 -14.978 -23.257  0.00  0.00    -0.017 C 
ATOM     26  C   UNL     1      35.163 -15.564 -22.029  0.00  0.00    +0.036 C 
ATOM     27  C   UNL     1      34.872 -15.720 -24.441  0.00  0.00    -0.001 C 
ATOM     28  C   UNL     1      35.419 -16.920 -22.024  0.00  0.00    +0.176 C 
ATOM     29  C   UNL     1      35.406 -17.664 -23.182  0.00  0.00    +0.176 C 
ATOM     30  C   UNL     1      35.135 -17.092 -24.408  0.00  0.00    +0.040 C 
ATOM     31  C   UNL     1      35.875 -18.976 -21.528  0.00  0.00    +0.429 C 
ENDBRANCH  22  25
ENDBRANCH  21  22
ENDBRANCH   2  21
TORSDOF 5
ENDMDL
