MODEL 1
REMARK VINA RESULT:     -12.3      0.000      0.000
REMARK  Name = 23658582
REMARK  4 active torsions:
REMARK  status: ('A' for Active; 'I' for Inactive)
REMARK    1  A    between atoms: N_3  and  C_13
REMARK    2  A    between atoms: C_8  and  C_25
REMARK    3  A    between atoms: C_15  and  C_22
REMARK    4  A    between atoms: N_24  and  C_29
REMARK                            x       y       z     vdW  Elec       q    Type
REMARK                         _______ _______ _______ _____ _____    ______ ____
ROOT
ATOM      1 CL   UNL     1      32.093 -24.280 -14.726  0.00  0.00    -0.082 Cl
ATOM      2  O   UNL     1      36.013 -22.326 -17.483  0.00  0.00    -0.352 OA
ATOM      3  N   UNL     1      34.441 -20.545 -20.041  0.00  0.00    -0.295 N 
ATOM      4  N   UNL     1      36.098 -21.530 -18.619  0.00  0.00    -0.062 NA
ATOM      5  C   UNL     1      33.905 -21.900 -18.110  0.00  0.00    +0.072 A 
ATOM      6  C   UNL     1      34.704 -22.544 -17.181  0.00  0.00    +0.183 A 
ATOM      7  C   UNL     1      34.833 -21.289 -18.976  0.00  0.00    +0.174 A 
ATOM      8  C   UNL     1      34.217 -23.295 -16.114  0.00  0.00    +0.101 C 
ATOM      9  C   UNL     1      32.511 -21.992 -17.990  0.00  0.00    +0.007 C 
ATOM     10  C   UNL     1      32.825 -23.378 -16.008  0.00  0.00    +0.065 C 
ATOM     11  C   UNL     1      31.986 -22.740 -16.927  0.00  0.00    +0.012 C 
ATOM     12  H   UNL     1      33.468 -20.554 -20.196  0.00  0.00    +0.154 HD
ENDROOT
BRANCH   3  13
ATOM     13  C   UNL     1      35.164 -19.756 -20.979  0.00  0.00    +0.049 C 
ATOM     14  C   UNL     1      34.529 -19.278 -22.125  0.00  0.00    +0.018 C 
ATOM     15  C   UNL     1      35.239 -18.504 -23.044  0.00  0.00    +0.073 C 
ATOM     16  C   UNL     1      36.508 -19.458 -20.750  0.00  0.00    +0.015 C 
ATOM     17  C   UNL     1      36.582 -18.207 -22.816  0.00  0.00    +0.004 C 
ATOM     18  C   UNL     1      37.216 -18.685 -21.668  0.00  0.00    +0.001 C 
BRANCH  15  22
ATOM     19  F   UNL     1      35.320 -18.104 -25.401  0.00  0.00    -0.166 F 
ATOM     20  F   UNL     1      33.396 -18.645 -24.563  0.00  0.00    -0.166 F 
ATOM     21  F   UNL     1      34.230 -16.674 -24.179  0.00  0.00    -0.166 F 
ATOM     22  C   UNL     1      34.561 -17.995 -24.271  0.00  0.00    +0.419 C 
ENDBRANCH  15  22
ENDBRANCH   3  13
BRANCH   8  25
ATOM     23  O   UNL     1      35.611 -25.051 -15.438  0.00  0.00    -0.270 OA
ATOM     24  N   UNL     1      35.377 -23.224 -14.007  0.00  0.00    -0.278 N 
ATOM     25  C   UNL     1      35.132 -23.938 -15.186  0.00  0.00    +0.253 C 
ATOM     26  H   UNL     1      34.932 -22.349 -13.934  0.00  0.00    +0.155 HD
BRANCH  24  29
ATOM     27  N   UNL     1      38.224 -23.377 -11.644  0.00  0.00    -0.221 NA
ATOM     28  N   UNL     1      36.525 -24.927 -10.925  0.00  0.00    -0.221 NA
ATOM     29  C   UNL     1      36.186 -23.600 -12.904  0.00  0.00    +0.089 C 
ATOM     30  C   UNL     1      37.429 -23.044 -12.682  0.00  0.00    +0.117 C 
ATOM     31  C   UNL     1      35.782 -24.546 -11.985  0.00  0.00    +0.117 C 
ATOM     32  C   UNL     1      37.718 -24.312 -10.817  0.00  0.00    +0.199 C 
ENDBRANCH  24  29
ENDBRANCH   8  25
TORSDOF 4
ENDMDL
MODEL 2
REMARK VINA RESULT:     -11.8      1.769      2.110
REMARK  Name = 23658582
REMARK  4 active torsions:
REMARK  status: ('A' for Active; 'I' for Inactive)
REMARK    1  A    between atoms: N_3  and  C_13
REMARK    2  A    between atoms: C_8  and  C_25
REMARK    3  A    between atoms: C_15  and  C_22
REMARK    4  A    between atoms: N_24  and  C_29
REMARK                            x       y       z     vdW  Elec       q    Type
REMARK                         _______ _______ _______ _____ _____    ______ ____
ROOT
ATOM      1 CL   UNL     1      33.110 -24.442 -14.539  0.00  0.00    -0.082 Cl
ATOM      2  O   UNL     1      36.690 -21.964 -17.337  0.00  0.00    -0.352 OA
ATOM      3  N   UNL     1      34.893 -20.630 -20.017  0.00  0.00    -0.295 N 
ATOM      4  N   UNL     1      36.662 -21.227 -18.515  0.00  0.00    -0.062 NA
ATOM      5  C   UNL     1      34.557 -21.956 -18.022  0.00  0.00    +0.072 A 
ATOM      6  C   UNL     1      35.433 -22.397 -17.046  0.00  0.00    +0.183 A 
ATOM      7  C   UNL     1      35.384 -21.235 -18.905  0.00  0.00    +0.174 A 
ATOM      8  C   UNL     1      35.060 -23.166 -15.946  0.00  0.00    +0.101 C 
ATOM      9  C   UNL     1      33.199 -22.290 -17.920  0.00  0.00    +0.007 C 
ATOM     10  C   UNL     1      33.703 -23.492 -15.858  0.00  0.00    +0.065 C 
ATOM     11  C   UNL     1      32.788 -23.064 -16.826  0.00  0.00    +0.012 C 
ATOM     12  H   UNL     1      33.942 -20.821 -20.187  0.00  0.00    +0.154 HD
ENDROOT
BRANCH   3  13
ATOM     13  C   UNL     1      35.489 -19.774 -20.986  0.00  0.00    +0.049 C 
ATOM     14  C   UNL     1      34.739 -19.321 -22.071  0.00  0.00    +0.018 C 
ATOM     15  C   UNL     1      35.323 -18.481 -23.020  0.00  0.00    +0.073 C 
ATOM     16  C   UNL     1      36.822 -19.387 -20.849  0.00  0.00    +0.015 C 
ATOM     17  C   UNL     1      36.656 -18.095 -22.884  0.00  0.00    +0.004 C 
ATOM     18  C   UNL     1      37.405 -18.548 -21.797  0.00  0.00    +0.001 C 
BRANCH  15  22
ATOM     19  F   UNL     1      33.456 -18.796 -24.483  0.00  0.00    -0.166 F 
ATOM     20  F   UNL     1      33.993 -16.752 -24.000  0.00  0.00    -0.166 F 
ATOM     21  F   UNL     1      35.257 -17.919 -25.330  0.00  0.00    -0.166 F 
ATOM     22  C   UNL     1      34.523 -17.998 -24.182  0.00  0.00    +0.419 C 
ENDBRANCH  15  22
ENDBRANCH   3  13
BRANCH   8  25
ATOM     23  O   UNL     1      35.928 -23.286 -13.774  0.00  0.00    -0.270 OA
ATOM     24  N   UNL     1      37.134 -24.300 -15.495  0.00  0.00    -0.278 N 
ATOM     25  C   UNL     1      36.050 -23.586 -14.969  0.00  0.00    +0.253 C 
ATOM     26  H   UNL     1      37.106 -24.471 -16.464  0.00  0.00    +0.155 HD
BRANCH  24  29
ATOM     27  N   UNL     1      39.214 -26.264 -13.144  0.00  0.00    -0.221 NA
ATOM     28  N   UNL     1      40.648 -24.845 -14.461  0.00  0.00    -0.221 NA
ATOM     29  C   UNL     1      38.267 -24.808 -14.810  0.00  0.00    +0.089 C 
ATOM     30  C   UNL     1      38.159 -25.759 -13.815  0.00  0.00    +0.117 C 
ATOM     31  C   UNL     1      39.549 -24.383 -15.093  0.00  0.00    +0.117 C 
ATOM     32  C   UNL     1      40.411 -25.770 -13.511  0.00  0.00    +0.199 C 
ENDBRANCH  24  29
ENDBRANCH   8  25
TORSDOF 4
ENDMDL
MODEL 3
REMARK VINA RESULT:     -11.5      3.395      4.587
REMARK  Name = 23658582
REMARK  4 active torsions:
REMARK  status: ('A' for Active; 'I' for Inactive)
REMARK    1  A    between atoms: N_3  and  C_13
REMARK    2  A    between atoms: C_8  and  C_25
REMARK    3  A    between atoms: C_15  and  C_22
REMARK    4  A    between atoms: N_24  and  C_29
REMARK                            x       y       z     vdW  Elec       q    Type
REMARK                         _______ _______ _______ _____ _____    ______ ____
ROOT
ATOM      1 CL   UNL     1      36.213 -23.488 -15.567  0.00  0.00    -0.082 Cl
ATOM      2  O   UNL     1      33.456 -21.483 -19.462  0.00  0.00    -0.352 OA
ATOM      3  N   UNL     1      35.680 -19.299 -21.034  0.00  0.00    -0.295 N 
ATOM      4  N   UNL     1      33.725 -20.562 -20.467  0.00  0.00    -0.062 NA
ATOM      5  C   UNL     1      35.582 -20.841 -19.173  0.00  0.00    +0.072 A 
ATOM      6  C   UNL     1      34.566 -21.648 -18.692  0.00  0.00    +0.183 A 
ATOM      7  C   UNL     1      34.995 -20.192 -20.276  0.00  0.00    +0.174 A 
ATOM      8  C   UNL     1      34.687 -22.488 -17.587  0.00  0.00    +0.101 C 
ATOM      9  C   UNL     1      36.826 -20.851 -18.524  0.00  0.00    +0.007 C 
ATOM     10  C   UNL     1      35.932 -22.488 -16.951  0.00  0.00    +0.065 C 
ATOM     11  C   UNL     1      36.983 -21.686 -17.408  0.00  0.00    +0.012 C 
ATOM     12  H   UNL     1      36.577 -19.087 -20.687  0.00  0.00    +0.154 HD
ENDROOT
BRANCH   3  13
ATOM     13  C   UNL     1      35.353 -18.608 -22.235  0.00  0.00    +0.049 C 
ATOM     14  C   UNL     1      35.244 -17.218 -22.232  0.00  0.00    +0.018 C 
ATOM     15  C   UNL     1      34.923 -16.541 -23.409  0.00  0.00    +0.073 C 
ATOM     16  C   UNL     1      35.142 -19.322 -23.415  0.00  0.00    +0.015 C 
ATOM     17  C   UNL     1      34.711 -17.254 -24.588  0.00  0.00    +0.004 C 
ATOM     18  C   UNL     1      34.821 -18.646 -24.591  0.00  0.00    +0.001 C 
BRANCH  15  22
ATOM     19  F   UNL     1      33.566 -14.603 -23.765  0.00  0.00    -0.166 F 
ATOM     20  F   UNL     1      35.048 -14.488 -22.187  0.00  0.00    -0.166 F 
ATOM     21  F   UNL     1      35.677 -14.456 -24.268  0.00  0.00    -0.166 F 
ATOM     22  C   UNL     1      34.804 -15.054 -23.406  0.00  0.00    +0.419 C 
ENDBRANCH  15  22
ENDBRANCH   3  13
BRANCH   8  25
ATOM     23  O   UNL     1      33.508 -24.505 -17.432  0.00  0.00    -0.270 OA
ATOM     24  N   UNL     1      32.571 -22.609 -16.448  0.00  0.00    -0.278 N 
ATOM     25  C   UNL     1      33.564 -23.301 -17.152  0.00  0.00    +0.253 C 
ATOM     26  H   UNL     1      32.742 -21.652 -16.293  0.00  0.00    +0.155 HD
BRANCH  24  29
ATOM     27  N   UNL     1      30.170 -24.554 -14.407  0.00  0.00    -0.221 NA
ATOM     28  N   UNL     1      28.944 -23.145 -15.928  0.00  0.00    -0.221 NA
ATOM     29  C   UNL     1      31.350 -23.111 -15.930  0.00  0.00    +0.089 C 
ATOM     30  C   UNL     1      31.312 -24.055 -14.924  0.00  0.00    +0.117 C 
ATOM     31  C   UNL     1      30.124 -22.689 -16.399  0.00  0.00    +0.117 C 
ATOM     32  C   UNL     1      29.039 -24.063 -14.948  0.00  0.00    +0.199 C 
ENDBRANCH  24  29
ENDBRANCH   8  25
TORSDOF 4
ENDMDL
MODEL 4
REMARK VINA RESULT:     -11.2      5.067      9.850
REMARK  Name = 23658582
REMARK  4 active torsions:
REMARK  status: ('A' for Active; 'I' for Inactive)
REMARK    1  A    between atoms: N_3  and  C_13
REMARK    2  A    between atoms: C_8  and  C_25
REMARK    3  A    between atoms: C_15  and  C_22
REMARK    4  A    between atoms: N_24  and  C_29
REMARK                            x       y       z     vdW  Elec       q    Type
REMARK                         _______ _______ _______ _____ _____    ______ ____
ROOT
ATOM      1 CL   UNL     1      37.691 -19.366 -21.421  0.00  0.00    -0.082 Cl
ATOM      2  O   UNL     1      32.957 -20.617 -19.745  0.00  0.00    -0.352 OA
ATOM      3  N   UNL     1      33.553 -22.769 -17.060  0.00  0.00    -0.295 N 
ATOM      4  N   UNL     1      32.472 -21.424 -18.722  0.00  0.00    -0.062 NA
ATOM      5  C   UNL     1      34.752 -21.472 -18.713  0.00  0.00    +0.072 A 
ATOM      6  C   UNL     1      34.318 -20.648 -19.736  0.00  0.00    +0.183 A 
ATOM      7  C   UNL     1      33.556 -21.923 -18.122  0.00  0.00    +0.174 A 
ATOM      8  C   UNL     1      35.164 -19.967 -20.609  0.00  0.00    +0.101 C 
ATOM      9  C   UNL     1      36.130 -21.651 -18.521  0.00  0.00    +0.007 C 
ATOM     10  C   UNL     1      36.534 -20.155 -20.405  0.00  0.00    +0.065 C 
ATOM     11  C   UNL     1      37.011 -20.981 -19.381  0.00  0.00    +0.012 C 
ATOM     12  H   UNL     1      34.447 -23.100 -16.812  0.00  0.00    +0.154 HD
ENDROOT
BRANCH   3  13
ATOM     13  C   UNL     1      32.506 -23.272 -16.237  0.00  0.00    +0.049 C 
ATOM     14  C   UNL     1      31.176 -23.090 -16.613  0.00  0.00    +0.018 C 
ATOM     15  C   UNL     1      30.150 -23.584 -15.806  0.00  0.00    +0.073 C 
ATOM     16  C   UNL     1      32.812 -23.949 -15.056  0.00  0.00    +0.015 C 
ATOM     17  C   UNL     1      30.455 -24.259 -14.625  0.00  0.00    +0.004 C 
ATOM     18  C   UNL     1      31.787 -24.442 -14.250  0.00  0.00    +0.001 C 
BRANCH  15  22
ATOM     19  F   UNL     1      27.876 -23.235 -15.148  0.00  0.00    -0.166 F 
ATOM     20  F   UNL     1      28.524 -22.285 -16.986  0.00  0.00    -0.166 F 
ATOM     21  F   UNL     1      28.233 -24.439 -16.923  0.00  0.00    -0.166 F 
ATOM     22  C   UNL     1      28.726 -23.388 -16.206  0.00  0.00    +0.419 C 
ENDBRANCH  15  22
ENDBRANCH   3  13
BRANCH   8  25
ATOM     23  O   UNL     1      33.604 -19.461 -22.281  0.00  0.00    -0.270 OA
ATOM     24  N   UNL     1      35.343 -17.950 -21.909  0.00  0.00    -0.278 N 
ATOM     25  C   UNL     1      34.617 -19.122 -21.656  0.00  0.00    +0.253 C 
ATOM     26  H   UNL     1      36.130 -17.801 -21.338  0.00  0.00    +0.155 HD
BRANCH  24  29
ATOM     27  N   UNL     1      34.808 -14.633 -23.466  0.00  0.00    -0.221 NA
ATOM     28  N   UNL     1      34.616 -16.335 -25.161  0.00  0.00    -0.221 NA
ATOM     29  C   UNL     1      35.087 -16.952 -22.883  0.00  0.00    +0.089 C 
ATOM     30  C   UNL     1      35.048 -15.609 -22.566  0.00  0.00    +0.117 C 
ATOM     31  C   UNL     1      34.861 -17.259 -24.209  0.00  0.00    +0.117 C 
ATOM     32  C   UNL     1      34.604 -15.060 -24.727  0.00  0.00    +0.199 C 
ENDBRANCH  24  29
ENDBRANCH   8  25
TORSDOF 4
ENDMDL
MODEL 5
REMARK VINA RESULT:     -10.9      6.989     11.360
REMARK  Name = 23658582
REMARK  4 active torsions:
REMARK  status: ('A' for Active; 'I' for Inactive)
REMARK    1  A    between atoms: N_3  and  C_13
REMARK    2  A    between atoms: C_8  and  C_25
REMARK    3  A    between atoms: C_15  and  C_22
REMARK    4  A    between atoms: N_24  and  C_29
REMARK                            x       y       z     vdW  Elec       q    Type
REMARK                         _______ _______ _______ _____ _____    ______ ____
ROOT
ATOM      1 CL   UNL     1      33.347 -12.531 -26.204  0.00  0.00    -0.082 Cl
ATOM      2  O   UNL     1      34.591 -14.603 -21.628  0.00  0.00    -0.352 OA
ATOM      3  N   UNL     1      35.184 -17.966 -22.357  0.00  0.00    -0.295 N 
ATOM      4  N   UNL     1      34.939 -15.880 -21.204  0.00  0.00    -0.062 NA
ATOM      5  C   UNL     1      34.551 -15.904 -23.451  0.00  0.00    +0.072 A 
ATOM      6  C   UNL     1      34.361 -14.620 -22.969  0.00  0.00    +0.183 A 
ATOM      7  C   UNL     1      34.908 -16.638 -22.304  0.00  0.00    +0.174 A 
ATOM      8  C   UNL     1      33.990 -13.533 -23.757  0.00  0.00    +0.101 C 
ATOM      9  C   UNL     1      34.365 -16.152 -24.819  0.00  0.00    +0.007 C 
ATOM     10  C   UNL     1      33.808 -13.796 -25.118  0.00  0.00    +0.065 C 
ATOM     11  C   UNL     1      33.991 -15.080 -25.642  0.00  0.00    +0.012 C 
ATOM     12  H   UNL     1      35.022 -18.371 -23.240  0.00  0.00    +0.154 HD
ENDROOT
BRANCH   3  13
ATOM     13  C   UNL     1      35.661 -18.887 -21.382  0.00  0.00    +0.049 C 
ATOM     14  C   UNL     1      34.774 -19.765 -20.759  0.00  0.00    +0.018 C 
ATOM     15  C   UNL     1      35.241 -20.667 -19.804  0.00  0.00    +0.073 C 
ATOM     16  C   UNL     1      37.015 -18.912 -21.050  0.00  0.00    +0.015 C 
ATOM     17  C   UNL     1      36.595 -20.692 -19.471  0.00  0.00    +0.004 C 
ATOM     18  C   UNL     1      37.483 -19.814 -20.095  0.00  0.00    +0.001 C 
BRANCH  15  22
ATOM     19  F   UNL     1      34.134 -22.788 -19.800  0.00  0.00    -0.166 F 
ATOM     20  F   UNL     1      34.671 -21.956 -17.871  0.00  0.00    -0.166 F 
ATOM     21  F   UNL     1      33.038 -21.083 -19.012  0.00  0.00    -0.166 F 
ATOM     22  C   UNL     1      34.293 -21.605 -19.136  0.00  0.00    +0.419 C 
ENDBRANCH  15  22
ENDBRANCH   3  13
BRANCH   8  25
ATOM     23  O   UNL     1      34.541 -11.273 -23.488  0.00  0.00    -0.270 OA
ATOM     24  N   UNL     1      32.802 -12.138 -22.196  0.00  0.00    -0.278 N 
ATOM     25  C   UNL     1      33.812 -12.219 -23.163  0.00  0.00    +0.253 C 
ATOM     26  H   UNL     1      32.296 -12.967 -22.034  0.00  0.00    +0.155 HD
BRANCH  24  29
ATOM     27  N   UNL     1      31.798 -10.063 -19.299  0.00  0.00    -0.221 NA
ATOM     28  N   UNL     1      31.899  -8.671 -21.263  0.00  0.00    -0.221 NA
ATOM     29  C   UNL     1      32.416 -11.016 -21.421  0.00  0.00    +0.089 C 
ATOM     30  C   UNL     1      32.166 -11.109 -20.066  0.00  0.00    +0.117 C 
ATOM     31  C   UNL     1      32.264  -9.760 -21.971  0.00  0.00    +0.117 C 
ATOM     32  C   UNL     1      31.684  -8.891 -19.952  0.00  0.00    +0.199 C 
ENDBRANCH  24  29
ENDBRANCH   8  25
TORSDOF 4
ENDMDL
MODEL 6
REMARK VINA RESULT:     -10.8      7.461     12.304
REMARK  Name = 23658582
REMARK  4 active torsions:
REMARK  status: ('A' for Active; 'I' for Inactive)
REMARK    1  A    between atoms: N_3  and  C_13
REMARK    2  A    between atoms: C_8  and  C_25
REMARK    3  A    between atoms: C_15  and  C_22
REMARK    4  A    between atoms: N_24  and  C_29
REMARK                            x       y       z     vdW  Elec       q    Type
REMARK                         _______ _______ _______ _____ _____    ______ ____
ROOT
ATOM      1 CL   UNL     1      33.148 -12.190 -26.395  0.00  0.00    -0.082 Cl
ATOM      2  O   UNL     1      34.642 -14.227 -21.878  0.00  0.00    -0.352 OA
ATOM      3  N   UNL     1      35.136 -17.608 -22.598  0.00  0.00    -0.295 N 
ATOM      4  N   UNL     1      34.996 -15.505 -21.459  0.00  0.00    -0.062 NA
ATOM      5  C   UNL     1      34.468 -15.549 -23.678  0.00  0.00    +0.072 A 
ATOM      6  C   UNL     1      34.329 -14.257 -23.202  0.00  0.00    +0.183 A 
ATOM      7  C   UNL     1      34.885 -16.275 -22.545  0.00  0.00    +0.174 A 
ATOM      8  C   UNL     1      33.927 -13.173 -23.979  0.00  0.00    +0.101 C 
ATOM      9  C   UNL     1      34.193 -15.811 -25.028  0.00  0.00    +0.007 C 
ATOM     10  C   UNL     1      33.656 -13.450 -25.322  0.00  0.00    +0.065 C 
ATOM     11  C   UNL     1      33.786 -14.743 -25.840  0.00  0.00    +0.012 C 
ATOM     12  H   UNL     1      34.913 -18.021 -23.463  0.00  0.00    +0.154 HD
ENDROOT
BRANCH   3  13
ATOM     13  C   UNL     1      35.658 -18.524 -21.642  0.00  0.00    +0.049 C 
ATOM     14  C   UNL     1      34.832 -19.503 -21.090  0.00  0.00    +0.018 C 
ATOM     15  C   UNL     1      35.344 -20.401 -20.154  0.00  0.00    +0.073 C 
ATOM     16  C   UNL     1      36.997 -18.445 -21.259  0.00  0.00    +0.015 C 
ATOM     17  C   UNL     1      36.682 -20.321 -19.770  0.00  0.00    +0.004 C 
ATOM     18  C   UNL     1      37.509 -19.342 -20.323  0.00  0.00    +0.001 C 
BRANCH  15  22
ATOM     19  F   UNL     1      34.449 -21.445 -18.196  0.00  0.00    -0.166 F 
ATOM     20  F   UNL     1      33.150 -21.328 -19.929  0.00  0.00    -0.166 F 
ATOM     21  F   UNL     1      34.828 -22.711 -19.923  0.00  0.00    -0.166 F 
ATOM     22  C   UNL     1      34.461 -21.447 -19.562  0.00  0.00    +0.419 C 
ENDBRANCH  15  22
ENDBRANCH   3  13
BRANCH   8  25
ATOM     23  O   UNL     1      33.099 -11.659 -22.395  0.00  0.00    -0.270 OA
ATOM     24  N   UNL     1      34.509 -10.840 -24.063  0.00  0.00    -0.278 N 
ATOM     25  C   UNL     1      33.807 -11.849 -23.393  0.00  0.00    +0.253 C 
ATOM     26  H   UNL     1      35.035 -11.128 -24.844  0.00  0.00    +0.155 HD
BRANCH  24  29
ATOM     27  N   UNL     1      33.499  -7.467 -22.916  0.00  0.00    -0.221 NA
ATOM     28  N   UNL     1      35.770  -7.375 -23.716  0.00  0.00    -0.221 NA
ATOM     29  C   UNL     1      34.560  -9.455 -23.761  0.00  0.00    +0.089 C 
ATOM     30  C   UNL     1      33.485  -8.782 -23.216  0.00  0.00    +0.117 C 
ATOM     31  C   UNL     1      35.687  -8.694 -23.992  0.00  0.00    +0.117 C 
ATOM     32  C   UNL     1      34.656  -6.834 -23.188  0.00  0.00    +0.199 C 
ENDBRANCH  24  29
ENDBRANCH   8  25
TORSDOF 4
ENDMDL
MODEL 7
REMARK VINA RESULT:     -10.2      5.225      9.734
REMARK  Name = 23658582
REMARK  4 active torsions:
REMARK  status: ('A' for Active; 'I' for Inactive)
REMARK    1  A    between atoms: N_3  and  C_13
REMARK    2  A    between atoms: C_8  and  C_25
REMARK    3  A    between atoms: C_15  and  C_22
REMARK    4  A    between atoms: N_24  and  C_29
REMARK                            x       y       z     vdW  Elec       q    Type
REMARK                         _______ _______ _______ _____ _____    ______ ____
ROOT
ATOM      1 CL   UNL     1      32.456 -20.793 -20.377  0.00  0.00    -0.082 Cl
ATOM      2  O   UNL     1      36.983 -21.507 -17.972  0.00  0.00    -0.352 OA
ATOM      3  N   UNL     1      36.165 -23.459 -15.194  0.00  0.00    -0.295 N 
ATOM      4  N   UNL     1      37.374 -22.180 -16.821  0.00  0.00    -0.062 NA
ATOM      5  C   UNL     1      35.123 -22.412 -17.111  0.00  0.00    +0.072 A 
ATOM      6  C   UNL     1      35.640 -21.648 -18.143  0.00  0.00    +0.183 A 
ATOM      7  C   UNL     1      36.253 -22.710 -16.324  0.00  0.00    +0.174 A 
ATOM      8  C   UNL     1      34.880 -21.116 -19.182  0.00  0.00    +0.101 C 
ATOM      9  C   UNL     1      33.748 -22.684 -17.087  0.00  0.00    +0.007 C 
ATOM     10  C   UNL     1      33.511 -21.395 -19.144  0.00  0.00    +0.065 C 
ATOM     11  C   UNL     1      32.953 -22.163 -18.117  0.00  0.00    +0.012 C 
ATOM     12  H   UNL     1      35.242 -23.686 -14.939  0.00  0.00    +0.154 HD
ENDROOT
BRANCH   3  13
ATOM     13  C   UNL     1      37.150 -23.977 -14.307  0.00  0.00    +0.049 C 
ATOM     14  C   UNL     1      38.194 -24.757 -14.804  0.00  0.00    +0.018 C 
ATOM     15  C   UNL     1      39.160 -25.264 -13.934  0.00  0.00    +0.073 C 
ATOM     16  C   UNL     1      37.073 -23.702 -12.942  0.00  0.00    +0.015 C 
ATOM     17  C   UNL     1      39.083 -24.990 -12.569  0.00  0.00    +0.004 C 
ATOM     18  C   UNL     1      38.038 -24.208 -12.073  0.00  0.00    +0.001 C 
BRANCH  15  22
ATOM     19  F   UNL     1      41.179 -26.476 -13.511  0.00  0.00    -0.166 F 
ATOM     20  F   UNL     1      39.858 -27.269 -15.036  0.00  0.00    -0.166 F 
ATOM     21  F   UNL     1      41.001 -25.461 -15.426  0.00  0.00    -0.166 F 
ATOM     22  C   UNL     1      40.275 -26.101 -14.464  0.00  0.00    +0.419 C 
ENDBRANCH  15  22
ENDBRANCH   3  13
BRANCH   8  25
ATOM     23  O   UNL     1      36.738 -20.333 -20.374  0.00  0.00    -0.270 OA
ATOM     24  N   UNL     1      34.629 -19.547 -20.989  0.00  0.00    -0.278 N 
ATOM     25  C   UNL     1      35.509 -20.324 -20.225  0.00  0.00    +0.253 C 
ATOM     26  H   UNL     1      33.675 -19.634 -20.765  0.00  0.00    +0.155 HD
BRANCH  24  29
ATOM     27  N   UNL     1      34.959 -18.127 -24.393  0.00  0.00    -0.221 NA
ATOM     28  N   UNL     1      35.823 -16.543 -22.796  0.00  0.00    -0.221 NA
ATOM     29  C   UNL     1      34.938 -18.651 -22.044  0.00  0.00    +0.089 C 
ATOM     30  C   UNL     1      34.679 -18.954 -23.365  0.00  0.00    +0.117 C 
ATOM     31  C   UNL     1      35.517 -17.419 -21.816  0.00  0.00    +0.117 C 
ATOM     32  C   UNL     1      35.522 -16.955 -24.042  0.00  0.00    +0.199 C 
ENDBRANCH  24  29
ENDBRANCH   8  25
TORSDOF 4
ENDMDL
MODEL 8
REMARK VINA RESULT:     -10.1      1.588      2.094
REMARK  Name = 23658582
REMARK  4 active torsions:
REMARK  status: ('A' for Active; 'I' for Inactive)
REMARK    1  A    between atoms: N_3  and  C_13
REMARK    2  A    between atoms: C_8  and  C_25
REMARK    3  A    between atoms: C_15  and  C_22
REMARK    4  A    between atoms: N_24  and  C_29
REMARK                            x       y       z     vdW  Elec       q    Type
REMARK                         _______ _______ _______ _____ _____    ______ ____
ROOT
ATOM      1 CL   UNL     1      31.911 -24.276 -14.274  0.00  0.00    -0.082 Cl
ATOM      2  O   UNL     1      35.449 -22.523 -17.620  0.00  0.00    -0.352 OA
ATOM      3  N   UNL     1      33.581 -20.728 -19.961  0.00  0.00    -0.295 N 
ATOM      4  N   UNL     1      35.394 -21.751 -18.774  0.00  0.00    -0.062 NA
ATOM      5  C   UNL     1      33.288 -22.027 -17.941  0.00  0.00    +0.072 A 
ATOM      6  C   UNL     1      34.191 -22.685 -17.125  0.00  0.00    +0.183 A 
ATOM      7  C   UNL     1      34.099 -21.467 -18.947  0.00  0.00    +0.174 A 
ATOM      8  C   UNL     1      33.841 -23.397 -15.980  0.00  0.00    +0.101 C 
ATOM      9  C   UNL     1      31.924 -22.063 -17.616  0.00  0.00    +0.007 C 
ATOM     10  C   UNL     1      32.477 -23.425 -15.670  0.00  0.00    +0.065 C 
ATOM     11  C   UNL     1      31.535 -22.772 -16.471  0.00  0.00    +0.012 C 
ATOM     12  H   UNL     1      32.597 -20.702 -19.971  0.00  0.00    +0.154 HD
ENDROOT
BRANCH   3  13
ATOM     13  C   UNL     1      34.186 -19.983 -21.012  0.00  0.00    +0.049 C 
ATOM     14  C   UNL     1      35.478 -19.482 -20.858  0.00  0.00    +0.018 C 
ATOM     15  C   UNL     1      36.071 -18.753 -21.889  0.00  0.00    +0.073 C 
ATOM     16  C   UNL     1      33.487 -19.757 -22.198  0.00  0.00    +0.015 C 
ATOM     17  C   UNL     1      35.373 -18.526 -23.074  0.00  0.00    +0.004 C 
ATOM     18  C   UNL     1      34.080 -19.029 -23.228  0.00  0.00    +0.001 C 
BRANCH  15  22
ATOM     19  F   UNL     1      37.547 -16.870 -21.945  0.00  0.00    -0.166 F 
ATOM     20  F   UNL     1      37.968 -18.405 -20.473  0.00  0.00    -0.166 F 
ATOM     21  F   UNL     1      38.346 -18.790 -22.579  0.00  0.00    -0.166 F 
ATOM     22  C   UNL     1      37.452 -18.215 -21.724  0.00  0.00    +0.419 C 
ENDBRANCH  15  22
ENDBRANCH   3  13
BRANCH   8  25
ATOM     23  O   UNL     1      35.296 -25.170 -15.508  0.00  0.00    -0.270 OA
ATOM     24  N   UNL     1      35.252 -23.364 -14.032  0.00  0.00    -0.278 N 
ATOM     25  C   UNL     1      34.858 -24.059 -15.182  0.00  0.00    +0.253 C 
ATOM     26  H   UNL     1      34.825 -22.489 -13.891  0.00  0.00    +0.155 HD
BRANCH  24  29
ATOM     27  N   UNL     1      38.394 -23.626 -12.089  0.00  0.00    -0.221 NA
ATOM     28  N   UNL     1      36.734 -25.061 -11.093  0.00  0.00    -0.221 NA
ATOM     29  C   UNL     1      36.188 -23.761 -13.043  0.00  0.00    +0.089 C 
ATOM     30  C   UNL     1      37.478 -23.272 -13.014  0.00  0.00    +0.117 C 
ATOM     31  C   UNL     1      35.869 -24.662 -12.048  0.00  0.00    +0.117 C 
ATOM     32  C   UNL     1      37.961 -24.512 -11.172  0.00  0.00    +0.199 C 
ENDBRANCH  24  29
ENDBRANCH   8  25
TORSDOF 4
ENDMDL
MODEL 9
REMARK VINA RESULT:     -10.1      3.043      5.001
REMARK  Name = 23658582
REMARK  4 active torsions:
REMARK  status: ('A' for Active; 'I' for Inactive)
REMARK    1  A    between atoms: N_3  and  C_13
REMARK    2  A    between atoms: C_8  and  C_25
REMARK    3  A    between atoms: C_15  and  C_22
REMARK    4  A    between atoms: N_24  and  C_29
REMARK                            x       y       z     vdW  Elec       q    Type
REMARK                         _______ _______ _______ _____ _____    ______ ____
ROOT
ATOM      1 CL   UNL     1      33.917 -24.660 -14.214  0.00  0.00    -0.082 Cl
ATOM      2  O   UNL     1      32.919 -21.761 -18.384  0.00  0.00    -0.352 OA
ATOM      3  N   UNL     1      36.056 -20.587 -19.368  0.00  0.00    -0.295 N 
ATOM      4  N   UNL     1      33.701 -21.012 -19.255  0.00  0.00    -0.062 NA
ATOM      5  C   UNL     1      35.032 -21.974 -17.671  0.00  0.00    +0.072 A 
ATOM      6  C   UNL     1      33.715 -22.335 -17.441  0.00  0.00    +0.183 A 
ATOM      7  C   UNL     1      34.954 -21.152 -18.812  0.00  0.00    +0.174 A 
ATOM      8  C   UNL     1      33.298 -23.157 -16.397  0.00  0.00    +0.101 C 
ATOM      9  C   UNL     1      36.030 -22.456 -16.812  0.00  0.00    +0.007 C 
ATOM     10  C   UNL     1      34.304 -23.629 -15.549  0.00  0.00    +0.065 C 
ATOM     11  C   UNL     1      35.645 -23.287 -15.750  0.00  0.00    +0.012 C 
ATOM     12  H   UNL     1      36.881 -20.731 -18.850  0.00  0.00    +0.154 HD
ENDROOT
BRANCH   3  13
ATOM     13  C   UNL     1      36.249 -19.824 -20.554  0.00  0.00    +0.049 C 
ATOM     14  C   UNL     1      35.274 -19.826 -21.550  0.00  0.00    +0.018 C 
ATOM     15  C   UNL     1      35.463 -19.078 -22.713  0.00  0.00    +0.073 C 
ATOM     16  C   UNL     1      37.413 -19.073 -20.718  0.00  0.00    +0.015 C 
ATOM     17  C   UNL     1      36.627 -18.328 -22.878  0.00  0.00    +0.004 C 
ATOM     18  C   UNL     1      37.602 -18.325 -21.880  0.00  0.00    +0.001 C 
BRANCH  15  22
ATOM     19  F   UNL     1      33.163 -19.340 -23.317  0.00  0.00    -0.166 F 
ATOM     20  F   UNL     1      34.317 -17.894 -24.447  0.00  0.00    -0.166 F 
ATOM     21  F   UNL     1      34.657 -20.021 -24.741  0.00  0.00    -0.166 F 
ATOM     22  C   UNL     1      34.421 -19.081 -23.780  0.00  0.00    +0.419 C 
ENDBRANCH  15  22
ENDBRANCH   3  13
BRANCH   8  25
ATOM     23  O   UNL     1      31.520 -24.659 -16.139  0.00  0.00    -0.270 OA
ATOM     24  N   UNL     1      31.026 -22.381 -16.229  0.00  0.00    -0.278 N 
ATOM     25  C   UNL     1      31.891 -23.482 -16.232  0.00  0.00    +0.253 C 
ATOM     26  H   UNL     1      31.454 -21.498 -16.310  0.00  0.00    +0.155 HD
BRANCH  24  29
ATOM     27  N   UNL     1      27.621 -21.981 -14.828  0.00  0.00    -0.221 NA
ATOM     28  N   UNL     1      27.447 -22.751 -17.105  0.00  0.00    -0.221 NA
ATOM     29  C   UNL     1      29.612 -22.375 -16.123  0.00  0.00    +0.089 C 
ATOM     30  C   UNL     1      28.963 -21.999 -14.964  0.00  0.00    +0.117 C 
ATOM     31  C   UNL     1      28.795 -22.745 -17.171  0.00  0.00    +0.117 C 
ATOM     32  C   UNL     1      26.934 -22.364 -15.921  0.00  0.00    +0.199 C 
ENDBRANCH  24  29
ENDBRANCH   8  25
TORSDOF 4
ENDMDL
