MODEL 1
REMARK VINA RESULT:     -11.6      0.000      0.000
REMARK  Name = 10250490
REMARK  6 active torsions:
REMARK  status: ('A' for Active; 'I' for Inactive)
REMARK    1  A    between atoms: N_2  and  C_18
REMARK    2  A    between atoms: C_3  and  C_6
REMARK    3  A    between atoms: C_5  and  N_12
REMARK    4  A    between atoms: C_18  and  C_19
REMARK    5  A    between atoms: C_19  and  N_21
REMARK    6  A    between atoms: C_22  and  C_26
REMARK                            x       y       z     vdW  Elec       q    Type
REMARK                         _______ _______ _______ _____ _____    ______ ____
ROOT
ATOM      1  O   UNL     1      34.711 -23.091 -17.315  0.00  0.00    -0.270 OA
ATOM      2  N   UNL     1      32.466 -22.516 -17.354  0.00  0.00    -0.299 N 
ATOM      3  C   UNL     1      33.784 -22.432 -17.816  0.00  0.00    +0.246 C 
ATOM      4  H   UNL     1      31.779 -21.966 -17.797  0.00  0.00    +0.150 HD
ENDROOT
BRANCH   3   6
ATOM      5  C   UNL     1      34.534 -19.738 -21.010  0.00  0.00    +0.058 C 
ATOM      6  C   UNL     1      34.042 -21.510 -18.910  0.00  0.00    +0.053 C 
ATOM      7  C   UNL     1      35.596 -20.384 -20.376  0.00  0.00    +0.015 C 
ATOM      8  C   UNL     1      33.224 -19.980 -20.593  0.00  0.00    +0.015 C 
ATOM      9  C   UNL     1      35.350 -21.269 -19.327  0.00  0.00    +0.006 C 
ATOM     10  C   UNL     1      32.978 -20.865 -19.543  0.00  0.00    +0.006 C 
BRANCH   5  12
ATOM     11  O   UNL     1      35.580 -17.057 -20.720  0.00  0.00    -0.269 OA
ATOM     12  N   UNL     1      34.791 -18.817 -22.099  0.00  0.00    -0.233 N 
ATOM     13  C   UNL     1      35.345 -17.539 -21.829  0.00  0.00    +0.257 C 
ATOM     14  C   UNL     1      34.476 -19.169 -23.413  0.00  0.00    +0.072 C 
ATOM     15  C   UNL     1      35.623 -16.670 -23.014  0.00  0.00    +0.059 C 
ATOM     16  C   UNL     1      34.703 -18.360 -24.454  0.00  0.00    +0.017 C 
ATOM     17  C   UNL     1      35.301 -17.075 -24.245  0.00  0.00    +0.006 C 
ENDBRANCH   5  12
ENDBRANCH   3   6
BRANCH   2  18
ATOM     18  C   UNL     1      32.055 -23.368 -16.260  0.00  0.00    +0.111 C 
BRANCH  18  19
ATOM     19  C   UNL     1      32.260 -22.705 -14.908  0.00  0.00    +0.111 C 
BRANCH  19  21
ATOM     20  O   UNL     1      32.788 -24.628 -12.843  0.00  0.00    -0.270 OA
ATOM     21  N   UNL     1      33.542 -23.025 -14.340  0.00  0.00    -0.299 N 
ATOM     22  C   UNL     1      33.702 -23.975 -13.339  0.00  0.00    +0.252 C 
ATOM     23  H   UNL     1      34.338 -22.551 -14.675  0.00  0.00    +0.150 HD
BRANCH  22  26
ATOM     24 CL   UNL     1      39.047 -25.135 -13.068  0.00  0.00    -0.075 Cl
ATOM     25  S   UNL     1      36.242 -24.706 -13.943  0.00  0.00    -0.071 S 
ATOM     26  C   UNL     1      35.088 -24.171 -12.840  0.00  0.00    +0.084 C 
ATOM     27  C   UNL     1      35.528 -23.967 -11.588  0.00  0.00    +0.012 C 
ATOM     28  C   UNL     1      36.920 -24.267 -11.505  0.00  0.00    +0.019 C 
ATOM     29  C   UNL     1      37.434 -24.680 -12.714  0.00  0.00    +0.087 C 
ENDBRANCH  22  26
ENDBRANCH  19  21
ENDBRANCH  18  19
ENDBRANCH   2  18
TORSDOF 6
ENDMDL
MODEL 2
REMARK VINA RESULT:     -11.4      2.912      3.782
REMARK  Name = 10250490
REMARK  6 active torsions:
REMARK  status: ('A' for Active; 'I' for Inactive)
REMARK    1  A    between atoms: N_2  and  C_18
REMARK    2  A    between atoms: C_3  and  C_6
REMARK    3  A    between atoms: C_5  and  N_12
REMARK    4  A    between atoms: C_18  and  C_19
REMARK    5  A    between atoms: C_19  and  N_21
REMARK    6  A    between atoms: C_22  and  C_26
REMARK                            x       y       z     vdW  Elec       q    Type
REMARK                         _______ _______ _______ _____ _____    ______ ____
ROOT
ATOM      1  O   UNL     1      34.154 -23.324 -17.812  0.00  0.00    -0.270 OA
ATOM      2  N   UNL     1      35.946 -22.221 -16.839  0.00  0.00    -0.299 N 
ATOM      3  C   UNL     1      34.982 -22.397 -17.838  0.00  0.00    +0.246 C 
ATOM      4  H   UNL     1      36.572 -21.465 -16.922  0.00  0.00    +0.150 HD
ENDROOT
BRANCH   3   6
ATOM      5  C   UNL     1      35.023 -19.636 -21.062  0.00  0.00    +0.058 C 
ATOM      6  C   UNL     1      34.997 -21.452 -18.943  0.00  0.00    +0.053 C 
ATOM      7  C   UNL     1      36.224 -20.088 -20.514  0.00  0.00    +0.015 C 
ATOM      8  C   UNL     1      33.808 -20.094 -20.550  0.00  0.00    +0.015 C 
ATOM      9  C   UNL     1      36.211 -20.995 -19.455  0.00  0.00    +0.006 C 
ATOM     10  C   UNL     1      33.795 -21.001 -19.490  0.00  0.00    +0.006 C 
BRANCH   5  12
ATOM     11  O   UNL     1      35.492 -16.793 -20.818  0.00  0.00    -0.269 OA
ATOM     12  N   UNL     1      35.037 -18.692 -22.162  0.00  0.00    -0.233 N 
ATOM     13  C   UNL     1      35.320 -17.324 -21.916  0.00  0.00    +0.257 C 
ATOM     14  C   UNL     1      34.752 -19.115 -23.462  0.00  0.00    +0.072 C 
ATOM     15  C   UNL     1      35.362 -16.427 -23.112  0.00  0.00    +0.059 C 
ATOM     16  C   UNL     1      34.763 -18.286 -24.512  0.00  0.00    +0.017 C 
ATOM     17  C   UNL     1      35.084 -16.903 -24.329  0.00  0.00    +0.006 C 
ENDBRANCH   5  12
ENDBRANCH   3   6
BRANCH   2  18
ATOM     18  C   UNL     1      36.075 -23.090 -15.691  0.00  0.00    +0.111 C 
BRANCH  18  19
ATOM     19  C   UNL     1      35.151 -22.682 -14.556  0.00  0.00    +0.111 C 
BRANCH  19  21
ATOM     20  O   UNL     1      33.425 -24.239 -12.872  0.00  0.00    -0.270 OA
ATOM     21  N   UNL     1      33.782 -23.035 -14.822  0.00  0.00    -0.299 N 
ATOM     22  C   UNL     1      33.021 -23.796 -13.944  0.00  0.00    +0.252 C 
ATOM     23  H   UNL     1      33.369 -22.724 -15.660  0.00  0.00    +0.150 HD
BRANCH  22  26
ATOM     24 CL   UNL     1      28.269 -23.761 -16.665  0.00  0.00    -0.075 Cl
ATOM     25  S   UNL     1      31.031 -23.250 -15.704  0.00  0.00    -0.071 S 
ATOM     26  C   UNL     1      31.631 -24.096 -14.376  0.00  0.00    +0.084 C 
ATOM     27  C   UNL     1      30.788 -24.979 -13.819  0.00  0.00    +0.012 C 
ATOM     28  C   UNL     1      29.546 -24.979 -14.518  0.00  0.00    +0.019 C 
ATOM     29  C   UNL     1      29.542 -24.085 -15.566  0.00  0.00    +0.087 C 
ENDBRANCH  22  26
ENDBRANCH  19  21
ENDBRANCH  18  19
ENDBRANCH   2  18
TORSDOF 6
ENDMDL
MODEL 3
REMARK VINA RESULT:     -11.0      5.569      9.477
REMARK  Name = 10250490
REMARK  6 active torsions:
REMARK  status: ('A' for Active; 'I' for Inactive)
REMARK    1  A    between atoms: N_2  and  C_18
REMARK    2  A    between atoms: C_3  and  C_6
REMARK    3  A    between atoms: C_5  and  N_12
REMARK    4  A    between atoms: C_18  and  C_19
REMARK    5  A    between atoms: C_19  and  N_21
REMARK    6  A    between atoms: C_22  and  C_26
REMARK                            x       y       z     vdW  Elec       q    Type
REMARK                         _______ _______ _______ _____ _____    ______ ____
ROOT
ATOM      1  O   UNL     1      33.055 -15.643 -26.040  0.00  0.00    -0.270 OA
ATOM      2  N   UNL     1      34.538 -16.169 -24.337  0.00  0.00    -0.299 N 
ATOM      3  C   UNL     1      33.782 -15.274 -25.102  0.00  0.00    +0.246 C 
ATOM      4  H   UNL     1      35.093 -15.809 -23.608  0.00  0.00    +0.150 HD
ENDROOT
BRANCH   3   6
ATOM      5  C   UNL     1      34.117 -11.154 -24.135  0.00  0.00    +0.058 C 
ATOM      6  C   UNL     1      33.898 -13.862 -24.770  0.00  0.00    +0.053 C 
ATOM      7  C   UNL     1      34.189 -12.116 -23.127  0.00  0.00    +0.015 C 
ATOM      8  C   UNL     1      33.936 -11.547 -25.461  0.00  0.00    +0.015 C 
ATOM      9  C   UNL     1      34.080 -13.470 -23.445  0.00  0.00    +0.006 C 
ATOM     10  C   UNL     1      33.825 -12.901 -25.779  0.00  0.00    +0.006 C 
BRANCH   5  12
ATOM     11  O   UNL     1      32.094  -9.587 -22.786  0.00  0.00    -0.269 OA
ATOM     12  N   UNL     1      34.229  -9.747 -23.804  0.00  0.00    -0.233 N 
ATOM     13  C   UNL     1      33.180  -9.100 -23.102  0.00  0.00    +0.257 C 
ATOM     14  C   UNL     1      35.355  -9.016 -24.190  0.00  0.00    +0.072 C 
ATOM     15  C   UNL     1      33.397  -7.660 -22.758  0.00  0.00    +0.059 C 
ATOM     16  C   UNL     1      35.512  -7.720 -23.900  0.00  0.00    +0.017 C 
ATOM     17  C   UNL     1      34.504  -7.026 -23.156  0.00  0.00    +0.006 C 
ENDBRANCH   5  12
ENDBRANCH   3   6
BRANCH   2  18
ATOM     18  C   UNL     1      34.548 -17.598 -24.559  0.00  0.00    +0.111 C 
BRANCH  18  19
ATOM     19  C   UNL     1      35.542 -18.312 -23.658  0.00  0.00    +0.111 C 
BRANCH  19  21
ATOM     20  O   UNL     1      36.250 -18.546 -20.886  0.00  0.00    -0.270 OA
ATOM     21  N   UNL     1      34.886 -19.125 -22.670  0.00  0.00    -0.299 N 
ATOM     22  C   UNL     1      35.301 -19.176 -21.345  0.00  0.00    +0.252 C 
ATOM     23  H   UNL     1      34.111 -19.668 -22.944  0.00  0.00    +0.150 HD
BRANCH  22  26
ATOM     24 CL   UNL     1      33.996 -23.019 -17.669  0.00  0.00    -0.075 Cl
ATOM     25  S   UNL     1      35.413 -21.152 -19.492  0.00  0.00    -0.071 S 
ATOM     26  C   UNL     1      34.534 -20.085 -20.454  0.00  0.00    +0.084 C 
ATOM     27  C   UNL     1      33.200 -20.152 -20.330  0.00  0.00    +0.012 C 
ATOM     28  C   UNL     1      32.847 -21.151 -19.376  0.00  0.00    +0.019 C 
ATOM     29  C   UNL     1      33.955 -21.771 -18.842  0.00  0.00    +0.087 C 
ENDBRANCH  22  26
ENDBRANCH  19  21
ENDBRANCH  18  19
ENDBRANCH   2  18
TORSDOF 6
ENDMDL
MODEL 4
REMARK VINA RESULT:     -10.7      2.863      3.978
REMARK  Name = 10250490
REMARK  6 active torsions:
REMARK  status: ('A' for Active; 'I' for Inactive)
REMARK    1  A    between atoms: N_2  and  C_18
REMARK    2  A    between atoms: C_3  and  C_6
REMARK    3  A    between atoms: C_5  and  N_12
REMARK    4  A    between atoms: C_18  and  C_19
REMARK    5  A    between atoms: C_19  and  N_21
REMARK    6  A    between atoms: C_22  and  C_26
REMARK                            x       y       z     vdW  Elec       q    Type
REMARK                         _______ _______ _______ _____ _____    ______ ____
ROOT
ATOM      1  O   UNL     1      34.964 -22.816 -18.111  0.00  0.00    -0.270 OA
ATOM      2  N   UNL     1      36.839 -21.705 -17.322  0.00  0.00    -0.299 N 
ATOM      3  C   UNL     1      35.773 -21.877 -18.211  0.00  0.00    +0.246 C 
ATOM      4  H   UNL     1      37.443 -20.939 -17.459  0.00  0.00    +0.150 HD
ENDROOT
BRANCH   3   6
ATOM      5  C   UNL     1      35.428 -19.064 -21.371  0.00  0.00    +0.058 C 
ATOM      6  C   UNL     1      35.654 -20.913 -19.293  0.00  0.00    +0.053 C 
ATOM      7  C   UNL     1      34.289 -19.693 -20.869  0.00  0.00    +0.015 C 
ATOM      8  C   UNL     1      36.681 -19.360 -20.833  0.00  0.00    +0.015 C 
ATOM      9  C   UNL     1      34.402 -20.617 -19.830  0.00  0.00    +0.006 C 
ATOM     10  C   UNL     1      36.794 -20.284 -19.795  0.00  0.00    +0.006 C 
BRANCH   5  12
ATOM     11  O   UNL     1      35.071 -19.726 -24.164  0.00  0.00    -0.269 OA
ATOM     12  N   UNL     1      35.310 -18.104 -22.452  0.00  0.00    -0.233 N 
ATOM     13  C   UNL     1      35.097 -18.557 -23.779  0.00  0.00    +0.257 C 
ATOM     14  C   UNL     1      35.427 -16.736 -22.200  0.00  0.00    +0.072 C 
ATOM     15  C   UNL     1      34.939 -17.500 -24.826  0.00  0.00    +0.059 C 
ATOM     16  C   UNL     1      35.315 -15.810 -23.159  0.00  0.00    +0.017 C 
ATOM     17  C   UNL     1      35.057 -16.208 -24.510  0.00  0.00    +0.006 C 
ENDBRANCH   5  12
ENDBRANCH   3   6
BRANCH   2  18
ATOM     18  C   UNL     1      37.105 -22.592 -16.212  0.00  0.00    +0.111 C 
BRANCH  18  19
ATOM     19  C   UNL     1      36.330 -22.198 -14.965  0.00  0.00    +0.111 C 
BRANCH  19  21
ATOM     20  O   UNL     1      34.829 -24.357 -13.813  0.00  0.00    -0.270 OA
ATOM     21  N   UNL     1      34.919 -22.436 -15.110  0.00  0.00    -0.299 N 
ATOM     22  C   UNL     1      34.275 -23.513 -14.513  0.00  0.00    +0.252 C 
ATOM     23  H   UNL     1      34.388 -21.811 -15.655  0.00  0.00    +0.150 HD
BRANCH  22  26
ATOM     24 CL   UNL     1      29.053 -25.154 -14.376  0.00  0.00    -0.075 Cl
ATOM     25  S   UNL     1      31.969 -24.813 -13.930  0.00  0.00    -0.071 S 
ATOM     26  C   UNL     1      32.819 -23.634 -14.781  0.00  0.00    +0.084 C 
ATOM     27  C   UNL     1      32.095 -22.898 -15.638  0.00  0.00    +0.012 C 
ATOM     28  C   UNL     1      30.732 -23.317 -15.613  0.00  0.00    +0.019 C 
ATOM     29  C   UNL     1      30.525 -24.350 -14.726  0.00  0.00    +0.087 C 
ENDBRANCH  22  26
ENDBRANCH  19  21
ENDBRANCH  18  19
ENDBRANCH   2  18
TORSDOF 6
ENDMDL
MODEL 5
REMARK VINA RESULT:     -10.2      7.692     12.879
REMARK  Name = 10250490
REMARK  6 active torsions:
REMARK  status: ('A' for Active; 'I' for Inactive)
REMARK    1  A    between atoms: N_2  and  C_18
REMARK    2  A    between atoms: C_3  and  C_6
REMARK    3  A    between atoms: C_5  and  N_12
REMARK    4  A    between atoms: C_18  and  C_19
REMARK    5  A    between atoms: C_19  and  N_21
REMARK    6  A    between atoms: C_22  and  C_26
REMARK                            x       y       z     vdW  Elec       q    Type
REMARK                         _______ _______ _______ _____ _____    ______ ____
ROOT
ATOM      1  O   UNL     1      35.388 -16.043 -25.335  0.00  0.00    -0.270 OA
ATOM      2  N   UNL     1      34.758 -14.558 -23.671  0.00  0.00    -0.299 N 
ATOM      3  C   UNL     1      35.100 -15.829 -24.145  0.00  0.00    +0.246 C 
ATOM      4  H   UNL     1      34.542 -14.459 -22.715  0.00  0.00    +0.150 HD
ENDROOT
BRANCH   3   6
ATOM      5  C   UNL     1      35.052 -19.008 -21.333  0.00  0.00    +0.058 C 
ATOM      6  C   UNL     1      35.084 -16.919 -23.182  0.00  0.00    +0.053 C 
ATOM      7  C   UNL     1      34.629 -19.229 -22.644  0.00  0.00    +0.015 C 
ATOM      8  C   UNL     1      35.493 -17.742 -20.947  0.00  0.00    +0.015 C 
ATOM      9  C   UNL     1      34.645 -18.185 -23.568  0.00  0.00    +0.006 C 
ATOM     10  C   UNL     1      35.508 -16.697 -21.872  0.00  0.00    +0.006 C 
BRANCH   5  12
ATOM     11  O   UNL     1      32.672 -20.246 -20.254  0.00  0.00    -0.269 OA
ATOM     12  N   UNL     1      35.034 -20.094 -20.372  0.00  0.00    -0.233 N 
ATOM     13  C   UNL     1      33.796 -20.644 -19.950  0.00  0.00    +0.257 C 
ATOM     14  C   UNL     1      36.226 -20.590 -19.841  0.00  0.00    +0.072 C 
ATOM     15  C   UNL     1      33.869 -21.792 -18.994  0.00  0.00    +0.059 C 
ATOM     16  C   UNL     1      36.265 -21.596 -18.961  0.00  0.00    +0.017 C 
ATOM     17  C   UNL     1      35.048 -22.218 -18.532  0.00  0.00    +0.006 C 
ENDBRANCH   5  12
ENDBRANCH   3   6
BRANCH   2  18
ATOM     18  C   UNL     1      34.706 -13.380 -24.507  0.00  0.00    +0.111 C 
BRANCH  18  19
ATOM     19  C   UNL     1      33.574 -12.446 -24.114  0.00  0.00    +0.111 C 
BRANCH  19  21
ATOM     20  O   UNL     1      32.587 -10.297 -22.487  0.00  0.00    -0.270 OA
ATOM     21  N   UNL     1      33.965 -11.064 -24.188  0.00  0.00    -0.299 N 
ATOM     22  C   UNL     1      33.430 -10.089 -23.355  0.00  0.00    +0.252 C 
ATOM     23  H   UNL     1      34.638 -10.800 -24.856  0.00  0.00    +0.150 HD
BRANCH  22  26
ATOM     24 CL   UNL     1      33.634  -4.649 -23.946  0.00  0.00    -0.075 Cl
ATOM     25  S   UNL     1      32.782  -7.462 -23.522  0.00  0.00    -0.071 S 
ATOM     26  C   UNL     1      33.919  -8.703 -23.575  0.00  0.00    +0.084 C 
ATOM     27  C   UNL     1      35.184  -8.325 -23.815  0.00  0.00    +0.012 C 
ATOM     28  C   UNL     1      35.251  -6.910 -23.972  0.00  0.00    +0.019 C 
ATOM     29  C   UNL     1      34.016  -6.315 -23.836  0.00  0.00    +0.087 C 
ENDBRANCH  22  26
ENDBRANCH  19  21
ENDBRANCH  18  19
ENDBRANCH   2  18
TORSDOF 6
ENDMDL
MODEL 6
REMARK VINA RESULT:     -10.1      7.151     11.096
REMARK  Name = 10250490
REMARK  6 active torsions:
REMARK  status: ('A' for Active; 'I' for Inactive)
REMARK    1  A    between atoms: N_2  and  C_18
REMARK    2  A    between atoms: C_3  and  C_6
REMARK    3  A    between atoms: C_5  and  N_12
REMARK    4  A    between atoms: C_18  and  C_19
REMARK    5  A    between atoms: C_19  and  N_21
REMARK    6  A    between atoms: C_22  and  C_26
REMARK                            x       y       z     vdW  Elec       q    Type
REMARK                         _______ _______ _______ _____ _____    ______ ____
ROOT
ATOM      1  O   UNL     1      33.854 -14.164 -22.061  0.00  0.00    -0.270 OA
ATOM      2  N   UNL     1      33.322 -13.869 -24.298  0.00  0.00    -0.299 N 
ATOM      3  C   UNL     1      33.463 -13.422 -22.980  0.00  0.00    +0.246 C 
ATOM      4  H   UNL     1      33.008 -13.228 -24.977  0.00  0.00    +0.150 HD
ENDROOT
BRANCH   3   6
ATOM      5  C   UNL     1      32.425  -9.383 -22.190  0.00  0.00    +0.058 C 
ATOM      6  C   UNL     1      33.107 -12.038 -22.710  0.00  0.00    +0.053 C 
ATOM      7  C   UNL     1      33.321  -9.686 -23.216  0.00  0.00    +0.015 C 
ATOM      8  C   UNL     1      31.870 -10.409 -21.424  0.00  0.00    +0.015 C 
ATOM      9  C   UNL     1      33.661 -11.013 -23.476  0.00  0.00    +0.006 C 
ATOM     10  C   UNL     1      32.211 -11.736 -21.684  0.00  0.00    +0.006 C 
BRANCH   5  12
ATOM     11  O   UNL     1      33.077  -7.934 -19.773  0.00  0.00    -0.269 OA
ATOM     12  N   UNL     1      32.072  -8.003 -21.919  0.00  0.00    -0.233 N 
ATOM     13  C   UNL     1      32.487  -7.391 -20.708  0.00  0.00    +0.257 C 
ATOM     14  C   UNL     1      31.306  -7.276 -22.833  0.00  0.00    +0.072 C 
ATOM     15  C   UNL     1      32.122  -5.952 -20.530  0.00  0.00    +0.059 C 
ATOM     16  C   UNL     1      30.963  -5.998 -22.636  0.00  0.00    +0.017 C 
ATOM     17  C   UNL     1      31.391  -5.317 -21.451  0.00  0.00    +0.006 C 
ENDBRANCH   5  12
ENDBRANCH   3   6
BRANCH   2  18
ATOM     18  C   UNL     1      33.612 -15.221 -24.719  0.00  0.00    +0.111 C 
BRANCH  18  19
ATOM     19  C   UNL     1      35.106 -15.490 -24.797  0.00  0.00    +0.111 C 
BRANCH  19  21
ATOM     20  O   UNL     1      34.811 -18.337 -24.584  0.00  0.00    -0.270 OA
ATOM     21  N   UNL     1      35.561 -16.322 -23.715  0.00  0.00    -0.299 N 
ATOM     22  C   UNL     1      35.372 -17.698 -23.698  0.00  0.00    +0.252 C 
ATOM     23  H   UNL     1      36.024 -15.897 -22.956  0.00  0.00    +0.150 HD
BRANCH  22  26
ATOM     24 CL   UNL     1      35.719 -20.971 -19.321  0.00  0.00    -0.075 Cl
ATOM     25  S   UNL     1      34.827 -19.484 -21.732  0.00  0.00    -0.071 S 
ATOM     26  C   UNL     1      35.877 -18.411 -22.497  0.00  0.00    +0.084 C 
ATOM     27  C   UNL     1      37.095 -18.294 -21.944  0.00  0.00    +0.012 C 
ATOM     28  C   UNL     1      37.197 -19.141 -20.802  0.00  0.00    +0.019 C 
ATOM     29  C   UNL     1      36.036 -19.845 -20.573  0.00  0.00    +0.087 C 
ENDBRANCH  22  26
ENDBRANCH  19  21
ENDBRANCH  18  19
ENDBRANCH   2  18
TORSDOF 6
ENDMDL
MODEL 7
REMARK VINA RESULT:     -10.1      8.601     13.737
REMARK  Name = 10250490
REMARK  6 active torsions:
REMARK  status: ('A' for Active; 'I' for Inactive)
REMARK    1  A    between atoms: N_2  and  C_18
REMARK    2  A    between atoms: C_3  and  C_6
REMARK    3  A    between atoms: C_5  and  N_12
REMARK    4  A    between atoms: C_18  and  C_19
REMARK    5  A    between atoms: C_19  and  N_21
REMARK    6  A    between atoms: C_22  and  C_26
REMARK                            x       y       z     vdW  Elec       q    Type
REMARK                         _______ _______ _______ _____ _____    ______ ____
ROOT
ATOM      1  O   UNL     1      34.167 -14.486 -25.470  0.00  0.00    -0.270 OA
ATOM      2  N   UNL     1      34.536 -13.120 -23.634  0.00  0.00    -0.299 N 
ATOM      3  C   UNL     1      34.469 -14.364 -24.270  0.00  0.00    +0.246 C 
ATOM      4  H   UNL     1      34.783 -13.095 -22.681  0.00  0.00    +0.150 HD
ENDROOT
BRANCH   3   6
ATOM      5  C   UNL     1      35.282 -17.786 -21.893  0.00  0.00    +0.058 C 
ATOM      6  C   UNL     1      34.748 -15.537 -23.456  0.00  0.00    +0.053 C 
ATOM      7  C   UNL     1      35.050 -17.925 -23.261  0.00  0.00    +0.015 C 
ATOM      8  C   UNL     1      35.247 -16.520 -21.306  0.00  0.00    +0.015 C 
ATOM      9  C   UNL     1      34.784 -16.801 -24.043  0.00  0.00    +0.006 C 
ATOM     10  C   UNL     1      34.980 -15.396 -22.088  0.00  0.00    +0.006 C 
BRANCH   5  12
ATOM     11  O   UNL     1      37.912 -18.685 -21.095  0.00  0.00    -0.269 OA
ATOM     12  N   UNL     1      35.557 -18.955 -21.081  0.00  0.00    -0.233 N 
ATOM     13  C   UNL     1      36.894 -19.268 -20.723  0.00  0.00    +0.257 C 
ATOM     14  C   UNL     1      34.518 -19.790 -20.666  0.00  0.00    +0.072 C 
ATOM     15  C   UNL     1      37.086 -20.464 -19.844  0.00  0.00    +0.059 C 
ATOM     16  C   UNL     1      34.718 -20.874 -19.908  0.00  0.00    +0.017 C 
ATOM     17  C   UNL     1      36.042 -21.214 -19.480  0.00  0.00    +0.006 C 
ENDBRANCH   5  12
ENDBRANCH   3   6
BRANCH   2  18
ATOM     18  C   UNL     1      34.264 -11.866 -24.300  0.00  0.00    +0.111 C 
BRANCH  18  19
ATOM     19  C   UNL     1      33.555 -10.875 -23.392  0.00  0.00    +0.111 C 
BRANCH  19  21
ATOM     20  O   UNL     1      32.789  -8.512 -21.954  0.00  0.00    -0.270 OA
ATOM     21  N   UNL     1      33.797  -9.514 -23.787  0.00  0.00    -0.299 N 
ATOM     22  C   UNL     1      33.388  -8.428 -23.023  0.00  0.00    +0.252 C 
ATOM     23  H   UNL     1      34.272  -9.345 -24.633  0.00  0.00    +0.150 HD
BRANCH  22  26
ATOM     24 CL   UNL     1      32.931  -3.225 -24.668  0.00  0.00    -0.075 Cl
ATOM     25  S   UNL     1      32.450  -5.945 -23.579  0.00  0.00    -0.071 S 
ATOM     26  C   UNL     1      33.690  -7.085 -23.582  0.00  0.00    +0.084 C 
ATOM     27  C   UNL     1      34.859  -6.673 -24.097  0.00  0.00    +0.012 C 
ATOM     28  C   UNL     1      34.753  -5.319 -24.530  0.00  0.00    +0.019 C 
ATOM     29  C   UNL     1      33.496  -4.801 -24.307  0.00  0.00    +0.087 C 
ENDBRANCH  22  26
ENDBRANCH  19  21
ENDBRANCH  18  19
ENDBRANCH   2  18
TORSDOF 6
ENDMDL
MODEL 8
REMARK VINA RESULT:     -10.0      5.433     10.373
REMARK  Name = 10250490
REMARK  6 active torsions:
REMARK  status: ('A' for Active; 'I' for Inactive)
REMARK    1  A    between atoms: N_2  and  C_18
REMARK    2  A    between atoms: C_3  and  C_6
REMARK    3  A    between atoms: C_5  and  N_12
REMARK    4  A    between atoms: C_18  and  C_19
REMARK    5  A    between atoms: C_19  and  N_21
REMARK    6  A    between atoms: C_22  and  C_26
REMARK                            x       y       z     vdW  Elec       q    Type
REMARK                         _______ _______ _______ _____ _____    ______ ____
ROOT
ATOM      1  O   UNL     1      36.916 -18.661 -22.991  0.00  0.00    -0.270 OA
ATOM      2  N   UNL     1      34.729 -17.898 -23.076  0.00  0.00    -0.299 N 
ATOM      3  C   UNL     1      35.762 -18.667 -22.529  0.00  0.00    +0.246 C 
ATOM      4  H   UNL     1      33.837 -17.950 -22.660  0.00  0.00    +0.150 HD
ENDROOT
BRANCH   3   6
ATOM      5  C   UNL     1      34.785 -21.124 -19.208  0.00  0.00    +0.058 C 
ATOM      6  C   UNL     1      35.426 -19.509 -21.392  0.00  0.00    +0.053 C 
ATOM      7  C   UNL     1      33.770 -20.570 -19.990  0.00  0.00    +0.015 C 
ATOM      8  C   UNL     1      36.121 -20.870 -19.520  0.00  0.00    +0.015 C 
ATOM      9  C   UNL     1      34.091 -19.763 -21.081  0.00  0.00    +0.006 C 
ATOM     10  C   UNL     1      36.442 -20.063 -20.612  0.00  0.00    +0.006 C 
BRANCH   5  12
ATOM     11  O   UNL     1      36.663 -22.086 -17.231  0.00  0.00    -0.269 OA
ATOM     12  N   UNL     1      34.451 -21.962 -18.073  0.00  0.00    -0.233 N 
ATOM     13  C   UNL     1      35.460 -22.335 -17.149  0.00  0.00    +0.257 C 
ATOM     14  C   UNL     1      33.145 -22.424 -17.894  0.00  0.00    +0.072 C 
ATOM     15  C   UNL     1      35.021 -23.160 -15.981  0.00  0.00    +0.059 C 
ATOM     16  C   UNL     1      32.783 -23.190 -16.859  0.00  0.00    +0.017 C 
ATOM     17  C   UNL     1      33.751 -23.561 -15.871  0.00  0.00    +0.006 C 
ENDBRANCH   5  12
ENDBRANCH   3   6
BRANCH   2  18
ATOM     18  C   UNL     1      34.898 -17.030 -24.220  0.00  0.00    +0.111 C 
BRANCH  18  19
ATOM     19  C   UNL     1      35.632 -15.748 -23.864  0.00  0.00    +0.111 C 
BRANCH  19  21
ATOM     20  O   UNL     1      34.993 -15.281 -21.105  0.00  0.00    -0.270 OA
ATOM     21  N   UNL     1      34.743 -14.743 -23.347  0.00  0.00    -0.299 N 
ATOM     22  C   UNL     1      34.492 -14.591 -21.989  0.00  0.00    +0.252 C 
ATOM     23  H   UNL     1      34.293 -14.139 -23.982  0.00  0.00    +0.150 HD
BRANCH  22  26
ATOM     24 CL   UNL     1      31.429 -10.052 -22.075  0.00  0.00    -0.075 Cl
ATOM     25  S   UNL     1      33.328 -12.248 -22.701  0.00  0.00    -0.071 S 
ATOM     26  C   UNL     1      33.528 -13.523 -21.619  0.00  0.00    +0.084 C 
ATOM     27  C   UNL     1      32.789 -13.459 -20.500  0.00  0.00    +0.012 C 
ATOM     28  C   UNL     1      31.987 -12.280 -20.510  0.00  0.00    +0.019 C 
ATOM     29  C   UNL     1      32.182 -11.531 -21.649  0.00  0.00    +0.087 C 
ENDBRANCH  22  26
ENDBRANCH  19  21
ENDBRANCH  18  19
ENDBRANCH   2  18
TORSDOF 6
ENDMDL
MODEL 9
REMARK VINA RESULT:     -10.0      5.405     10.944
REMARK  Name = 10250490
REMARK  6 active torsions:
REMARK  status: ('A' for Active; 'I' for Inactive)
REMARK    1  A    between atoms: N_2  and  C_18
REMARK    2  A    between atoms: C_3  and  C_6
REMARK    3  A    between atoms: C_5  and  N_12
REMARK    4  A    between atoms: C_18  and  C_19
REMARK    5  A    between atoms: C_19  and  N_21
REMARK    6  A    between atoms: C_22  and  C_26
REMARK                            x       y       z     vdW  Elec       q    Type
REMARK                         _______ _______ _______ _____ _____    ______ ____
ROOT
ATOM      1  O   UNL     1      36.655 -18.706 -21.511  0.00  0.00    -0.270 OA
ATOM      2  N   UNL     1      35.017 -19.626 -22.869  0.00  0.00    -0.299 N 
ATOM      3  C   UNL     1      35.676 -19.460 -21.646  0.00  0.00    +0.246 C 
ATOM      4  H   UNL     1      34.248 -20.239 -22.906  0.00  0.00    +0.150 HD
ENDROOT
BRANCH   3   6
ATOM      5  C   UNL     1      34.234 -21.723 -18.357  0.00  0.00    +0.058 C 
ATOM      6  C   UNL     1      35.182 -20.236 -20.520  0.00  0.00    +0.053 C 
ATOM      7  C   UNL     1      33.337 -21.068 -19.201  0.00  0.00    +0.015 C 
ATOM      8  C   UNL     1      35.606 -21.635 -18.596  0.00  0.00    +0.015 C 
ATOM      9  C   UNL     1      33.811 -20.325 -20.282  0.00  0.00    +0.006 C 
ATOM     10  C   UNL     1      36.080 -20.891 -19.677  0.00  0.00    +0.006 C 
BRANCH   5  12
ATOM     11  O   UNL     1      35.885 -23.028 -16.373  0.00  0.00    -0.269 OA
ATOM     12  N   UNL     1      33.742 -22.494 -17.233  0.00  0.00    -0.233 N 
ATOM     13  C   UNL     1      34.656 -23.053 -16.303  0.00  0.00    +0.257 C 
ATOM     14  C   UNL     1      32.372 -22.712 -17.069  0.00  0.00    +0.072 C 
ATOM     15  C   UNL     1      34.062 -23.793 -15.147  0.00  0.00    +0.059 C 
ATOM     16  C   UNL     1      31.866 -23.406 -16.044  0.00  0.00    +0.017 C 
ATOM     17  C   UNL     1      32.740 -23.956 -15.051  0.00  0.00    +0.006 C 
ENDBRANCH   5  12
ENDBRANCH   3   6
BRANCH   2  18
ATOM     18  C   UNL     1      35.404 -18.944 -24.084  0.00  0.00    +0.111 C 
BRANCH  18  19
ATOM     19  C   UNL     1      34.270 -18.112 -24.661  0.00  0.00    +0.111 C 
BRANCH  19  21
ATOM     20  O   UNL     1      33.100 -15.853 -25.991  0.00  0.00    -0.270 OA
ATOM     21  N   UNL     1      34.347 -16.736 -24.246  0.00  0.00    -0.299 N 
ATOM     22  C   UNL     1      33.746 -15.705 -24.957  0.00  0.00    +0.252 C 
ATOM     23  H   UNL     1      34.846 -16.518 -23.426  0.00  0.00    +0.150 HD
BRANCH  22  26
ATOM     24 CL   UNL     1      34.200 -10.265 -24.524  0.00  0.00    -0.075 Cl
ATOM     25  S   UNL     1      33.833 -13.049 -25.492  0.00  0.00    -0.071 S 
ATOM     26  C   UNL     1      33.939 -14.337 -24.412  0.00  0.00    +0.084 C 
ATOM     27  C   UNL     1      34.193 -14.008 -23.136  0.00  0.00    +0.012 C 
ATOM     28  C   UNL     1      34.315 -12.593 -23.010  0.00  0.00    +0.019 C 
ATOM     29  C   UNL     1      34.141 -11.949 -24.215  0.00  0.00    +0.087 C 
ENDBRANCH  22  26
ENDBRANCH  19  21
ENDBRANCH  18  19
ENDBRANCH   2  18
TORSDOF 6
ENDMDL
