MODEL 1
REMARK VINA RESULT:     -11.7      0.000      0.000
REMARK  Name = 16755766
REMARK  5 active torsions:
REMARK  status: ('A' for Active; 'I' for Inactive)
REMARK    1  A    between atoms: N_1  and  C_25
REMARK    2  A    between atoms: N_3  and  C_12
REMARK    3  A    between atoms: C_5  and  C_20
REMARK    4  A    between atoms: C_25  and  C_26
REMARK    5  A    between atoms: C_26  and  C_29
REMARK                            x       y       z     vdW  Elec       q    Type
REMARK                         _______ _______ _______ _____ _____    ______ ____
ROOT
ATOM      1  N   UNL     1      34.783 -23.479 -15.561  0.00  0.00    -0.174 N 
ATOM      2  N   UNL     1      34.692 -22.700 -16.641  0.00  0.00    -0.096 NA
ATOM      3  N   UNL     1      36.479 -21.683 -17.872  0.00  0.00    -0.246 N 
ATOM      4  N   UNL     1      36.861 -23.020 -15.989  0.00  0.00    -0.319 NA
ATOM      5  C   UNL     1      36.063 -23.670 -15.174  0.00  0.00    +0.216 C 
ATOM      6  C   UNL     1      35.983 -22.447 -16.863  0.00  0.00    +0.165 C 
ATOM      7  H   UNL     1      37.451 -21.541 -17.822  0.00  0.00    +0.165 HD
ENDROOT
BRANCH   3  12
ATOM      8  F   UNL     1      35.265 -17.226 -22.697  0.00  0.00    -0.125 F 
ATOM      9  F   UNL     1      35.683 -18.983 -23.931  0.00  0.00    -0.125 F 
ATOM     10  O   UNL     1      36.568 -18.874 -21.846  0.00  0.00    -0.395 OA
ATOM     11  O   UNL     1      34.202 -19.172 -22.226  0.00  0.00    -0.395 OA
ATOM     12  C   UNL     1      35.861 -21.049 -18.986  0.00  0.00    +0.061 C 
ATOM     13  C   UNL     1      35.987 -19.672 -20.906  0.00  0.00    +0.183 C 
ATOM     14  C   UNL     1      36.632 -20.267 -19.840  0.00  0.00    +0.056 C 
ATOM     15  C   UNL     1      34.637 -19.842 -21.123  0.00  0.00    +0.182 C 
ATOM     16  C   UNL     1      34.487 -21.227 -19.199  0.00  0.00    +0.019 C 
ATOM     17  C   UNL     1      33.860 -20.615 -20.286  0.00  0.00    +0.042 C 
ATOM     18  C   UNL     1      35.429 -18.572 -22.664  0.00  0.00    +0.589 C 
ENDBRANCH   3  12
BRANCH   5  20
ATOM     19  N   UNL     1      37.239 -25.991 -11.830  0.00  0.00    -0.242 NA
ATOM     20  C   UNL     1      36.462 -24.461 -14.036  0.00  0.00    +0.050 C 
ATOM     21  C   UNL     1      37.032 -25.716 -14.223  0.00  0.00    +0.025 C 
ATOM     22  C   UNL     1      36.281 -23.971 -12.748  0.00  0.00    +0.025 C 
ATOM     23  C   UNL     1      37.400 -26.435 -13.097  0.00  0.00    +0.099 C 
ATOM     24  C   UNL     1      36.682 -24.768 -11.688  0.00  0.00    +0.099 C 
ENDBRANCH   5  20
BRANCH   1  25
ATOM     25  C   UNL     1      33.569 -24.000 -14.945  0.00  0.00    +0.129 C 
BRANCH  25  26
ATOM     26  C   UNL     1      32.517 -22.911 -14.737  0.00  0.00    +0.109 C 
BRANCH  26  29
ATOM     27  O   UNL     1      31.240 -22.532 -16.730  0.00  0.00    -0.275 OA
ATOM     28  N   UNL     1      30.293 -23.933 -15.143  0.00  0.00    -0.276 N 
ATOM     29  C   UNL     1      31.301 -23.098 -15.635  0.00  0.00    +0.228 C 
ATOM     30  C   UNL     1      30.387 -24.593 -13.843  0.00  0.00    +0.115 C 
ATOM     31  C   UNL     1      29.070 -24.205 -15.889  0.00  0.00    +0.115 C 
ENDBRANCH  26  29
ENDBRANCH  25  26
ENDBRANCH   1  25
TORSDOF 5
ENDMDL
MODEL 2
REMARK VINA RESULT:     -11.6      4.363      8.154
REMARK  Name = 16755766
REMARK  5 active torsions:
REMARK  status: ('A' for Active; 'I' for Inactive)
REMARK    1  A    between atoms: N_1  and  C_25
REMARK    2  A    between atoms: N_3  and  C_12
REMARK    3  A    between atoms: C_5  and  C_20
REMARK    4  A    between atoms: C_25  and  C_26
REMARK    5  A    between atoms: C_26  and  C_29
REMARK                            x       y       z     vdW  Elec       q    Type
REMARK                         _______ _______ _______ _____ _____    ______ ____
ROOT
ATOM      1  N   UNL     1      32.699 -23.108 -15.834  0.00  0.00    -0.174 N 
ATOM      2  N   UNL     1      33.905 -23.299 -15.296  0.00  0.00    -0.096 NA
ATOM      3  N   UNL     1      34.424 -24.246 -13.156  0.00  0.00    -0.246 N 
ATOM      4  N   UNL     1      32.223 -23.994 -13.910  0.00  0.00    -0.319 NA
ATOM      5  C   UNL     1      31.704 -23.516 -15.018  0.00  0.00    +0.216 C 
ATOM      6  C   UNL     1      33.562 -23.841 -14.125  0.00  0.00    +0.165 C 
ATOM      7  H   UNL     1      33.981 -24.541 -12.328  0.00  0.00    +0.165 HD
ENDROOT
BRANCH   3  12
ATOM      8  F   UNL     1      40.618 -26.644 -13.866  0.00  0.00    -0.125 F 
ATOM      9  F   UNL     1      40.761 -24.894 -15.171  0.00  0.00    -0.125 F 
ATOM     10  O   UNL     1      38.724 -25.821 -14.803  0.00  0.00    -0.395 OA
ATOM     11  O   UNL     1      39.928 -24.633 -13.079  0.00  0.00    -0.395 OA
ATOM     12  C   UNL     1      35.844 -24.325 -13.108  0.00  0.00    +0.061 C 
ATOM     13  C   UNL     1      37.894 -25.134 -13.969  0.00  0.00    +0.183 C 
ATOM     14  C   UNL     1      36.517 -25.087 -14.058  0.00  0.00    +0.056 C 
ATOM     15  C   UNL     1      38.581 -24.456 -12.987  0.00  0.00    +0.182 C 
ATOM     16  C   UNL     1      36.534 -23.633 -12.104  0.00  0.00    +0.019 C 
ATOM     17  C   UNL     1      37.928 -23.696 -12.038  0.00  0.00    +0.042 C 
ATOM     18  C   UNL     1      39.995 -25.493 -14.225  0.00  0.00    +0.589 C 
ENDBRANCH   3  12
BRANCH   5  20
ATOM     19  N   UNL     1      27.580 -23.251 -15.956  0.00  0.00    -0.242 NA
ATOM     20  C   UNL     1      30.299 -23.426 -15.336  0.00  0.00    +0.050 C 
ATOM     21  C   UNL     1      29.560 -22.322 -14.926  0.00  0.00    +0.025 C 
ATOM     22  C   UNL     1      29.681 -24.442 -16.055  0.00  0.00    +0.025 C 
ATOM     23  C   UNL     1      28.216 -22.282 -15.258  0.00  0.00    +0.099 C 
ATOM     24  C   UNL     1      28.331 -24.308 -16.337  0.00  0.00    +0.099 C 
ENDBRANCH   5  20
BRANCH   1  25
ATOM     25  C   UNL     1      32.590 -22.505 -17.157  0.00  0.00    +0.129 C 
BRANCH  25  26
ATOM     26  C   UNL     1      33.891 -22.617 -17.950  0.00  0.00    +0.109 C 
BRANCH  26  29
ATOM     27  O   UNL     1      32.893 -21.493 -19.817  0.00  0.00    -0.275 OA
ATOM     28  N   UNL     1      35.150 -21.098 -19.454  0.00  0.00    -0.276 N 
ATOM     29  C   UNL     1      33.918 -21.690 -19.158  0.00  0.00    +0.228 C 
ATOM     30  C   UNL     1      36.350 -21.345 -18.659  0.00  0.00    +0.115 C 
ATOM     31  C   UNL     1      35.329 -20.189 -20.580  0.00  0.00    +0.115 C 
ENDBRANCH  26  29
ENDBRANCH  25  26
ENDBRANCH   1  25
TORSDOF 5
ENDMDL
MODEL 3
REMARK VINA RESULT:     -10.9      1.898      4.566
REMARK  Name = 16755766
REMARK  5 active torsions:
REMARK  status: ('A' for Active; 'I' for Inactive)
REMARK    1  A    between atoms: N_1  and  C_25
REMARK    2  A    between atoms: N_3  and  C_12
REMARK    3  A    between atoms: C_5  and  C_20
REMARK    4  A    between atoms: C_25  and  C_26
REMARK    5  A    between atoms: C_26  and  C_29
REMARK                            x       y       z     vdW  Elec       q    Type
REMARK                         _______ _______ _______ _____ _____    ______ ____
ROOT
ATOM      1  N   UNL     1      33.798 -23.230 -16.344  0.00  0.00    -0.174 N 
ATOM      2  N   UNL     1      34.283 -22.544 -17.381  0.00  0.00    -0.096 NA
ATOM      3  N   UNL     1      33.055 -21.294 -19.017  0.00  0.00    -0.246 N 
ATOM      4  N   UNL     1      32.001 -22.437 -17.268  0.00  0.00    -0.319 NA
ATOM      5  C   UNL     1      32.451 -23.169 -16.274  0.00  0.00    +0.216 C 
ATOM      6  C   UNL     1      33.150 -22.080 -17.912  0.00  0.00    +0.165 C 
ATOM      7  H   UNL     1      32.130 -21.124 -19.306  0.00  0.00    +0.165 HD
ENDROOT
BRANCH   3  12
ATOM      8  F   UNL     1      35.953 -18.520 -24.358  0.00  0.00    -0.125 F 
ATOM      9  F   UNL     1      36.009 -16.812 -22.994  0.00  0.00    -0.125 F 
ATOM     10  O   UNL     1      34.426 -18.406 -22.686  0.00  0.00    -0.395 OA
ATOM     11  O   UNL     1      36.767 -18.819 -22.263  0.00  0.00    -0.395 OA
ATOM     12  C   UNL     1      34.038 -20.671 -19.836  0.00  0.00    +0.061 C 
ATOM     13  C   UNL     1      34.623 -19.252 -21.636  0.00  0.00    +0.183 C 
ATOM     14  C   UNL     1      33.633 -19.832 -20.869  0.00  0.00    +0.056 C 
ATOM     15  C   UNL     1      35.959 -19.487 -21.395  0.00  0.00    +0.182 C 
ATOM     16  C   UNL     1      35.394 -20.917 -19.584  0.00  0.00    +0.019 C 
ATOM     17  C   UNL     1      36.376 -20.315 -20.375  0.00  0.00    +0.042 C 
ATOM     18  C   UNL     1      35.785 -18.147 -23.065  0.00  0.00    +0.589 C 
ENDBRANCH   3  12
BRANCH   5  20
ATOM     19  N   UNL     1      30.119 -25.081 -13.298  0.00  0.00    -0.242 NA
ATOM     20  C   UNL     1      31.655 -23.819 -15.262  0.00  0.00    +0.050 C 
ATOM     21  C   UNL     1      30.733 -24.797 -15.619  0.00  0.00    +0.025 C 
ATOM     22  C   UNL     1      31.810 -23.471 -13.924  0.00  0.00    +0.025 C 
ATOM     23  C   UNL     1      29.996 -25.392 -14.608  0.00  0.00    +0.099 C 
ATOM     24  C   UNL     1      31.024 -24.126 -12.990  0.00  0.00    +0.099 C 
ENDBRANCH   5  20
BRANCH   1  25
ATOM     25  C   UNL     1      34.714 -23.938 -15.458  0.00  0.00    +0.129 C 
BRANCH  25  26
ATOM     26  C   UNL     1      35.591 -22.980 -14.653  0.00  0.00    +0.109 C 
BRANCH  26  29
ATOM     27  O   UNL     1      37.793 -23.833 -15.064  0.00  0.00    -0.275 OA
ATOM     28  N   UNL     1      37.039 -23.922 -12.873  0.00  0.00    -0.276 N 
ATOM     29  C   UNL     1      36.910 -23.615 -14.231  0.00  0.00    +0.228 C 
ATOM     30  C   UNL     1      35.979 -23.655 -11.904  0.00  0.00    +0.115 C 
ATOM     31  C   UNL     1      38.242 -24.534 -12.321  0.00  0.00    +0.115 C 
ENDBRANCH  26  29
ENDBRANCH  25  26
ENDBRANCH   1  25
TORSDOF 5
ENDMDL
MODEL 4
REMARK VINA RESULT:     -10.2      1.238      2.142
REMARK  Name = 16755766
REMARK  5 active torsions:
REMARK  status: ('A' for Active; 'I' for Inactive)
REMARK    1  A    between atoms: N_1  and  C_25
REMARK    2  A    between atoms: N_3  and  C_12
REMARK    3  A    between atoms: C_5  and  C_20
REMARK    4  A    between atoms: C_25  and  C_26
REMARK    5  A    between atoms: C_26  and  C_29
REMARK                            x       y       z     vdW  Elec       q    Type
REMARK                         _______ _______ _______ _____ _____    ______ ____
ROOT
ATOM      1  N   UNL     1      35.033 -22.681 -17.112  0.00  0.00    -0.174 N 
ATOM      2  N   UNL     1      35.197 -21.856 -18.147  0.00  0.00    -0.096 NA
ATOM      3  N   UNL     1      37.082 -20.453 -18.621  0.00  0.00    -0.246 N 
ATOM      4  N   UNL     1      36.993 -21.832 -16.732  0.00  0.00    -0.319 NA
ATOM      5  C   UNL     1      36.091 -22.670 -16.274  0.00  0.00    +0.216 C 
ATOM      6  C   UNL     1      36.406 -21.363 -17.871  0.00  0.00    +0.165 C 
ATOM      7  H   UNL     1      37.922 -20.145 -18.210  0.00  0.00    +0.165 HD
ENDROOT
BRANCH   3  12
ATOM      8  F   UNL     1      34.585 -19.594 -24.756  0.00  0.00    -0.125 F 
ATOM      9  F   UNL     1      33.671 -17.877 -23.755  0.00  0.00    -0.125 F 
ATOM     10  O   UNL     1      34.266 -19.679 -22.514  0.00  0.00    -0.395 OA
ATOM     11  O   UNL     1      35.900 -18.217 -23.524  0.00  0.00    -0.395 OA
ATOM     12  C   UNL     1      36.808 -19.860 -19.885  0.00  0.00    +0.061 C 
ATOM     13  C   UNL     1      35.380 -19.535 -21.744  0.00  0.00    +0.183 C 
ATOM     14  C   UNL     1      35.600 -20.133 -20.519  0.00  0.00    +0.056 C 
ATOM     15  C   UNL     1      36.312 -18.701 -22.321  0.00  0.00    +0.182 C 
ATOM     16  C   UNL     1      37.762 -19.013 -20.464  0.00  0.00    +0.019 C 
ATOM     17  C   UNL     1      37.514 -18.420 -21.704  0.00  0.00    +0.042 C 
ATOM     18  C   UNL     1      34.614 -18.843 -23.626  0.00  0.00    +0.589 C 
ENDBRANCH   3  12
BRANCH   5  20
ATOM     19  N   UNL     1      36.372 -24.988 -12.738  0.00  0.00    -0.242 NA
ATOM     20  C   UNL     1      36.188 -23.458 -15.069  0.00  0.00    +0.050 C 
ATOM     21  C   UNL     1      35.811 -22.913 -13.847  0.00  0.00    +0.025 C 
ATOM     22  C   UNL     1      36.656 -24.765 -15.128  0.00  0.00    +0.025 C 
ATOM     23  C   UNL     1      35.921 -23.713 -12.720  0.00  0.00    +0.099 C 
ATOM     24  C   UNL     1      36.729 -25.481 -13.944  0.00  0.00    +0.099 C 
ENDBRANCH   5  20
BRANCH   1  25
ATOM     25  C   UNL     1      33.800 -23.452 -16.995  0.00  0.00    +0.129 C 
BRANCH  25  26
ATOM     26  C   UNL     1      32.893 -22.922 -15.885  0.00  0.00    +0.109 C 
BRANCH  26  29
ATOM     27  O   UNL     1      31.063 -22.082 -17.185  0.00  0.00    -0.275 OA
ATOM     28  N   UNL     1      30.564 -23.742 -15.644  0.00  0.00    -0.276 N 
ATOM     29  C   UNL     1      31.431 -22.866 -16.306  0.00  0.00    +0.228 C 
ATOM     30  C   UNL     1      31.022 -24.663 -14.606  0.00  0.00    +0.115 C 
ATOM     31  C   UNL     1      29.138 -23.801 -15.938  0.00  0.00    +0.115 C 
ENDBRANCH  26  29
ENDBRANCH  25  26
ENDBRANCH   1  25
TORSDOF 5
ENDMDL
MODEL 5
REMARK VINA RESULT:      -9.5      6.517     11.469
REMARK  Name = 16755766
REMARK  5 active torsions:
REMARK  status: ('A' for Active; 'I' for Inactive)
REMARK    1  A    between atoms: N_1  and  C_25
REMARK    2  A    between atoms: N_3  and  C_12
REMARK    3  A    between atoms: C_5  and  C_20
REMARK    4  A    between atoms: C_25  and  C_26
REMARK    5  A    between atoms: C_26  and  C_29
REMARK                            x       y       z     vdW  Elec       q    Type
REMARK                         _______ _______ _______ _____ _____    ______ ____
ROOT
ATOM      1  N   UNL     1      34.565 -14.540 -21.931  0.00  0.00    -0.174 N 
ATOM      2  N   UNL     1      34.782 -15.762 -21.441  0.00  0.00    -0.096 NA
ATOM      3  N   UNL     1      35.217 -17.778 -22.662  0.00  0.00    -0.246 N 
ATOM      4  N   UNL     1      34.856 -15.725 -23.727  0.00  0.00    -0.319 NA
ATOM      5  C   UNL     1      34.608 -14.515 -23.281  0.00  0.00    +0.216 C 
ATOM      6  C   UNL     1      34.954 -16.448 -22.573  0.00  0.00    +0.165 C 
ATOM      7  H   UNL     1      35.226 -18.120 -23.585  0.00  0.00    +0.165 HD
ENDROOT
BRANCH   3  12
ATOM      8  F   UNL     1      34.302 -21.917 -17.500  0.00  0.00    -0.125 F 
ATOM      9  F   UNL     1      34.665 -23.388 -19.077  0.00  0.00    -0.125 F 
ATOM     10  O   UNL     1      33.856 -21.349 -19.648  0.00  0.00    -0.395 OA
ATOM     11  O   UNL     1      36.111 -21.659 -18.843  0.00  0.00    -0.395 OA
ATOM     12  C   UNL     1      35.481 -18.770 -21.677  0.00  0.00    +0.061 C 
ATOM     13  C   UNL     1      34.740 -20.496 -20.239  0.00  0.00    +0.183 C 
ATOM     14  C   UNL     1      34.434 -19.548 -21.194  0.00  0.00    +0.056 C 
ATOM     15  C   UNL     1      36.026 -20.674 -19.779  0.00  0.00    +0.182 C 
ATOM     16  C   UNL     1      36.793 -18.943 -21.215  0.00  0.00    +0.019 C 
ATOM     17  C   UNL     1      37.076 -19.912 -20.249  0.00  0.00    +0.042 C 
ATOM     18  C   UNL     1      34.738 -22.068 -18.776  0.00  0.00    +0.589 C 
ENDBRANCH   3  12
BRANCH   5  20
ATOM     19  N   UNL     1      34.011 -11.045 -25.638  0.00  0.00    -0.242 NA
ATOM     20  C   UNL     1      34.404 -13.333 -24.082  0.00  0.00    +0.050 C 
ATOM     21  C   UNL     1      34.739 -12.081 -23.578  0.00  0.00    +0.025 C 
ATOM     22  C   UNL     1      33.873 -13.442 -25.362  0.00  0.00    +0.025 C 
ATOM     23  C   UNL     1      34.525 -10.978 -24.390  0.00  0.00    +0.099 C 
ATOM     24  C   UNL     1      33.698 -12.278 -26.093  0.00  0.00    +0.099 C 
ENDBRANCH   5  20
BRANCH   1  25
ATOM     25  C   UNL     1      34.308 -13.434 -21.017  0.00  0.00    +0.129 C 
BRANCH  25  26
ATOM     26  C   UNL     1      32.845 -13.375 -20.580  0.00  0.00    +0.109 C 
BRANCH  26  29
ATOM     27  O   UNL     1      31.675 -12.614 -22.529  0.00  0.00    -0.275 OA
ATOM     28  N   UNL     1      31.756 -11.151 -20.730  0.00  0.00    -0.276 N 
ATOM     29  C   UNL     1      32.040 -12.358 -21.378  0.00  0.00    +0.228 C 
ATOM     30  C   UNL     1      32.200 -10.870 -19.367  0.00  0.00    +0.115 C 
ATOM     31  C   UNL     1      30.997 -10.083 -21.368  0.00  0.00    +0.115 C 
ENDBRANCH  26  29
ENDBRANCH  25  26
ENDBRANCH   1  25
TORSDOF 5
ENDMDL
MODEL 6
REMARK VINA RESULT:      -9.4      8.832     13.528
REMARK  Name = 16755766
REMARK  5 active torsions:
REMARK  status: ('A' for Active; 'I' for Inactive)
REMARK    1  A    between atoms: N_1  and  C_25
REMARK    2  A    between atoms: N_3  and  C_12
REMARK    3  A    between atoms: C_5  and  C_20
REMARK    4  A    between atoms: C_25  and  C_26
REMARK    5  A    between atoms: C_26  and  C_29
REMARK                            x       y       z     vdW  Elec       q    Type
REMARK                         _______ _______ _______ _____ _____    ______ ____
ROOT
ATOM      1  N   UNL     1      32.970 -11.593 -22.606  0.00  0.00    -0.174 N 
ATOM      2  N   UNL     1      33.275 -12.889 -22.698  0.00  0.00    -0.096 NA
ATOM      3  N   UNL     1      34.852 -13.924 -24.178  0.00  0.00    -0.246 N 
ATOM      4  N   UNL     1      34.462 -11.616 -24.183  0.00  0.00    -0.319 NA
ATOM      5  C   UNL     1      33.669 -10.839 -23.482  0.00  0.00    +0.216 C 
ATOM      6  C   UNL     1      34.188 -12.852 -23.672  0.00  0.00    +0.165 C 
ATOM      7  H   UNL     1      35.423 -13.709 -24.950  0.00  0.00    +0.165 HD
ENDROOT
BRANCH   3  12
ATOM      8  F   UNL     1      36.591 -19.556 -21.035  0.00  0.00    -0.125 F 
ATOM      9  F   UNL     1      34.499 -19.429 -20.410  0.00  0.00    -0.125 F 
ATOM     10  O   UNL     1      35.585 -17.525 -20.987  0.00  0.00    -0.395 OA
ATOM     11  O   UNL     1      34.997 -19.212 -22.610  0.00  0.00    -0.395 OA
ATOM     12  C   UNL     1      34.879 -15.297 -23.805  0.00  0.00    +0.061 C 
ATOM     13  C   UNL     1      35.257 -16.989 -22.196  0.00  0.00    +0.183 C 
ATOM     14  C   UNL     1      35.245 -15.645 -22.509  0.00  0.00    +0.056 C 
ATOM     15  C   UNL     1      34.921 -17.953 -23.122  0.00  0.00    +0.182 C 
ATOM     16  C   UNL     1      34.536 -16.270 -24.754  0.00  0.00    +0.019 C 
ATOM     17  C   UNL     1      34.556 -17.624 -24.411  0.00  0.00    +0.042 C 
ATOM     18  C   UNL     1      35.416 -18.920 -21.270  0.00  0.00    +0.589 C 
ENDBRANCH   3  12
BRANCH   5  20
ATOM     19  N   UNL     1      33.296  -6.634 -23.853  0.00  0.00    -0.242 NA
ATOM     20  C   UNL     1      33.541  -9.408 -23.610  0.00  0.00    +0.050 C 
ATOM     21  C   UNL     1      32.282  -8.818 -23.631  0.00  0.00    +0.025 C 
ATOM     22  C   UNL     1      34.677  -8.613 -23.710  0.00  0.00    +0.025 C 
ATOM     23  C   UNL     1      32.215  -7.439 -23.753  0.00  0.00    +0.099 C 
ATOM     24  C   UNL     1      34.502  -7.244 -23.830  0.00  0.00    +0.099 C 
ENDBRANCH   5  20
BRANCH   1  25
ATOM     25  C   UNL     1      31.969 -11.157 -21.640  0.00  0.00    +0.129 C 
BRANCH  25  26
ATOM     26  C   UNL     1      32.604 -10.559 -20.385  0.00  0.00    +0.109 C 
BRANCH  26  29
ATOM     27  O   UNL     1      30.653  -9.859 -19.181  0.00  0.00    -0.275 OA
ATOM     28  N   UNL     1      32.161  -8.197 -19.767  0.00  0.00    -0.276 N 
ATOM     29  C   UNL     1      31.710  -9.520 -19.721  0.00  0.00    +0.228 C 
ATOM     30  C   UNL     1      33.417  -7.819 -20.411  0.00  0.00    +0.115 C 
ATOM     31  C   UNL     1      31.413  -7.095 -19.175  0.00  0.00    +0.115 C 
ENDBRANCH  26  29
ENDBRANCH  25  26
ENDBRANCH   1  25
TORSDOF 5
ENDMDL
MODEL 7
REMARK VINA RESULT:      -9.2      1.901      2.616
REMARK  Name = 16755766
REMARK  5 active torsions:
REMARK  status: ('A' for Active; 'I' for Inactive)
REMARK    1  A    between atoms: N_1  and  C_25
REMARK    2  A    between atoms: N_3  and  C_12
REMARK    3  A    between atoms: C_5  and  C_20
REMARK    4  A    between atoms: C_25  and  C_26
REMARK    5  A    between atoms: C_26  and  C_29
REMARK                            x       y       z     vdW  Elec       q    Type
REMARK                         _______ _______ _______ _____ _____    ______ ____
ROOT
ATOM      1  N   UNL     1      34.360 -22.130 -18.022  0.00  0.00    -0.174 N 
ATOM      2  N   UNL     1      34.388 -21.299 -19.066  0.00  0.00    -0.096 NA
ATOM      3  N   UNL     1      36.230 -19.974 -19.837  0.00  0.00    -0.246 N 
ATOM      4  N   UNL     1      36.393 -21.372 -17.967  0.00  0.00    -0.319 NA
ATOM      5  C   UNL     1      35.542 -22.175 -17.371  0.00  0.00    +0.216 C 
ATOM      6  C   UNL     1      35.647 -20.863 -18.991  0.00  0.00    +0.165 C 
ATOM      7  H   UNL     1      37.139 -19.708 -19.571  0.00  0.00    +0.165 HD
ENDROOT
BRANCH   3  12
ATOM      8  F   UNL     1      33.872 -15.320 -24.009  0.00  0.00    -0.125 F 
ATOM      9  F   UNL     1      35.826 -15.667 -24.929  0.00  0.00    -0.125 F 
ATOM     10  O   UNL     1      35.562 -16.111 -22.721  0.00  0.00    -0.395 OA
ATOM     11  O   UNL     1      34.518 -17.451 -24.436  0.00  0.00    -0.395 OA
ATOM     12  C   UNL     1      35.777 -19.354 -21.036  0.00  0.00    +0.061 C 
ATOM     13  C   UNL     1      35.488 -17.427 -22.378  0.00  0.00    +0.183 C 
ATOM     14  C   UNL     1      35.944 -17.983 -21.199  0.00  0.00    +0.056 C 
ATOM     15  C   UNL     1      34.893 -18.191 -23.357  0.00  0.00    +0.182 C 
ATOM     16  C   UNL     1      35.172 -20.140 -22.026  0.00  0.00    +0.019 C 
ATOM     17  C   UNL     1      34.720 -19.552 -23.210  0.00  0.00    +0.042 C 
ATOM     18  C   UNL     1      34.946 -16.149 -24.016  0.00  0.00    +0.589 C 
ENDBRANCH   3  12
BRANCH   5  20
ATOM     19  N   UNL     1      36.308 -24.544 -13.943  0.00  0.00    -0.242 NA
ATOM     20  C   UNL     1      35.801 -22.982 -16.203  0.00  0.00    +0.050 C 
ATOM     21  C   UNL     1      35.218 -24.238 -16.079  0.00  0.00    +0.025 C 
ATOM     22  C   UNL     1      36.637 -22.506 -15.199  0.00  0.00    +0.025 C 
ATOM     23  C   UNL     1      35.502 -24.973 -14.939  0.00  0.00    +0.099 C 
ATOM     24  C   UNL     1      36.856 -23.319 -14.099  0.00  0.00    +0.099 C 
ENDBRANCH   5  20
BRANCH   1  25
ATOM     25  C   UNL     1      33.130 -22.847 -17.706  0.00  0.00    +0.129 C 
BRANCH  25  26
ATOM     26  C   UNL     1      32.490 -22.350 -16.411  0.00  0.00    +0.109 C 
BRANCH  26  29
ATOM     27  O   UNL     1      30.168 -22.270 -17.001  0.00  0.00    -0.275 OA
ATOM     28  N   UNL     1      30.760 -23.752 -15.318  0.00  0.00    -0.276 N 
ATOM     29  C   UNL     1      31.034 -22.776 -16.282  0.00  0.00    +0.228 C 
ATOM     30  C   UNL     1      31.802 -24.337 -14.477  0.00  0.00    +0.115 C 
ATOM     31  C   UNL     1      29.414 -24.258 -15.078  0.00  0.00    +0.115 C 
ENDBRANCH  26  29
ENDBRANCH  25  26
ENDBRANCH   1  25
TORSDOF 5
ENDMDL
MODEL 8
REMARK VINA RESULT:      -8.8     10.501     13.882
REMARK  Name = 16755766
REMARK  5 active torsions:
REMARK  status: ('A' for Active; 'I' for Inactive)
REMARK    1  A    between atoms: N_1  and  C_25
REMARK    2  A    between atoms: N_3  and  C_12
REMARK    3  A    between atoms: C_5  and  C_20
REMARK    4  A    between atoms: C_25  and  C_26
REMARK    5  A    between atoms: C_26  and  C_29
REMARK                            x       y       z     vdW  Elec       q    Type
REMARK                         _______ _______ _______ _____ _____    ______ ____
ROOT
ATOM      1  N   UNL     1      33.748 -12.765 -22.627  0.00  0.00    -0.174 N 
ATOM      2  N   UNL     1      33.760 -11.433 -22.691  0.00  0.00    -0.096 NA
ATOM      3  N   UNL     1      34.596 -10.056 -24.466  0.00  0.00    -0.246 N 
ATOM      4  N   UNL     1      34.677 -12.393 -24.553  0.00  0.00    -0.319 NA
ATOM      5  C   UNL     1      34.289 -13.336 -23.725  0.00  0.00    +0.216 C 
ATOM      6  C   UNL     1      34.335 -11.255 -23.882  0.00  0.00    +0.165 C 
ATOM      7  H   UNL     1      35.103 -10.125 -25.307  0.00  0.00    +0.165 HD
ENDROOT
BRANCH   3  12
ATOM      8  F   UNL     1      31.129  -4.401 -23.678  0.00  0.00    -0.125 F 
ATOM      9  F   UNL     1      31.478  -4.901 -21.578  0.00  0.00    -0.125 F 
ATOM     10  O   UNL     1      31.482  -6.568 -23.115  0.00  0.00    -0.395 OA
ATOM     11  O   UNL     1      33.235  -4.911 -23.010  0.00  0.00    -0.395 OA
ATOM     12  C   UNL     1      34.278  -8.720 -24.093  0.00  0.00    +0.061 C 
ATOM     13  C   UNL     1      32.702  -7.081 -23.441  0.00  0.00    +0.183 C 
ATOM     14  C   UNL     1      32.960  -8.390 -23.795  0.00  0.00    +0.056 C 
ATOM     15  C   UNL     1      33.701  -6.135 -23.380  0.00  0.00    +0.182 C 
ATOM     16  C   UNL     1      35.302  -7.764 -24.035  0.00  0.00    +0.019 C 
ATOM     17  C   UNL     1      35.013  -6.447 -23.672  0.00  0.00    +0.042 C 
ATOM     18  C   UNL     1      31.840  -5.205 -22.849  0.00  0.00    +0.589 C 
ENDBRANCH   3  12
BRANCH   5  20
ATOM     19  N   UNL     1      34.651 -17.515 -24.321  0.00  0.00    -0.242 NA
ATOM     20  C   UNL     1      34.414 -14.758 -23.929  0.00  0.00    +0.050 C 
ATOM     21  C   UNL     1      35.293 -15.501 -23.148  0.00  0.00    +0.025 C 
ATOM     22  C   UNL     1      33.653 -15.392 -24.905  0.00  0.00    +0.025 C 
ATOM     23  C   UNL     1      35.373 -16.864 -23.382  0.00  0.00    +0.099 C 
ATOM     24  C   UNL     1      33.808 -16.760 -25.060  0.00  0.00    +0.099 C 
ENDBRANCH   5  20
BRANCH   1  25
ATOM     25  C   UNL     1      33.197 -13.424 -21.449  0.00  0.00    +0.129 C 
BRANCH  25  26
ATOM     26  C   UNL     1      31.877 -12.796 -21.003  0.00  0.00    +0.109 C 
BRANCH  26  29
ATOM     27  O   UNL     1      32.699 -11.761 -19.003  0.00  0.00    -0.275 OA
ATOM     28  N   UNL     1      31.539 -10.396 -20.476  0.00  0.00    -0.276 N 
ATOM     29  C   UNL     1      32.083 -11.616 -20.062  0.00  0.00    +0.228 C 
ATOM     30  C   UNL     1      30.813 -10.247 -21.735  0.00  0.00    +0.115 C 
ATOM     31  C   UNL     1      31.655  -9.179 -19.681  0.00  0.00    +0.115 C 
ENDBRANCH  26  29
ENDBRANCH  25  26
ENDBRANCH   1  25
TORSDOF 5
ENDMDL
