MODEL 1
REMARK VINA RESULT:     -12.2      0.000      0.000
REMARK  Name = 447655
REMARK  6 active torsions:
REMARK  status: ('A' for Active; 'I' for Inactive)
REMARK    1  A    between atoms: N_4  and  C_14
REMARK    2  A    between atoms: C_6  and  O_26
REMARK    3  A    between atoms: C_15  and  S_20
REMARK    4  A    between atoms: S_20  and  N_23
REMARK    5  A    between atoms: O_26  and  C_27
REMARK    6  A    between atoms: C_27  and  C_28
REMARK                            x       y       z     vdW  Elec       q    Type
REMARK                         _______ _______ _______ _____ _____    ______ ____
ROOT
ATOM      1  N   UNL     1      32.401 -23.185 -15.669  0.00  0.00    -0.293 NA
ATOM      2  N   UNL     1      29.075 -22.291 -16.961  0.00  0.00    -0.266 NA
ATOM      3  N   UNL     1      30.571 -23.662 -14.128  0.00  0.00    -0.316 NA
ATOM      4  N   UNL     1      32.792 -24.131 -13.562  0.00  0.00    -0.238 N 
ATOM      5  N   UNL     1      28.377 -23.068 -14.992  0.00  0.00    -0.296 N 
ATOM      6  C   UNL     1      31.548 -22.700 -16.599  0.00  0.00    +0.288 C 
ATOM      7  C   UNL     1      30.201 -22.691 -16.300  0.00  0.00    +0.215 C 
ATOM      8  C   UNL     1      29.742 -23.169 -15.080  0.00  0.00    +0.196 C 
ATOM      9  C   UNL     1      31.866 -23.631 -14.507  0.00  0.00    +0.207 C 
ATOM     10  C   UNL     1      28.007 -22.537 -16.138  0.00  0.00    +0.164 C 
ATOM     11  H   UNL     1      29.037 -21.900 -17.863  0.00  0.00    +0.126 HD
ATOM     12  H   UNL     1      32.375 -24.448 -12.729  0.00  0.00    +0.166 HD
ATOM     13  H   UNL     1      27.801 -23.333 -14.238  0.00  0.00    +0.150 HD
ENDROOT
BRANCH   4  14
ATOM     14  C   UNL     1      34.192 -24.265 -13.583  0.00  0.00    +0.060 C 
ATOM     15  C   UNL     1      36.325 -24.162 -12.446  0.00  0.00    +0.123 C 
ATOM     16  C   UNL     1      34.936 -24.029 -12.425  0.00  0.00    +0.035 C 
ATOM     17  C   UNL     1      34.843 -24.637 -14.762  0.00  0.00    +0.015 C 
ATOM     18  C   UNL     1      36.972 -24.534 -13.624  0.00  0.00    +0.020 C 
ATOM     19  C   UNL     1      36.231 -24.771 -14.782  0.00  0.00    +0.003 C 
BRANCH  15  20
ATOM     20  S   UNL     1      37.253 -23.867 -10.997  0.00  0.00    +0.057 S 
ATOM     21  O   UNL     1      38.340 -24.833 -10.943  0.00  0.00    -0.153 OA
ATOM     22  O   UNL     1      37.546 -22.442 -10.919  0.00  0.00    -0.153 OA
BRANCH  20  23
ATOM     23  N   UNL     1      36.107 -24.257  -9.790  0.00  0.00    -0.203 NA
ATOM     24  H   UNL     1      36.491 -24.978  -9.179  0.00  0.00    +0.144 HD
ATOM     25  H   UNL     1      35.255 -24.602 -10.231  0.00  0.00    +0.144 HD
ENDBRANCH  20  23
ENDBRANCH  15  20
ENDBRANCH   4  14
BRANCH   6  26
ATOM     26  O   UNL     1      32.058 -22.239 -17.788  0.00  0.00    -0.453 OA
BRANCH  26  27
ATOM     27  C   UNL     1      33.379 -22.626 -18.114  0.00  0.00    +0.208 C 
BRANCH  27  28
ATOM     28  C   UNL     1      34.091 -21.430 -18.745  0.00  0.00    +0.044 C 
ATOM     29  C   UNL     1      35.512 -21.813 -19.180  0.00  0.00    +0.004 C 
ATOM     30  C   UNL     1      33.286 -20.884 -19.931  0.00  0.00    +0.004 C 
ATOM     31  C   UNL     1      36.226 -20.649 -19.862  0.00  0.00    +0.000 C 
ATOM     32  C   UNL     1      34.003 -19.721 -20.612  0.00  0.00    +0.000 C 
ATOM     33  C   UNL     1      35.418 -20.103 -21.035  0.00  0.00    +0.000 C 
ENDBRANCH  27  28
ENDBRANCH  26  27
ENDBRANCH   6  26
TORSDOF 6
ENDMDL
MODEL 2
REMARK VINA RESULT:     -11.8      2.379      2.710
REMARK  Name = 447655
REMARK  6 active torsions:
REMARK  status: ('A' for Active; 'I' for Inactive)
REMARK    1  A    between atoms: N_4  and  C_14
REMARK    2  A    between atoms: C_6  and  O_26
REMARK    3  A    between atoms: C_15  and  S_20
REMARK    4  A    between atoms: S_20  and  N_23
REMARK    5  A    between atoms: O_26  and  C_27
REMARK    6  A    between atoms: C_27  and  C_28
REMARK                            x       y       z     vdW  Elec       q    Type
REMARK                         _______ _______ _______ _____ _____    ______ ____
ROOT
ATOM      1  N   UNL     1      33.679 -22.789 -16.427  0.00  0.00    -0.293 NA
ATOM      2  N   UNL     1      30.021 -22.536 -16.713  0.00  0.00    -0.266 NA
ATOM      3  N   UNL     1      32.476 -23.387 -14.392  0.00  0.00    -0.316 NA
ATOM      4  N   UNL     1      34.811 -23.459 -14.490  0.00  0.00    -0.238 N 
ATOM      5  N   UNL     1      30.059 -23.217 -14.592  0.00  0.00    -0.296 N 
ATOM      6  C   UNL     1      32.526 -22.529 -17.083  0.00  0.00    +0.288 C 
ATOM      7  C   UNL     1      31.340 -22.695 -16.399  0.00  0.00    +0.215 C 
ATOM      8  C   UNL     1      31.338 -23.119 -15.076  0.00  0.00    +0.196 C 
ATOM      9  C   UNL     1      33.583 -23.197 -15.139  0.00  0.00    +0.207 C 
ATOM     10  C   UNL     1      29.291 -22.860 -15.600  0.00  0.00    +0.164 C 
ATOM     11  H   UNL     1      29.660 -22.243 -17.581  0.00  0.00    +0.126 HD
ATOM     12  H   UNL     1      34.712 -23.755 -13.556  0.00  0.00    +0.166 HD
ATOM     13  H   UNL     1      29.776 -23.493 -13.690  0.00  0.00    +0.150 HD
ENDROOT
BRANCH   4  14
ATOM     14  C   UNL     1      36.149 -23.381 -14.918  0.00  0.00    +0.060 C 
ATOM     15  C   UNL     1      38.402 -24.262 -14.932  0.00  0.00    +0.123 C 
ATOM     16  C   UNL     1      37.076 -24.340 -14.505  0.00  0.00    +0.035 C 
ATOM     17  C   UNL     1      36.555 -22.343 -15.762  0.00  0.00    +0.015 C 
ATOM     18  C   UNL     1      38.804 -23.225 -15.773  0.00  0.00    +0.020 C 
ATOM     19  C   UNL     1      37.880 -22.265 -16.188  0.00  0.00    +0.003 C 
BRANCH  15  20
ATOM     20  S   UNL     1      39.558 -25.463 -14.414  0.00  0.00    +0.057 S 
ATOM     21  O   UNL     1      40.542 -24.815 -13.558  0.00  0.00    -0.153 OA
ATOM     22  O   UNL     1      38.829 -26.626 -13.926  0.00  0.00    -0.153 OA
BRANCH  20  23
ATOM     23  N   UNL     1      40.299 -25.865 -15.900  0.00  0.00    -0.203 NA
ATOM     24  H   UNL     1      39.768 -25.451 -16.667  0.00  0.00    +0.144 HD
ATOM     25  H   UNL     1      40.317 -26.879 -16.007  0.00  0.00    +0.144 HD
ENDBRANCH  20  23
ENDBRANCH  15  20
ENDBRANCH   4  14
BRANCH   6  26
ATOM     26  O   UNL     1      32.588 -22.112 -18.391  0.00  0.00    -0.453 OA
BRANCH  26  27
ATOM     27  C   UNL     1      33.769 -22.419 -19.108  0.00  0.00    +0.208 C 
BRANCH  27  28
ATOM     28  C   UNL     1      34.512 -21.115 -19.395  0.00  0.00    +0.044 C 
ATOM     29  C   UNL     1      36.003 -21.384 -19.644  0.00  0.00    +0.004 C 
ATOM     30  C   UNL     1      33.883 -20.384 -20.588  0.00  0.00    +0.004 C 
ATOM     31  C   UNL     1      36.758 -20.103 -19.985  0.00  0.00    +0.000 C 
ATOM     32  C   UNL     1      34.642 -19.104 -20.928  0.00  0.00    +0.000 C 
ATOM     33  C   UNL     1      36.124 -19.374 -21.166  0.00  0.00    +0.000 C 
ENDBRANCH  27  28
ENDBRANCH  26  27
ENDBRANCH   6  26
TORSDOF 6
ENDMDL
MODEL 3
REMARK VINA RESULT:     -11.8      2.056      2.815
REMARK  Name = 447655
REMARK  6 active torsions:
REMARK  status: ('A' for Active; 'I' for Inactive)
REMARK    1  A    between atoms: N_4  and  C_14
REMARK    2  A    between atoms: C_6  and  O_26
REMARK    3  A    between atoms: C_15  and  S_20
REMARK    4  A    between atoms: S_20  and  N_23
REMARK    5  A    between atoms: O_26  and  C_27
REMARK    6  A    between atoms: C_27  and  C_28
REMARK                            x       y       z     vdW  Elec       q    Type
REMARK                         _______ _______ _______ _____ _____    ______ ____
ROOT
ATOM      1  N   UNL     1      33.563 -23.691 -14.507  0.00  0.00    -0.293 NA
ATOM      2  N   UNL     1      30.171 -23.832 -15.922  0.00  0.00    -0.266 NA
ATOM      3  N   UNL     1      31.966 -24.935 -13.147  0.00  0.00    -0.316 NA
ATOM      4  N   UNL     1      34.195 -24.687 -12.484  0.00  0.00    -0.238 N 
ATOM      5  N   UNL     1      29.727 -25.024 -14.091  0.00  0.00    -0.296 N 
ATOM      6  C   UNL     1      32.622 -23.418 -15.438  0.00  0.00    +0.288 C 
ATOM      7  C   UNL     1      31.346 -23.901 -15.231  0.00  0.00    +0.215 C 
ATOM      8  C   UNL     1      31.045 -24.645 -14.098  0.00  0.00    +0.196 C 
ATOM      9  C   UNL     1      33.181 -24.424 -13.434  0.00  0.00    +0.207 C 
ATOM     10  C   UNL     1      29.230 -24.519 -15.201  0.00  0.00    +0.164 C 
ATOM     11  H   UNL     1      30.026 -23.375 -16.781  0.00  0.00    +0.126 HD
ATOM     12  H   UNL     1      33.890 -25.221 -11.716  0.00  0.00    +0.166 HD
ATOM     13  H   UNL     1      29.256 -25.554 -13.408  0.00  0.00    +0.150 HD
ENDROOT
BRANCH   4  14
ATOM     14  C   UNL     1      35.556 -24.335 -12.424  0.00  0.00    +0.060 C 
ATOM     15  C   UNL     1      37.820 -24.570 -13.241  0.00  0.00    +0.123 C 
ATOM     16  C   UNL     1      36.471 -24.919 -13.301  0.00  0.00    +0.035 C 
ATOM     17  C   UNL     1      35.996 -23.396 -11.486  0.00  0.00    +0.015 C 
ATOM     18  C   UNL     1      38.257 -23.633 -12.304  0.00  0.00    +0.020 C 
ATOM     19  C   UNL     1      37.344 -23.047 -11.426  0.00  0.00    +0.003 C 
BRANCH  15  20
ATOM     20  S   UNL     1      38.963 -25.302 -14.339  0.00  0.00    +0.057 S 
ATOM     21  O   UNL     1      39.637 -24.242 -15.074  0.00  0.00    -0.153 OA
ATOM     22  O   UNL     1      39.747 -26.283 -13.602  0.00  0.00    -0.153 OA
BRANCH  20  23
ATOM     23  N   UNL     1      37.910 -26.128 -15.402  0.00  0.00    -0.203 NA
ATOM     24  H   UNL     1      37.009 -25.651 -15.426  0.00  0.00    +0.144 HD
ATOM     25  H   UNL     1      37.780 -27.085 -15.075  0.00  0.00    +0.144 HD
ENDBRANCH  20  23
ENDBRANCH  15  20
ENDBRANCH   4  14
BRANCH   6  26
ATOM     26  O   UNL     1      32.975 -22.677 -16.539  0.00  0.00    -0.453 OA
BRANCH  26  27
ATOM     27  C   UNL     1      34.227 -22.965 -17.134  0.00  0.00    +0.208 C 
BRANCH  27  28
ATOM     28  C   UNL     1      34.253 -22.347 -18.530  0.00  0.00    +0.044 C 
ATOM     29  C   UNL     1      33.049 -21.417 -18.735  0.00  0.00    +0.004 C 
ATOM     30  C   UNL     1      35.569 -21.595 -18.766  0.00  0.00    +0.004 C 
ATOM     31  C   UNL     1      33.081 -20.746 -20.105  0.00  0.00    +0.000 C 
ATOM     32  C   UNL     1      35.597 -20.923 -20.136  0.00  0.00    +0.000 C 
ATOM     33  C   UNL     1      34.395 -20.007 -20.339  0.00  0.00    +0.000 C 
ENDBRANCH  27  28
ENDBRANCH  26  27
ENDBRANCH   6  26
TORSDOF 6
ENDMDL
MODEL 4
REMARK VINA RESULT:     -11.3      3.318      5.813
REMARK  Name = 447655
REMARK  6 active torsions:
REMARK  status: ('A' for Active; 'I' for Inactive)
REMARK    1  A    between atoms: N_4  and  C_14
REMARK    2  A    between atoms: C_6  and  O_26
REMARK    3  A    between atoms: C_15  and  S_20
REMARK    4  A    between atoms: S_20  and  N_23
REMARK    5  A    between atoms: O_26  and  C_27
REMARK    6  A    between atoms: C_27  and  C_28
REMARK                            x       y       z     vdW  Elec       q    Type
REMARK                         _______ _______ _______ _____ _____    ______ ____
ROOT
ATOM      1  N   UNL     1      35.029 -22.426 -17.473  0.00  0.00    -0.293 NA
ATOM      2  N   UNL     1      33.211 -20.845 -20.252  0.00  0.00    -0.266 NA
ATOM      3  N   UNL     1      36.356 -20.828 -18.752  0.00  0.00    -0.316 NA
ATOM      4  N   UNL     1      37.263 -21.980 -16.929  0.00  0.00    -0.238 N 
ATOM      5  N   UNL     1      35.145 -19.788 -20.585  0.00  0.00    -0.296 N 
ATOM      6  C   UNL     1      33.944 -22.214 -18.251  0.00  0.00    +0.288 C 
ATOM      7  C   UNL     1      34.058 -21.308 -19.286  0.00  0.00    +0.215 C 
ATOM      8  C   UNL     1      35.252 -20.637 -19.514  0.00  0.00    +0.196 C 
ATOM      9  C   UNL     1      36.152 -21.729 -17.767  0.00  0.00    +0.207 C 
ATOM     10  C   UNL     1      33.907 -19.937 -21.007  0.00  0.00    +0.164 C 
ATOM     11  H   UNL     1      32.273 -21.113 -20.382  0.00  0.00    +0.126 HD
ATOM     12  H   UNL     1      38.064 -21.460 -17.165  0.00  0.00    +0.166 HD
ATOM     13  H   UNL     1      35.840 -19.199 -20.959  0.00  0.00    +0.150 HD
ENDROOT
BRANCH   4  14
ATOM     14  C   UNL     1      37.445 -22.828 -15.822  0.00  0.00    +0.060 C 
ATOM     15  C   UNL     1      38.785 -24.438 -14.611  0.00  0.00    +0.123 C 
ATOM     16  C   UNL     1      38.605 -23.598 -15.710  0.00  0.00    +0.035 C 
ATOM     17  C   UNL     1      36.466 -22.902 -14.827  0.00  0.00    +0.015 C 
ATOM     18  C   UNL     1      37.806 -24.510 -13.620  0.00  0.00    +0.020 C 
ATOM     19  C   UNL     1      36.647 -23.742 -13.729  0.00  0.00    +0.003 C 
BRANCH  15  20
ATOM     20  S   UNL     1      40.237 -25.399 -14.475  0.00  0.00    +0.057 S 
ATOM     21  O   UNL     1      41.371 -24.498 -14.330  0.00  0.00    -0.153 OA
ATOM     22  O   UNL     1      40.009 -26.441 -13.483  0.00  0.00    -0.153 OA
BRANCH  20  23
ATOM     23  N   UNL     1      40.298 -26.120 -16.023  0.00  0.00    -0.203 NA
ATOM     24  H   UNL     1      39.354 -26.367 -16.319  0.00  0.00    +0.144 HD
ATOM     25  H   UNL     1      40.873 -26.961 -15.982  0.00  0.00    +0.144 HD
ENDBRANCH  20  23
ENDBRANCH  15  20
ENDBRANCH   4  14
BRANCH   6  26
ATOM     26  O   UNL     1      32.789 -22.905 -17.980  0.00  0.00    -0.453 OA
BRANCH  26  27
ATOM     27  C   UNL     1      32.044 -22.494 -16.849  0.00  0.00    +0.208 C 
BRANCH  27  28
ATOM     28  C   UNL     1      31.999 -23.651 -15.853  0.00  0.00    +0.044 C 
ATOM     29  C   UNL     1      32.782 -23.302 -14.580  0.00  0.00    +0.004 C 
ATOM     30  C   UNL     1      30.548 -24.022 -15.517  0.00  0.00    +0.004 C 
ATOM     31  C   UNL     1      32.707 -24.423 -13.547  0.00  0.00    +0.000 C 
ATOM     32  C   UNL     1      30.478 -25.141 -14.482  0.00  0.00    +0.000 C 
ATOM     33  C   UNL     1      31.264 -24.794 -13.222  0.00  0.00    +0.000 C 
ENDBRANCH  27  28
ENDBRANCH  26  27
ENDBRANCH   6  26
TORSDOF 6
ENDMDL
MODEL 5
REMARK VINA RESULT:     -11.3      2.418      5.202
REMARK  Name = 447655
REMARK  6 active torsions:
REMARK  status: ('A' for Active; 'I' for Inactive)
REMARK    1  A    between atoms: N_4  and  C_14
REMARK    2  A    between atoms: C_6  and  O_26
REMARK    3  A    between atoms: C_15  and  S_20
REMARK    4  A    between atoms: S_20  and  N_23
REMARK    5  A    between atoms: O_26  and  C_27
REMARK    6  A    between atoms: C_27  and  C_28
REMARK                            x       y       z     vdW  Elec       q    Type
REMARK                         _______ _______ _______ _____ _____    ______ ____
ROOT
ATOM      1  N   UNL     1      35.291 -23.218 -16.242  0.00  0.00    -0.293 NA
ATOM      2  N   UNL     1      33.125 -21.840 -18.876  0.00  0.00    -0.266 NA
ATOM      3  N   UNL     1      36.456 -21.808 -17.856  0.00  0.00    -0.316 NA
ATOM      4  N   UNL     1      37.592 -22.814 -16.076  0.00  0.00    -0.238 N 
ATOM      5  N   UNL     1      35.015 -20.902 -19.592  0.00  0.00    -0.296 N 
ATOM      6  C   UNL     1      34.109 -23.037 -16.873  0.00  0.00    +0.288 C 
ATOM      7  C   UNL     1      34.092 -22.241 -18.000  0.00  0.00    +0.215 C 
ATOM      8  C   UNL     1      35.257 -21.647 -18.466  0.00  0.00    +0.196 C 
ATOM      9  C   UNL     1      36.376 -22.600 -16.766  0.00  0.00    +0.207 C 
ATOM     10  C   UNL     1      33.725 -21.039 -19.812  0.00  0.00    +0.164 C 
ATOM     11  H   UNL     1      32.171 -22.080 -18.841  0.00  0.00    +0.126 HD
ATOM     12  H   UNL     1      38.363 -22.353 -16.478  0.00  0.00    +0.166 HD
ATOM     13  H   UNL     1      35.663 -20.381 -20.121  0.00  0.00    +0.150 HD
ENDROOT
BRANCH   4  14
ATOM     14  C   UNL     1      37.913 -23.558 -14.926  0.00  0.00    +0.060 C 
ATOM     15  C   UNL     1      37.478 -24.147 -12.620  0.00  0.00    +0.123 C 
ATOM     16  C   UNL     1      37.159 -23.409 -13.760  0.00  0.00    +0.035 C 
ATOM     17  C   UNL     1      38.989 -24.451 -14.946  0.00  0.00    +0.015 C 
ATOM     18  C   UNL     1      38.552 -25.037 -12.644  0.00  0.00    +0.020 C 
ATOM     19  C   UNL     1      39.307 -25.188 -13.807  0.00  0.00    +0.003 C 
BRANCH  15  20
ATOM     20  S   UNL     1      36.533 -23.959 -11.164  0.00  0.00    +0.057 S 
ATOM     21  O   UNL     1      36.335 -25.274 -10.572  0.00  0.00    -0.153 OA
ATOM     22  O   UNL     1      37.119 -22.888 -10.369  0.00  0.00    -0.153 OA
BRANCH  20  23
ATOM     23  N   UNL     1      35.047 -23.413 -11.808  0.00  0.00    -0.203 NA
ATOM     24  H   UNL     1      34.353 -24.158 -11.736  0.00  0.00    +0.144 HD
ATOM     25  H   UNL     1      35.174 -23.160 -12.787  0.00  0.00    +0.144 HD
ENDBRANCH  20  23
ENDBRANCH  15  20
ENDBRANCH   4  14
BRANCH   6  26
ATOM     26  O   UNL     1      32.988 -23.649 -16.368  0.00  0.00    -0.453 OA
BRANCH  26  27
ATOM     27  C   UNL     1      32.582 -23.275 -15.066  0.00  0.00    +0.208 C 
BRANCH  27  28
ATOM     28  C   UNL     1      31.056 -23.266 -15.019  0.00  0.00    +0.044 C 
ATOM     29  C   UNL     1      30.479 -22.546 -16.246  0.00  0.00    +0.004 C 
ATOM     30  C   UNL     1      30.508 -24.696 -14.917  0.00  0.00    +0.004 C 
ATOM     31  C   UNL     1      28.953 -22.570 -16.248  0.00  0.00    +0.000 C 
ATOM     32  C   UNL     1      28.981 -24.716 -14.923  0.00  0.00    +0.000 C 
ATOM     33  C   UNL     1      28.412 -23.992 -16.139  0.00  0.00    +0.000 C 
ENDBRANCH  27  28
ENDBRANCH  26  27
ENDBRANCH   6  26
TORSDOF 6
ENDMDL
MODEL 6
REMARK VINA RESULT:     -11.1      4.004      8.043
REMARK  Name = 447655
REMARK  6 active torsions:
REMARK  status: ('A' for Active; 'I' for Inactive)
REMARK    1  A    between atoms: N_4  and  C_14
REMARK    2  A    between atoms: C_6  and  O_26
REMARK    3  A    between atoms: C_15  and  S_20
REMARK    4  A    between atoms: S_20  and  N_23
REMARK    5  A    between atoms: O_26  and  C_27
REMARK    6  A    between atoms: C_27  and  C_28
REMARK                            x       y       z     vdW  Elec       q    Type
REMARK                         _______ _______ _______ _____ _____    ______ ____
ROOT
ATOM      1  N   UNL     1      35.025 -22.950 -16.330  0.00  0.00    -0.293 NA
ATOM      2  N   UNL     1      35.728 -24.903 -13.293  0.00  0.00    -0.266 NA
ATOM      3  N   UNL     1      37.393 -23.102 -15.768  0.00  0.00    -0.316 NA
ATOM      4  N   UNL     1      36.663 -21.919 -17.649  0.00  0.00    -0.238 N 
ATOM      5  N   UNL     1      37.847 -24.395 -13.760  0.00  0.00    -0.296 N 
ATOM      6  C   UNL     1      34.679 -23.696 -15.257  0.00  0.00    +0.288 C 
ATOM      7  C   UNL     1      35.687 -24.150 -14.432  0.00  0.00    +0.215 C 
ATOM      8  C   UNL     1      37.015 -23.847 -14.701  0.00  0.00    +0.196 C 
ATOM      9  C   UNL     1      36.343 -22.703 -16.516  0.00  0.00    +0.207 C 
ATOM     10  C   UNL     1      37.043 -25.023 -12.928  0.00  0.00    +0.164 C 
ATOM     11  H   UNL     1      34.955 -25.289 -12.822  0.00  0.00    +0.126 HD
ATOM     12  H   UNL     1      37.627 -21.757 -17.760  0.00  0.00    +0.166 HD
ATOM     13  H   UNL     1      38.829 -24.333 -13.714  0.00  0.00    +0.150 HD
ENDROOT
BRANCH   4  14
ATOM     14  C   UNL     1      35.870 -21.328 -18.650  0.00  0.00    +0.060 C 
ATOM     15  C   UNL     1      35.646 -19.826 -20.533  0.00  0.00    +0.123 C 
ATOM     16  C   UNL     1      36.433 -20.411 -19.540  0.00  0.00    +0.035 C 
ATOM     17  C   UNL     1      34.516 -21.658 -18.757  0.00  0.00    +0.015 C 
ATOM     18  C   UNL     1      34.295 -20.157 -20.638  0.00  0.00    +0.020 C 
ATOM     19  C   UNL     1      33.731 -21.073 -19.749  0.00  0.00    +0.003 C 
BRANCH  15  20
ATOM     20  S   UNL     1      36.352 -18.681 -21.645  0.00  0.00    +0.057 S 
ATOM     21  O   UNL     1      37.790 -18.645 -21.417  0.00  0.00    -0.153 OA
ATOM     22  O   UNL     1      35.838 -18.956 -22.980  0.00  0.00    -0.153 OA
BRANCH  20  23
ATOM     23  N   UNL     1      35.668 -17.218 -21.085  0.00  0.00    -0.203 NA
ATOM     24  H   UNL     1      36.414 -16.560 -20.858  0.00  0.00    +0.144 HD
ATOM     25  H   UNL     1      35.111 -17.402 -20.251  0.00  0.00    +0.144 HD
ENDBRANCH  20  23
ENDBRANCH  15  20
ENDBRANCH   4  14
BRANCH   6  26
ATOM     26  O   UNL     1      33.350 -23.965 -15.039  0.00  0.00    -0.453 OA
BRANCH  26  27
ATOM     27  C   UNL     1      32.649 -23.087 -14.178  0.00  0.00    +0.208 C 
BRANCH  27  28
ATOM     28  C   UNL     1      31.156 -23.200 -14.483  0.00  0.00    +0.044 C 
ATOM     29  C   UNL     1      30.840 -22.618 -15.868  0.00  0.00    +0.004 C 
ATOM     30  C   UNL     1      30.692 -24.659 -14.385  0.00  0.00    +0.004 C 
ATOM     31  C   UNL     1      29.362 -22.768 -16.217  0.00  0.00    +0.000 C 
ATOM     32  C   UNL     1      29.214 -24.805 -14.738  0.00  0.00    +0.000 C 
ATOM     33  C   UNL     1      28.901 -24.218 -16.110  0.00  0.00    +0.000 C 
ENDBRANCH  27  28
ENDBRANCH  26  27
ENDBRANCH   6  26
TORSDOF 6
ENDMDL
MODEL 7
REMARK VINA RESULT:     -10.7      3.742      7.480
REMARK  Name = 447655
REMARK  6 active torsions:
REMARK  status: ('A' for Active; 'I' for Inactive)
REMARK    1  A    between atoms: N_4  and  C_14
REMARK    2  A    between atoms: C_6  and  O_26
REMARK    3  A    between atoms: C_15  and  S_20
REMARK    4  A    between atoms: S_20  and  N_23
REMARK    5  A    between atoms: O_26  and  C_27
REMARK    6  A    between atoms: C_27  and  C_28
REMARK                            x       y       z     vdW  Elec       q    Type
REMARK                         _______ _______ _______ _____ _____    ______ ____
ROOT
ATOM      1  N   UNL     1      33.745 -22.695 -16.599  0.00  0.00    -0.293 NA
ATOM      2  N   UNL     1      31.564 -24.312 -14.118  0.00  0.00    -0.266 NA
ATOM      3  N   UNL     1      31.396 -22.791 -17.248  0.00  0.00    -0.316 NA
ATOM      4  N   UNL     1      33.004 -21.816 -18.639  0.00  0.00    -0.238 N 
ATOM      5  N   UNL     1      29.963 -23.862 -15.602  0.00  0.00    -0.296 N 
ATOM      6  C   UNL     1      33.491 -23.320 -15.428  0.00  0.00    +0.288 C 
ATOM      7  C   UNL     1      32.188 -23.685 -15.158  0.00  0.00    +0.215 C 
ATOM      8  C   UNL     1      31.174 -23.416 -16.067  0.00  0.00    +0.196 C 
ATOM      9  C   UNL     1      32.695 -22.472 -17.425  0.00  0.00    +0.207 C 
ATOM     10  C   UNL     1      30.232 -24.395 -14.429  0.00  0.00    +0.164 C 
ATOM     11  H   UNL     1      31.992 -24.643 -13.296  0.00  0.00    +0.126 HD
ATOM     12  H   UNL     1      32.223 -21.667 -19.219  0.00  0.00    +0.166 HD
ATOM     13  H   UNL     1      29.087 -23.798 -16.046  0.00  0.00    +0.150 HD
ENDROOT
BRANCH   4  14
ATOM     14  C   UNL     1      34.210 -21.334 -19.179  0.00  0.00    +0.060 C 
ATOM     15  C   UNL     1      35.393 -19.809 -20.638  0.00  0.00    +0.123 C 
ATOM     16  C   UNL     1      34.197 -20.287 -20.103  0.00  0.00    +0.035 C 
ATOM     17  C   UNL     1      35.428 -21.900 -18.790  0.00  0.00    +0.015 C 
ATOM     18  C   UNL     1      36.607 -20.376 -20.248  0.00  0.00    +0.020 C 
ATOM     19  C   UNL     1      36.623 -21.422 -19.325  0.00  0.00    +0.003 C 
BRANCH  15  20
ATOM     20  S   UNL     1      35.373 -18.500 -21.793  0.00  0.00    +0.057 S 
ATOM     21  O   UNL     1      34.381 -18.804 -22.814  0.00  0.00    -0.153 OA
ATOM     22  O   UNL     1      35.299 -17.242 -21.063  0.00  0.00    -0.153 OA
BRANCH  20  23
ATOM     23  N   UNL     1      36.933 -18.645 -22.477  0.00  0.00    -0.203 NA
ATOM     24  H   UNL     1      37.472 -19.331 -21.949  0.00  0.00    +0.144 HD
ATOM     25  H   UNL     1      37.404 -17.741 -22.442  0.00  0.00    +0.144 HD
ENDBRANCH  20  23
ENDBRANCH  15  20
ENDBRANCH   4  14
BRANCH   6  26
ATOM     26  O   UNL     1      34.533 -23.561 -14.566  0.00  0.00    -0.453 OA
BRANCH  26  27
ATOM     27  C   UNL     1      35.790 -23.006 -14.906  0.00  0.00    +0.208 C 
BRANCH  27  28
ATOM     28  C   UNL     1      36.881 -23.811 -14.202  0.00  0.00    +0.044 C 
ATOM     29  C   UNL     1      36.966 -23.429 -12.718  0.00  0.00    +0.004 C 
ATOM     30  C   UNL     1      36.632 -25.317 -14.364  0.00  0.00    +0.004 C 
ATOM     31  C   UNL     1      38.014 -24.259 -11.981  0.00  0.00    +0.000 C 
ATOM     32  C   UNL     1      37.681 -26.144 -13.624  0.00  0.00    +0.000 C 
ATOM     33  C   UNL     1      37.769 -25.755 -12.152  0.00  0.00    +0.000 C 
ENDBRANCH  27  28
ENDBRANCH  26  27
ENDBRANCH   6  26
TORSDOF 6
ENDMDL
MODEL 8
REMARK VINA RESULT:     -10.7      3.051      7.233
REMARK  Name = 447655
REMARK  6 active torsions:
REMARK  status: ('A' for Active; 'I' for Inactive)
REMARK    1  A    between atoms: N_4  and  C_14
REMARK    2  A    between atoms: C_6  and  O_26
REMARK    3  A    between atoms: C_15  and  S_20
REMARK    4  A    between atoms: S_20  and  N_23
REMARK    5  A    between atoms: O_26  and  C_27
REMARK    6  A    between atoms: C_27  and  C_28
REMARK                            x       y       z     vdW  Elec       q    Type
REMARK                         _______ _______ _______ _____ _____    ______ ____
ROOT
ATOM      1  N   UNL     1      35.335 -23.291 -14.505  0.00  0.00    -0.293 NA
ATOM      2  N   UNL     1      35.124 -24.733 -11.128  0.00  0.00    -0.266 NA
ATOM      3  N   UNL     1      37.317 -22.914 -13.134  0.00  0.00    -0.316 NA
ATOM      4  N   UNL     1      37.181 -22.106 -15.325  0.00  0.00    -0.238 N 
ATOM      5  N   UNL     1      37.168 -23.872 -10.905  0.00  0.00    -0.296 N 
ATOM      6  C   UNL     1      34.724 -23.972 -13.510  0.00  0.00    +0.288 C 
ATOM      7  C   UNL     1      35.404 -24.129 -12.320  0.00  0.00    +0.215 C 
ATOM      8  C   UNL     1      36.678 -23.601 -12.157  0.00  0.00    +0.196 C 
ATOM      9  C   UNL     1      36.578 -22.812 -14.259  0.00  0.00    +0.207 C 
ATOM     10  C   UNL     1      36.210 -24.552 -10.312  0.00  0.00    +0.164 C 
ATOM     11  H   UNL     1      34.295 -25.211 -10.898  0.00  0.00    +0.126 HD
ATOM     12  H   UNL     1      38.083 -21.770 -15.118  0.00  0.00    +0.166 HD
ATOM     13  H   UNL     1      38.041 -23.613 -10.531  0.00  0.00    +0.150 HD
ENDROOT
BRANCH   4  14
ATOM     14  C   UNL     1      36.745 -21.792 -16.625  0.00  0.00    +0.060 C 
ATOM     15  C   UNL     1      35.117 -22.014 -18.401  0.00  0.00    +0.123 C 
ATOM     16  C   UNL     1      35.550 -22.326 -17.112  0.00  0.00    +0.035 C 
ATOM     17  C   UNL     1      37.504 -20.941 -17.433  0.00  0.00    +0.015 C 
ATOM     18  C   UNL     1      35.878 -21.165 -19.206  0.00  0.00    +0.020 C 
ATOM     19  C   UNL     1      37.072 -20.629 -18.721  0.00  0.00    +0.003 C 
BRANCH  15  20
ATOM     20  S   UNL     1      33.624 -22.683 -19.008  0.00  0.00    +0.057 S 
ATOM     21  O   UNL     1      33.004 -21.702 -19.887  0.00  0.00    -0.153 OA
ATOM     22  O   UNL     1      33.887 -24.029 -19.499  0.00  0.00    -0.153 OA
BRANCH  20  23
ATOM     23  N   UNL     1      32.708 -22.794 -17.570  0.00  0.00    -0.203 NA
ATOM     24  H   UNL     1      33.284 -23.196 -16.831  0.00  0.00    +0.144 HD
ATOM     25  H   UNL     1      31.895 -23.389 -17.730  0.00  0.00    +0.144 HD
ENDBRANCH  20  23
ENDBRANCH  15  20
ENDBRANCH   4  14
BRANCH   6  26
ATOM     26  O   UNL     1      33.463 -24.472 -13.727  0.00  0.00    -0.453 OA
BRANCH  26  27
ATOM     27  C   UNL     1      32.373 -23.629 -13.406  0.00  0.00    +0.208 C 
BRANCH  27  28
ATOM     28  C   UNL     1      31.343 -23.721 -14.530  0.00  0.00    +0.044 C 
ATOM     29  C   UNL     1      30.395 -24.906 -14.301  0.00  0.00    +0.004 C 
ATOM     30  C   UNL     1      30.556 -22.409 -14.652  0.00  0.00    +0.004 C 
ATOM     31  C   UNL     1      29.323 -24.988 -15.384  0.00  0.00    +0.000 C 
ATOM     32  C   UNL     1      29.483 -22.495 -15.735  0.00  0.00    +0.000 C 
ATOM     33  C   UNL     1      28.548 -23.679 -15.509  0.00  0.00    +0.000 C 
ENDBRANCH  27  28
ENDBRANCH  26  27
ENDBRANCH   6  26
TORSDOF 6
ENDMDL
MODEL 9
REMARK VINA RESULT:     -10.6      2.669      5.408
REMARK  Name = 447655
REMARK  6 active torsions:
REMARK  status: ('A' for Active; 'I' for Inactive)
REMARK    1  A    between atoms: N_4  and  C_14
REMARK    2  A    between atoms: C_6  and  O_26
REMARK    3  A    between atoms: C_15  and  S_20
REMARK    4  A    between atoms: S_20  and  N_23
REMARK    5  A    between atoms: O_26  and  C_27
REMARK    6  A    between atoms: C_27  and  C_28
REMARK                            x       y       z     vdW  Elec       q    Type
REMARK                         _______ _______ _______ _____ _____    ______ ____
ROOT
ATOM      1  N   UNL     1      35.249 -22.794 -17.059  0.00  0.00    -0.293 NA
ATOM      2  N   UNL     1      34.140 -20.872 -19.993  0.00  0.00    -0.266 NA
ATOM      3  N   UNL     1      36.978 -21.377 -18.036  0.00  0.00    -0.316 NA
ATOM      4  N   UNL     1      37.410 -22.708 -16.162  0.00  0.00    -0.238 N 
ATOM      5  N   UNL     1      36.234 -20.111 -19.974  0.00  0.00    -0.296 N 
ATOM      6  C   UNL     1      34.343 -22.396 -17.980  0.00  0.00    +0.288 C 
ATOM      7  C   UNL     1      34.748 -21.487 -18.936  0.00  0.00    +0.215 C 
ATOM      8  C   UNL     1      36.047 -20.998 -18.945  0.00  0.00    +0.196 C 
ATOM      9  C   UNL     1      36.494 -22.266 -17.143  0.00  0.00    +0.207 C 
ATOM     10  C   UNL     1      35.070 -20.058 -20.584  0.00  0.00    +0.164 C 
ATOM     11  H   UNL     1      33.205 -20.991 -20.277  0.00  0.00    +0.126 HD
ATOM     12  H   UNL     1      38.306 -22.308 -16.246  0.00  0.00    +0.166 HD
ATOM     13  H   UNL     1      37.057 -19.623 -20.206  0.00  0.00    +0.150 HD
ENDROOT
BRANCH   4  14
ATOM     14  C   UNL     1      37.292 -23.607 -15.086  0.00  0.00    +0.060 C 
ATOM     15  C   UNL     1      36.841 -24.031 -12.747  0.00  0.00    +0.123 C 
ATOM     16  C   UNL     1      36.959 -23.139 -13.813  0.00  0.00    +0.035 C 
ATOM     17  C   UNL     1      37.504 -24.974 -15.289  0.00  0.00    +0.015 C 
ATOM     18  C   UNL     1      37.054 -25.395 -12.953  0.00  0.00    +0.020 C 
ATOM     19  C   UNL     1      37.385 -25.865 -14.223  0.00  0.00    +0.003 C 
BRANCH  15  20
ATOM     20  S   UNL     1      36.425 -23.443 -11.157  0.00  0.00    +0.057 S 
ATOM     21  O   UNL     1      37.171 -22.217 -10.912  0.00  0.00    -0.153 OA
ATOM     22  O   UNL     1      34.974 -23.446 -11.029  0.00  0.00    -0.153 OA
BRANCH  20  23
ATOM     23  N   UNL     1      37.064 -24.685 -10.173  0.00  0.00    -0.203 NA
ATOM     24  H   UNL     1      37.860 -24.324  -9.646  0.00  0.00    +0.144 HD
ATOM     25  H   UNL     1      37.369 -25.461 -10.760  0.00  0.00    +0.144 HD
ENDBRANCH  20  23
ENDBRANCH  15  20
ENDBRANCH   4  14
BRANCH   6  26
ATOM     26  O   UNL     1      33.071 -22.912 -17.924  0.00  0.00    -0.453 OA
BRANCH  26  27
ATOM     27  C   UNL     1      32.252 -22.486 -16.852  0.00  0.00    +0.208 C 
BRANCH  27  28
ATOM     28  C   UNL     1      32.093 -23.648 -15.873  0.00  0.00    +0.044 C 
ATOM     29  C   UNL     1      32.878 -23.381 -14.582  0.00  0.00    +0.004 C 
ATOM     30  C   UNL     1      30.610 -23.900 -15.568  0.00  0.00    +0.004 C 
ATOM     31  C   UNL     1      32.692 -24.505 -13.566  0.00  0.00    +0.000 C 
ATOM     32  C   UNL     1      30.428 -25.023 -14.550  0.00  0.00    +0.000 C 
ATOM     33  C   UNL     1      31.217 -24.759 -13.272  0.00  0.00    +0.000 C 
ENDBRANCH  27  28
ENDBRANCH  26  27
ENDBRANCH   6  26
TORSDOF 6
ENDMDL
