MODEL 1
REMARK VINA RESULT:     -12.2      0.000      0.000
REMARK  Name = 10389239
REMARK  2 active torsions:
REMARK  status: ('A' for Active; 'I' for Inactive)
REMARK    1  A    between atoms: C_2  and  C_14
REMARK    2  A    between atoms: C_4  and  C_20
REMARK                            x       y       z     vdW  Elec       q    Type
REMARK                         _______ _______ _______ _____ _____    ______ ____
ROOT
ATOM      1  N   UNL     1      32.485 -22.290 -17.889  0.00  0.00    -0.244 NA
ATOM      2  C   UNL     1      34.377 -23.315 -16.107  0.00  0.00    +0.016 C 
ATOM      3  C   UNL     1      34.781 -22.506 -17.163  0.00  0.00    +0.020 C 
ATOM      4  C   UNL     1      33.804 -22.023 -18.018  0.00  0.00    +0.083 C 
ATOM      5  C   UNL     1      33.030 -23.614 -15.941  0.00  0.00    +0.022 C 
ATOM      6  C   UNL     1      32.131 -23.080 -16.851  0.00  0.00    +0.099 C 
ENDROOT
BRANCH   2  14
ATOM      7  O   UNL     1      36.169 -25.303 -11.178  0.00  0.00    -0.270 OA
ATOM      8  N   UNL     1      36.680 -23.968 -15.523  0.00  0.00    -0.316 N 
ATOM      9  N   UNL     1      38.228 -25.695 -12.151  0.00  0.00    -0.300 N 
ATOM     10  C   UNL     1      37.359 -24.491 -14.460  0.00  0.00    +0.031 C 
ATOM     11  C   UNL     1      38.815 -24.757 -14.398  0.00  0.00    +0.063 C 
ATOM     12  C   UNL     1      36.467 -24.712 -13.431  0.00  0.00    +0.064 C 
ATOM     13  C   UNL     1      39.047 -25.859 -13.358  0.00  0.00    +0.096 C 
ATOM     14  C   UNL     1      35.354 -23.845 -15.186  0.00  0.00    +0.048 C 
ATOM     15  C   UNL     1      35.195 -24.295 -13.890  0.00  0.00    +0.020 C 
ATOM     16  C   UNL     1      36.904 -25.256 -12.159  0.00  0.00    +0.247 C 
ATOM     17  H   UNL     1      37.075 -23.721 -16.389  0.00  0.00    +0.152 HD
ATOM     18  H   UNL     1      38.639 -25.907 -11.282  0.00  0.00    +0.150 HD
ENDBRANCH   2  14
BRANCH   4  20
ATOM     19  N   UNL     1      33.439 -19.929 -21.079  0.00  0.00    -0.244 NA
ATOM     20  C   UNL     1      34.147 -21.177 -19.136  0.00  0.00    +0.037 C 
ATOM     21  C   UNL     1      35.459 -20.790 -19.369  0.00  0.00    +0.005 C 
ATOM     22  C   UNL     1      35.768 -19.967 -20.461  0.00  0.00    +0.018 C 
ATOM     23  C   UNL     1      34.713 -19.555 -21.302  0.00  0.00    +0.081 C 
ATOM     24  C   UNL     1      33.183 -20.723 -20.014  0.00  0.00    +0.100 C 
ATOM     25  C   UNL     1      37.086 -19.557 -20.724  0.00  0.00    +0.001 C 
ATOM     26  C   UNL     1      35.020 -18.739 -22.386  0.00  0.00    +0.019 C 
ATOM     27  C   UNL     1      37.365 -18.740 -21.817  0.00  0.00    +0.000 C 
ATOM     28  C   UNL     1      36.330 -18.330 -22.648  0.00  0.00    +0.002 C 
ENDBRANCH   4  20
TORSDOF 2
ENDMDL
MODEL 2
REMARK VINA RESULT:     -12.1      1.092      1.305
REMARK  Name = 10389239
REMARK  2 active torsions:
REMARK  status: ('A' for Active; 'I' for Inactive)
REMARK    1  A    between atoms: C_2  and  C_14
REMARK    2  A    between atoms: C_4  and  C_20
REMARK                            x       y       z     vdW  Elec       q    Type
REMARK                         _______ _______ _______ _____ _____    ______ ____
ROOT
ATOM      1  N   UNL     1      32.511 -22.363 -17.996  0.00  0.00    -0.244 NA
ATOM      2  C   UNL     1      34.338 -23.212 -16.060  0.00  0.00    +0.016 C 
ATOM      3  C   UNL     1      34.760 -22.402 -17.108  0.00  0.00    +0.020 C 
ATOM      4  C   UNL     1      33.815 -22.009 -18.042  0.00  0.00    +0.083 C 
ATOM      5  C   UNL     1      33.005 -23.600 -15.978  0.00  0.00    +0.022 C 
ATOM      6  C   UNL     1      32.139 -23.151 -16.962  0.00  0.00    +0.099 C 
ENDROOT
BRANCH   2  14
ATOM      7  O   UNL     1      37.909 -26.814 -13.664  0.00  0.00    -0.270 OA
ATOM      8  N   UNL     1      35.565 -22.896 -13.947  0.00  0.00    -0.316 N 
ATOM      9  N   UNL     1      38.417 -25.183 -12.107  0.00  0.00    -0.300 N 
ATOM     10  C   UNL     1      36.481 -23.562 -13.184  0.00  0.00    +0.031 C 
ATOM     11  C   UNL     1      37.034 -23.106 -11.887  0.00  0.00    +0.063 C 
ATOM     12  C   UNL     1      36.796 -24.751 -13.807  0.00  0.00    +0.064 C 
ATOM     13  C   UNL     1      38.402 -23.773 -11.701  0.00  0.00    +0.096 C 
ATOM     14  C   UNL     1      35.281 -23.652 -15.059  0.00  0.00    +0.048 C 
ATOM     15  C   UNL     1      36.027 -24.812 -14.994  0.00  0.00    +0.020 C 
ATOM     16  C   UNL     1      37.742 -25.682 -13.221  0.00  0.00    +0.247 C 
ATOM     17  H   UNL     1      35.173 -22.018 -13.736  0.00  0.00    +0.152 HD
ATOM     18  H   UNL     1      38.935 -25.816 -11.560  0.00  0.00    +0.150 HD
ENDBRANCH   2  14
BRANCH   4  20
ATOM     19  N   UNL     1      33.504 -19.929 -21.118  0.00  0.00    -0.244 NA
ATOM     20  C   UNL     1      34.178 -21.168 -19.157  0.00  0.00    +0.037 C 
ATOM     21  C   UNL     1      35.493 -20.781 -19.368  0.00  0.00    +0.005 C 
ATOM     22  C   UNL     1      35.821 -19.963 -20.458  0.00  0.00    +0.018 C 
ATOM     23  C   UNL     1      34.782 -19.556 -21.320  0.00  0.00    +0.081 C 
ATOM     24  C   UNL     1      33.229 -20.719 -20.055  0.00  0.00    +0.100 C 
ATOM     25  C   UNL     1      37.144 -19.554 -20.699  0.00  0.00    +0.001 C 
ATOM     26  C   UNL     1      35.108 -18.744 -22.402  0.00  0.00    +0.019 C 
ATOM     27  C   UNL     1      37.443 -18.741 -21.790  0.00  0.00    +0.000 C 
ATOM     28  C   UNL     1      36.423 -18.336 -22.642  0.00  0.00    +0.002 C 
ENDBRANCH   4  20
TORSDOF 2
ENDMDL
MODEL 3
REMARK VINA RESULT:     -11.9      6.336     11.714
REMARK  Name = 10389239
REMARK  2 active torsions:
REMARK  status: ('A' for Active; 'I' for Inactive)
REMARK    1  A    between atoms: C_2  and  C_14
REMARK    2  A    between atoms: C_4  and  C_20
REMARK                            x       y       z     vdW  Elec       q    Type
REMARK                         _______ _______ _______ _____ _____    ______ ____
ROOT
ATOM      1  N   UNL     1      35.589 -17.562 -23.991  0.00  0.00    -0.244 NA
ATOM      2  C   UNL     1      34.518 -15.070 -23.319  0.00  0.00    +0.016 C 
ATOM      3  C   UNL     1      34.769 -16.011 -22.327  0.00  0.00    +0.020 C 
ATOM      4  C   UNL     1      35.300 -17.232 -22.712  0.00  0.00    +0.083 C 
ATOM      5  C   UNL     1      34.800 -15.373 -24.646  0.00  0.00    +0.022 C 
ATOM      6  C   UNL     1      35.331 -16.622 -24.927  0.00  0.00    +0.099 C 
ENDROOT
BRANCH   2  14
ATOM      7  O   UNL     1      33.732  -9.548 -23.903  0.00  0.00    -0.270 OA
ATOM      8  N   UNL     1      33.186 -13.602 -21.857  0.00  0.00    -0.316 N 
ATOM      9  N   UNL     1      32.202  -9.642 -22.174  0.00  0.00    -0.300 N 
ATOM     10  C   UNL     1      32.813 -12.291 -21.787  0.00  0.00    +0.031 C 
ATOM     11  C   UNL     1      31.991 -11.671 -20.721  0.00  0.00    +0.063 C 
ATOM     12  C   UNL     1      33.349 -11.620 -22.866  0.00  0.00    +0.064 C 
ATOM     13  C   UNL     1      31.313 -10.431 -21.312  0.00  0.00    +0.096 C 
ATOM     14  C   UNL     1      33.965 -13.782 -22.974  0.00  0.00    +0.048 C 
ATOM     15  C   UNL     1      34.088 -12.566 -23.615  0.00  0.00    +0.020 C 
ATOM     16  C   UNL     1      33.130 -10.198 -23.053  0.00  0.00    +0.247 C 
ATOM     17  H   UNL     1      32.936 -14.304 -21.214  0.00  0.00    +0.152 HD
ATOM     18  H   UNL     1      32.139  -8.661 -22.127  0.00  0.00    +0.150 HD
ENDBRANCH   2  14
BRANCH   4  20
ATOM     19  N   UNL     1      37.201 -19.390 -20.343  0.00  0.00    -0.244 NA
ATOM     20  C   UNL     1      35.587 -18.257 -21.738  0.00  0.00    +0.037 C 
ATOM     21  C   UNL     1      34.588 -19.089 -21.253  0.00  0.00    +0.005 C 
ATOM     22  C   UNL     1      34.892 -20.078 -20.307  0.00  0.00    +0.018 C 
ATOM     23  C   UNL     1      36.229 -20.195 -19.874  0.00  0.00    +0.081 C 
ATOM     24  C   UNL     1      36.867 -18.448 -21.255  0.00  0.00    +0.100 C 
ATOM     25  C   UNL     1      33.902 -20.935 -19.796  0.00  0.00    +0.001 C 
ATOM     26  C   UNL     1      36.530 -21.177 -18.935  0.00  0.00    +0.019 C 
ATOM     27  C   UNL     1      34.232 -21.910 -18.857  0.00  0.00    +0.000 C 
ATOM     28  C   UNL     1      35.547 -22.030 -18.426  0.00  0.00    +0.002 C 
ENDBRANCH   4  20
TORSDOF 2
ENDMDL
MODEL 4
REMARK VINA RESULT:     -11.8      1.519      2.016
REMARK  Name = 10389239
REMARK  2 active torsions:
REMARK  status: ('A' for Active; 'I' for Inactive)
REMARK    1  A    between atoms: C_2  and  C_14
REMARK    2  A    between atoms: C_4  and  C_20
REMARK                            x       y       z     vdW  Elec       q    Type
REMARK                         _______ _______ _______ _____ _____    ______ ____
ROOT
ATOM      1  N   UNL     1      33.609 -22.270 -18.544  0.00  0.00    -0.244 NA
ATOM      2  C   UNL     1      35.101 -23.028 -16.306  0.00  0.00    +0.016 C 
ATOM      3  C   UNL     1      35.644 -22.158 -17.244  0.00  0.00    +0.020 C 
ATOM      4  C   UNL     1      34.864 -21.813 -18.336  0.00  0.00    +0.083 C 
ATOM      5  C   UNL     1      33.813 -23.521 -16.485  0.00  0.00    +0.022 C 
ATOM      6  C   UNL     1      33.115 -23.114 -17.611  0.00  0.00    +0.099 C 
ENDROOT
BRANCH   2  14
ATOM      7  O   UNL     1      38.042 -22.144 -11.613  0.00  0.00    -0.270 OA
ATOM      8  N   UNL     1      36.220 -24.728 -14.918  0.00  0.00    -0.316 N 
ATOM      9  N   UNL     1      38.176 -24.434 -11.336  0.00  0.00    -0.300 N 
ATOM     10  C   UNL     1      36.942 -24.793 -13.761  0.00  0.00    +0.031 C 
ATOM     11  C   UNL     1      37.534 -26.016 -13.169  0.00  0.00    +0.063 C 
ATOM     12  C   UNL     1      37.054 -23.523 -13.237  0.00  0.00    +0.064 C 
ATOM     13  C   UNL     1      37.687 -25.780 -11.662  0.00  0.00    +0.096 C 
ATOM     14  C   UNL     1      35.870 -23.420 -15.149  0.00  0.00    +0.048 C 
ATOM     15  C   UNL     1      36.380 -22.649 -14.123  0.00  0.00    +0.020 C 
ATOM     16  C   UNL     1      37.783 -23.277 -12.007  0.00  0.00    +0.247 C 
ATOM     17  H   UNL     1      35.988 -25.492 -15.493  0.00  0.00    +0.152 HD
ATOM     18  H   UNL     1      38.820 -24.344 -10.597  0.00  0.00    +0.150 HD
ENDBRANCH   2  14
BRANCH   4  20
ATOM     19  N   UNL     1      37.193 -19.622 -20.250  0.00  0.00    -0.244 NA
ATOM     20  C   UNL     1      35.362 -20.915 -19.350  0.00  0.00    +0.037 C 
ATOM     21  C   UNL     1      34.546 -20.471 -20.381  0.00  0.00    +0.005 C 
ATOM     22  C   UNL     1      35.052 -19.599 -21.354  0.00  0.00    +0.018 C 
ATOM     23  C   UNL     1      36.399 -19.193 -21.248  0.00  0.00    +0.081 C 
ATOM     24  C   UNL     1      36.667 -20.463 -19.330  0.00  0.00    +0.100 C 
ATOM     25  C   UNL     1      34.252 -19.132 -22.411  0.00  0.00    +0.001 C 
ATOM     26  C   UNL     1      36.901 -18.327 -22.215  0.00  0.00    +0.019 C 
ATOM     27  C   UNL     1      34.780 -18.265 -23.365  0.00  0.00    +0.000 C 
ATOM     28  C   UNL     1      36.106 -17.863 -23.266  0.00  0.00    +0.002 C 
ENDBRANCH   4  20
TORSDOF 2
ENDMDL
MODEL 5
REMARK VINA RESULT:     -11.7      3.406      8.563
REMARK  Name = 10389239
REMARK  2 active torsions:
REMARK  status: ('A' for Active; 'I' for Inactive)
REMARK    1  A    between atoms: C_2  and  C_14
REMARK    2  A    between atoms: C_4  and  C_20
REMARK                            x       y       z     vdW  Elec       q    Type
REMARK                         _______ _______ _______ _____ _____    ______ ____
ROOT
ATOM      1  N   UNL     1      36.183 -23.029 -15.656  0.00  0.00    -0.244 NA
ATOM      2  C   UNL     1      36.195 -21.501 -17.996  0.00  0.00    +0.016 C 
ATOM      3  C   UNL     1      34.999 -22.006 -17.500  0.00  0.00    +0.020 C 
ATOM      4  C   UNL     1      35.046 -22.757 -16.337  0.00  0.00    +0.083 C 
ATOM      5  C   UNL     1      37.386 -21.760 -17.326  0.00  0.00    +0.022 C 
ATOM      6  C   UNL     1      37.326 -22.521 -16.170  0.00  0.00    +0.099 C 
ENDROOT
BRANCH   2  14
ATOM      7  O   UNL     1      38.482 -18.157 -21.875  0.00  0.00    -0.270 OA
ATOM      8  N   UNL     1      35.068 -20.517 -19.953  0.00  0.00    -0.316 N 
ATOM      9  N   UNL     1      36.512 -18.300 -23.074  0.00  0.00    -0.300 N 
ATOM     10  C   UNL     1      35.376 -19.732 -21.026  0.00  0.00    +0.031 C 
ATOM     11  C   UNL     1      34.431 -19.263 -22.067  0.00  0.00    +0.063 C 
ATOM     12  C   UNL     1      36.719 -19.422 -20.977  0.00  0.00    +0.064 C 
ATOM     13  C   UNL     1      35.237 -18.978 -23.339  0.00  0.00    +0.096 C 
ATOM     14  C   UNL     1      36.203 -20.712 -19.204  0.00  0.00    +0.048 C 
ATOM     15  C   UNL     1      37.243 -20.038 -19.814  0.00  0.00    +0.020 C 
ATOM     16  C   UNL     1      37.338 -18.586 -21.988  0.00  0.00    +0.247 C 
ATOM     17  H   UNL     1      34.178 -20.884 -19.749  0.00  0.00    +0.152 HD
ATOM     18  H   UNL     1      36.802 -17.600 -23.703  0.00  0.00    +0.150 HD
ENDBRANCH   2  14
BRANCH   4  20
ATOM     19  N   UNL     1      32.811 -24.718 -14.092  0.00  0.00    -0.244 NA
ATOM     20  C   UNL     1      33.845 -23.314 -15.762  0.00  0.00    +0.037 C 
ATOM     21  C   UNL     1      32.594 -23.014 -16.281  0.00  0.00    +0.005 C 
ATOM     22  C   UNL     1      31.441 -23.566 -15.705  0.00  0.00    +0.018 C 
ATOM     23  C   UNL     1      31.598 -24.426 -14.597  0.00  0.00    +0.081 C 
ATOM     24  C   UNL     1      33.898 -24.165 -14.676  0.00  0.00    +0.100 C 
ATOM     25  C   UNL     1      30.159 -23.282 -16.207  0.00  0.00    +0.001 C 
ATOM     26  C   UNL     1      30.453 -24.973 -14.026  0.00  0.00    +0.019 C 
ATOM     27  C   UNL     1      29.031 -23.845 -15.616  0.00  0.00    +0.000 C 
ATOM     28  C   UNL     1      29.179 -24.691 -14.524  0.00  0.00    +0.002 C 
ENDBRANCH   4  20
TORSDOF 2
ENDMDL
MODEL 6
REMARK VINA RESULT:     -11.4      2.913      8.786
REMARK  Name = 10389239
REMARK  2 active torsions:
REMARK  status: ('A' for Active; 'I' for Inactive)
REMARK    1  A    between atoms: C_2  and  C_14
REMARK    2  A    between atoms: C_4  and  C_20
REMARK                            x       y       z     vdW  Elec       q    Type
REMARK                         _______ _______ _______ _____ _____    ______ ____
ROOT
ATOM      1  N   UNL     1      33.908 -23.434 -16.757  0.00  0.00    -0.244 NA
ATOM      2  C   UNL     1      34.711 -21.660 -18.761  0.00  0.00    +0.016 C 
ATOM      3  C   UNL     1      35.511 -21.854 -17.641  0.00  0.00    +0.020 C 
ATOM      4  C   UNL     1      35.068 -22.744 -16.676  0.00  0.00    +0.083 C 
ATOM      5  C   UNL     1      33.510 -22.350 -18.881  0.00  0.00    +0.022 C 
ATOM      6  C   UNL     1      33.158 -23.219 -17.860  0.00  0.00    +0.099 C 
ENDROOT
BRANCH   2  14
ATOM      7  O   UNL     1      38.309 -18.289 -21.434  0.00  0.00    -0.270 OA
ATOM      8  N   UNL     1      34.250 -20.282 -20.751  0.00  0.00    -0.316 N 
ATOM      9  N   UNL     1      36.706 -17.970 -23.067  0.00  0.00    -0.300 N 
ATOM     10  C   UNL     1      34.917 -19.436 -21.588  0.00  0.00    +0.031 C 
ATOM     11  C   UNL     1      34.333 -18.700 -22.735  0.00  0.00    +0.063 C 
ATOM     12  C   UNL     1      36.231 -19.353 -21.179  0.00  0.00    +0.064 C 
ATOM     13  C   UNL     1      35.465 -18.399 -23.724  0.00  0.00    +0.096 C 
ATOM     14  C   UNL     1      35.124 -20.744 -19.797  0.00  0.00    +0.048 C 
ATOM     15  C   UNL     1      36.361 -20.178 -20.036  0.00  0.00    +0.020 C 
ATOM     16  C   UNL     1      37.186 -18.512 -21.876  0.00  0.00    +0.247 C 
ATOM     17  H   UNL     1      33.298 -20.524 -20.819  0.00  0.00    +0.152 HD
ATOM     18  H   UNL     1      37.231 -17.256 -23.496  0.00  0.00    +0.150 HD
ENDBRANCH   2  14
BRANCH   4  20
ATOM     19  N   UNL     1      38.005 -23.094 -14.409  0.00  0.00    -0.244 NA
ATOM     20  C   UNL     1      35.846 -22.998 -15.486  0.00  0.00    +0.037 C 
ATOM     21  C   UNL     1      35.239 -23.378 -14.298  0.00  0.00    +0.005 C 
ATOM     22  C   UNL     1      36.015 -23.618 -13.156  0.00  0.00    +0.018 C 
ATOM     23  C   UNL     1      37.414 -23.463 -13.258  0.00  0.00    +0.081 C 
ATOM     24  C   UNL     1      37.221 -22.872 -15.489  0.00  0.00    +0.100 C 
ATOM     25  C   UNL     1      35.431 -24.005 -11.937  0.00  0.00    +0.001 C 
ATOM     26  C   UNL     1      38.183 -23.702 -12.123  0.00  0.00    +0.019 C 
ATOM     27  C   UNL     1      36.226 -24.237 -10.818  0.00  0.00    +0.000 C 
ATOM     28  C   UNL     1      37.603 -24.086 -10.911  0.00  0.00    +0.002 C 
ENDBRANCH   4  20
TORSDOF 2
ENDMDL
MODEL 7
REMARK VINA RESULT:     -11.2      3.210      5.104
REMARK  Name = 10389239
REMARK  2 active torsions:
REMARK  status: ('A' for Active; 'I' for Inactive)
REMARK    1  A    between atoms: C_2  and  C_14
REMARK    2  A    between atoms: C_4  and  C_20
REMARK                            x       y       z     vdW  Elec       q    Type
REMARK                         _______ _______ _______ _____ _____    ______ ____
ROOT
ATOM      1  N   UNL     1      36.898 -21.946 -17.459  0.00  0.00    -0.244 NA
ATOM      2  C   UNL     1      34.322 -22.664 -16.648  0.00  0.00    +0.016 C 
ATOM      3  C   UNL     1      34.500 -21.845 -17.756  0.00  0.00    +0.020 C 
ATOM      4  C   UNL     1      35.797 -21.517 -18.117  0.00  0.00    +0.083 C 
ATOM      5  C   UNL     1      35.429 -23.125 -15.943  0.00  0.00    +0.022 C 
ATOM      6  C   UNL     1      36.684 -22.741 -16.387  0.00  0.00    +0.099 C 
ENDROOT
BRANCH   2  14
ATOM      7  O   UNL     1      28.717 -22.508 -16.768  0.00  0.00    -0.270 OA
ATOM      8  N   UNL     1      32.775 -23.881 -15.166  0.00  0.00    -0.316 N 
ATOM      9  N   UNL     1      28.695 -24.191 -15.185  0.00  0.00    -0.300 N 
ATOM     10  C   UNL     1      31.430 -24.046 -15.002  0.00  0.00    +0.031 C 
ATOM     11  C   UNL     1      30.770 -24.858 -13.952  0.00  0.00    +0.063 C 
ATOM     12  C   UNL     1      30.773 -23.311 -15.966  0.00  0.00    +0.064 C 
ATOM     13  C   UNL     1      29.391 -25.272 -14.476  0.00  0.00    +0.096 C 
ATOM     14  C   UNL     1      32.992 -23.037 -16.228  0.00  0.00    +0.048 C 
ATOM     15  C   UNL     1      31.765 -22.663 -16.739  0.00  0.00    +0.020 C 
ATOM     16  C   UNL     1      29.324 -23.283 -16.035  0.00  0.00    +0.247 C 
ATOM     17  H   UNL     1      33.475 -24.299 -14.614  0.00  0.00    +0.152 HD
ATOM     18  H   UNL     1      27.723 -24.103 -15.051  0.00  0.00    +0.150 HD
ENDBRANCH   2  14
BRANCH   4  20
ATOM     19  N   UNL     1      37.596 -19.258 -20.472  0.00  0.00    -0.244 NA
ATOM     20  C   UNL     1      36.060 -20.671 -19.256  0.00  0.00    +0.037 C 
ATOM     21  C   UNL     1      35.089 -20.438 -20.219  0.00  0.00    +0.005 C 
ATOM     22  C   UNL     1      35.368 -19.613 -21.317  0.00  0.00    +0.018 C 
ATOM     23  C   UNL     1      36.652 -19.034 -21.404  0.00  0.00    +0.081 C 
ATOM     24  C   UNL     1      37.287 -20.061 -19.428  0.00  0.00    +0.100 C 
ATOM     25  C   UNL     1      34.406 -19.358 -22.310  0.00  0.00    +0.001 C 
ATOM     26  C   UNL     1      36.928 -18.215 -22.495  0.00  0.00    +0.019 C 
ATOM     27  C   UNL     1      34.710 -18.533 -23.390  0.00  0.00    +0.000 C 
ATOM     28  C   UNL     1      35.972 -17.961 -23.482  0.00  0.00    +0.002 C 
ENDBRANCH   4  20
TORSDOF 2
ENDMDL
MODEL 8
REMARK VINA RESULT:     -11.2      8.974     14.298
REMARK  Name = 10389239
REMARK  2 active torsions:
REMARK  status: ('A' for Active; 'I' for Inactive)
REMARK    1  A    between atoms: C_2  and  C_14
REMARK    2  A    between atoms: C_4  and  C_20
REMARK                            x       y       z     vdW  Elec       q    Type
REMARK                         _______ _______ _______ _____ _____    ______ ____
ROOT
ATOM      1  N   UNL     1      34.090 -13.623 -25.668  0.00  0.00    -0.244 NA
ATOM      2  C   UNL     1      33.741 -11.169 -24.379  0.00  0.00    +0.016 C 
ATOM      3  C   UNL     1      34.065 -12.302 -23.643  0.00  0.00    +0.020 C 
ATOM      4  C   UNL     1      34.227 -13.495 -24.329  0.00  0.00    +0.083 C 
ATOM      5  C   UNL     1      33.590 -11.259 -25.758  0.00  0.00    +0.022 C 
ATOM      6  C   UNL     1      33.775 -12.499 -26.349  0.00  0.00    +0.099 C 
ENDROOT
BRANCH   2  14
ATOM      7  O   UNL     1      34.628  -5.696 -23.532  0.00  0.00    -0.270 OA
ATOM      8  N   UNL     1      32.788  -9.775 -22.585  0.00  0.00    -0.316 N 
ATOM      9  N   UNL     1      33.016  -5.751 -21.877  0.00  0.00    -0.300 N 
ATOM     10  C   UNL     1      32.806  -8.471 -22.181  0.00  0.00    +0.031 C 
ATOM     11  C   UNL     1      32.124  -7.916 -20.988  0.00  0.00    +0.063 C 
ATOM     12  C   UNL     1      33.589  -7.747 -23.055  0.00  0.00    +0.064 C 
ATOM     13  C   UNL     1      31.878  -6.424 -21.240  0.00  0.00    +0.096 C 
ATOM     14  C   UNL     1      33.561  -9.900 -23.714  0.00  0.00    +0.048 C 
ATOM     15  C   UNL     1      34.075  -8.657 -24.025  0.00  0.00    +0.020 C 
ATOM     16  C   UNL     1      33.805  -6.324 -22.873  0.00  0.00    +0.247 C 
ATOM     17  H   UNL     1      32.301 -10.505 -22.140  0.00  0.00    +0.152 HD
ATOM     18  H   UNL     1      33.236  -4.838 -21.581  0.00  0.00    +0.150 HD
ENDBRANCH   2  14
BRANCH   4  20
ATOM     19  N   UNL     1      35.204 -15.812 -21.579  0.00  0.00    -0.244 NA
ATOM     20  C   UNL     1      34.565 -14.714 -23.633  0.00  0.00    +0.037 C 
ATOM     21  C   UNL     1      34.586 -15.935 -24.290  0.00  0.00    +0.005 C 
ATOM     22  C   UNL     1      34.916 -17.105 -23.592  0.00  0.00    +0.018 C 
ATOM     23  C   UNL     1      35.223 -16.996 -22.219  0.00  0.00    +0.081 C 
ATOM     24  C   UNL     1      34.880 -14.706 -22.288  0.00  0.00    +0.100 C 
ATOM     25  C   UNL     1      34.946 -18.358 -24.228  0.00  0.00    +0.001 C 
ATOM     26  C   UNL     1      35.551 -18.158 -21.527  0.00  0.00    +0.019 C 
ATOM     27  C   UNL     1      35.278 -19.504 -23.510  0.00  0.00    +0.000 C 
ATOM     28  C   UNL     1      35.581 -19.404 -22.158  0.00  0.00    +0.002 C 
ENDBRANCH   4  20
TORSDOF 2
ENDMDL
MODEL 9
REMARK VINA RESULT:     -11.1      8.207     12.479
REMARK  Name = 10389239
REMARK  2 active torsions:
REMARK  status: ('A' for Active; 'I' for Inactive)
REMARK    1  A    between atoms: C_2  and  C_14
REMARK    2  A    between atoms: C_4  and  C_20
REMARK                            x       y       z     vdW  Elec       q    Type
REMARK                         _______ _______ _______ _____ _____    ______ ____
ROOT
ATOM      1  N   UNL     1      33.451 -11.754 -26.185  0.00  0.00    -0.244 NA
ATOM      2  C   UNL     1      34.175 -14.111 -24.869  0.00  0.00    +0.016 C 
ATOM      3  C   UNL     1      34.313 -12.885 -24.229  0.00  0.00    +0.020 C 
ATOM      4  C   UNL     1      33.941 -11.746 -24.925  0.00  0.00    +0.083 C 
ATOM      5  C   UNL     1      33.677 -14.162 -26.166  0.00  0.00    +0.022 C 
ATOM      6  C   UNL     1      33.332 -12.965 -26.774  0.00  0.00    +0.099 C 
ENDROOT
BRANCH   2  14
ATOM      7  O   UNL     1      34.929 -19.649 -24.399  0.00  0.00    -0.270 OA
ATOM      8  N   UNL     1      34.926 -15.338 -22.869  0.00  0.00    -0.316 N 
ATOM      9  N   UNL     1      35.832 -19.288 -22.303  0.00  0.00    -0.300 N 
ATOM     10  C   UNL     1      35.215 -16.621 -22.503  0.00  0.00    +0.031 C 
ATOM     11  C   UNL     1      35.635 -17.071 -21.155  0.00  0.00    +0.063 C 
ATOM     12  C   UNL     1      35.028 -17.445 -23.592  0.00  0.00    +0.064 C 
ATOM     13  C   UNL     1      36.426 -18.374 -21.321  0.00  0.00    +0.096 C 
ATOM     14  C   UNL     1      34.548 -15.329 -24.190  0.00  0.00    +0.048 C 
ATOM     15  C   UNL     1      34.597 -16.625 -24.662  0.00  0.00    +0.020 C 
ATOM     16  C   UNL     1      35.249 -18.876 -23.501  0.00  0.00    +0.247 C 
ATOM     17  H   UNL     1      34.981 -14.549 -22.284  0.00  0.00    +0.152 HD
ATOM     18  H   UNL     1      35.846 -20.252 -22.103  0.00  0.00    +0.150 HD
ENDBRANCH   2  14
BRANCH   4  20
ATOM     19  N   UNL     1      35.394  -8.476 -23.884  0.00  0.00    -0.244 NA
ATOM     20  C   UNL     1      34.056 -10.438 -24.325  0.00  0.00    +0.037 C 
ATOM     21  C   UNL     1      32.999  -9.870 -23.629  0.00  0.00    +0.005 C 
ATOM     22  C   UNL     1      33.134  -8.598 -23.055  0.00  0.00    +0.018 C 
ATOM     23  C   UNL     1      34.366  -7.928 -23.209  0.00  0.00    +0.081 C 
ATOM     24  C   UNL     1      35.222  -9.705 -24.422  0.00  0.00    +0.100 C 
ATOM     25  C   UNL     1      32.082  -7.995 -22.344  0.00  0.00    +0.001 C 
ATOM     26  C   UNL     1      34.500  -6.665 -22.639  0.00  0.00    +0.019 C 
ATOM     27  C   UNL     1      32.244  -6.731 -21.784  0.00  0.00    +0.000 C 
ATOM     28  C   UNL     1      33.455  -6.065 -21.932  0.00  0.00    +0.002 C 
ENDBRANCH   4  20
TORSDOF 2
ENDMDL
