MODEL 1
REMARK VINA RESULT:     -12.2      0.000      0.000
REMARK  Name = 10156987
REMARK  5 active torsions:
REMARK  status: ('A' for Active; 'I' for Inactive)
REMARK    1  A    between atoms: C_2  and  C_23
REMARK    2  A    between atoms: C_9  and  C_13
REMARK    3  A    between atoms: C_23  and  N_24
REMARK    4  A    between atoms: C_25  and  C_31
REMARK    5  A    between atoms: C_31  and  N_32
REMARK                            x       y       z     vdW  Elec       q    Type
REMARK                         _______ _______ _______ _____ _____    ______ ____
ROOT
ATOM      1  N   UNL     1      35.253 -21.467 -18.455  0.00  0.00    -0.312 N 
ATOM      2  C   UNL     1      35.670 -19.288 -21.919  0.00  0.00    -0.043 C 
ATOM      3  C   UNL     1      34.435 -19.750 -21.462  0.00  0.00    -0.005 C 
ATOM      4  C   UNL     1      36.842 -19.541 -21.217  0.00  0.00    -0.005 C 
ATOM      5  C   UNL     1      34.385 -20.491 -20.264  0.00  0.00    +0.014 C 
ATOM      6  C   UNL     1      35.576 -20.734 -19.576  0.00  0.00    +0.048 C 
ATOM      7  C   UNL     1      36.817 -20.273 -20.027  0.00  0.00    +0.014 C 
ATOM      8  C   UNL     1      33.340 -21.103 -19.518  0.00  0.00    +0.016 C 
ATOM      9  C   UNL     1      33.904 -21.695 -18.413  0.00  0.00    +0.053 C 
ATOM     10  H   UNL     1      35.899 -21.783 -17.783  0.00  0.00    +0.152 HD
ENDROOT
BRANCH   9  13
ATOM     11  O   UNL     1      35.535 -23.072 -16.514  0.00  0.00    -0.270 OA
ATOM     12  N   UNL     1      33.731 -23.823 -15.316  0.00  0.00    -0.280 N 
ATOM     13  C   UNL     1      33.380 -22.446 -17.315  0.00  0.00    +0.067 C 
ATOM     14  C   UNL     1      32.049 -22.530 -17.140  0.00  0.00    +0.007 C 
ATOM     15  C   UNL     1      34.316 -23.130 -16.359  0.00  0.00    +0.251 C 
ATOM     16  C   UNL     1      31.481 -23.282 -16.024  0.00  0.00    +0.014 C 
ATOM     17  C   UNL     1      32.343 -23.917 -15.125  0.00  0.00    +0.051 C 
ATOM     18  C   UNL     1      30.100 -23.378 -15.833  0.00  0.00    +0.001 C 
ATOM     19  C   UNL     1      31.837 -24.643 -14.044  0.00  0.00    +0.015 C 
ATOM     20  C   UNL     1      29.591 -24.103 -14.753  0.00  0.00    +0.000 C 
ATOM     21  C   UNL     1      30.458 -24.734 -13.861  0.00  0.00    +0.001 C 
ATOM     22  H   UNL     1      34.321 -24.276 -14.671  0.00  0.00    +0.155 HD
ENDBRANCH   9  13
BRANCH   2  23
ATOM     23  C   UNL     1      35.729 -18.500 -23.195  0.00  0.00    -0.050 C 
BRANCH  23  24
ATOM     24  N   UNL     1      35.017 -17.228 -23.087  0.00  0.00    +0.390 N 
ATOM     25  C   UNL     1      34.771 -14.308 -23.206  0.00  0.00    -0.026 C 
ATOM     26  C   UNL     1      34.852 -15.073 -21.880  0.00  0.00    -0.025 C 
ATOM     27  C   UNL     1      34.216 -15.225 -24.299  0.00  0.00    -0.025 C 
ATOM     28  C   UNL     1      35.619 -16.387 -22.043  0.00  0.00    -0.077 C 
ATOM     29  C   UNL     1      35.003 -16.534 -24.382  0.00  0.00    -0.077 C 
ATOM     30  H   UNL     1      34.050 -17.415 -22.821  0.00  0.00    -0.079 HD
BRANCH  25  31
ATOM     31  C   UNL     1      33.921 -13.048 -23.061  0.00  0.00    -0.086 C 
BRANCH  31  32
ATOM     32  N   UNL     1      34.557 -11.915 -23.714  0.00  0.00    +0.380 N 
ATOM     33  H   UNL     1      34.296 -11.900 -24.699  0.00  0.00    -0.089 HD
ATOM     34  H   UNL     1      35.570 -12.000 -23.632  0.00  0.00    -0.089 HD
ATOM     35  H   UNL     1      34.251 -11.049 -23.268  0.00  0.00    -0.089 HD
ENDBRANCH  31  32
ENDBRANCH  25  31
ENDBRANCH  23  24
ENDBRANCH   2  23
TORSDOF 5
ENDMDL
MODEL 2
REMARK VINA RESULT:     -11.9      2.220      3.244
REMARK  Name = 10156987
REMARK  5 active torsions:
REMARK  status: ('A' for Active; 'I' for Inactive)
REMARK    1  A    between atoms: C_2  and  C_23
REMARK    2  A    between atoms: C_9  and  C_13
REMARK    3  A    between atoms: C_23  and  N_24
REMARK    4  A    between atoms: C_25  and  C_31
REMARK    5  A    between atoms: C_31  and  N_32
REMARK                            x       y       z     vdW  Elec       q    Type
REMARK                         _______ _______ _______ _____ _____    ______ ____
ROOT
ATOM      1  N   UNL     1      36.417 -20.211 -19.799  0.00  0.00    -0.312 N 
ATOM      2  C   UNL     1      35.475 -18.151 -23.232  0.00  0.00    -0.043 C 
ATOM      3  C   UNL     1      34.549 -18.939 -22.546  0.00  0.00    -0.005 C 
ATOM      4  C   UNL     1      36.783 -18.017 -22.785  0.00  0.00    -0.005 C 
ATOM      5  C   UNL     1      34.960 -19.610 -21.377  0.00  0.00    +0.014 C 
ATOM      6  C   UNL     1      36.280 -19.462 -20.946  0.00  0.00    +0.048 C 
ATOM      7  C   UNL     1      37.213 -18.674 -21.628  0.00  0.00    +0.014 C 
ATOM      8  C   UNL     1      34.312 -20.472 -20.449  0.00  0.00    +0.016 C 
ATOM      9  C   UNL     1      35.234 -20.825 -19.491  0.00  0.00    +0.053 C 
ATOM     10  H   UNL     1      37.248 -20.293 -19.276  0.00  0.00    +0.152 HD
ENDROOT
BRANCH   9  13
ATOM     11  O   UNL     1      32.934 -22.333 -18.714  0.00  0.00    -0.270 OA
ATOM     12  N   UNL     1      33.971 -23.205 -16.865  0.00  0.00    -0.280 N 
ATOM     13  C   UNL     1      35.184 -21.651 -18.325  0.00  0.00    +0.067 C 
ATOM     14  C   UNL     1      36.263 -21.743 -17.528  0.00  0.00    +0.007 C 
ATOM     15  C   UNL     1      33.933 -22.417 -18.001  0.00  0.00    +0.251 C 
ATOM     16  C   UNL     1      36.249 -22.585 -16.334  0.00  0.00    +0.014 C 
ATOM     17  C   UNL     1      35.092 -23.307 -16.027  0.00  0.00    +0.051 C 
ATOM     18  C   UNL     1      37.364 -22.687 -15.497  0.00  0.00    +0.001 C 
ATOM     19  C   UNL     1      35.042 -24.125 -14.895  0.00  0.00    +0.015 C 
ATOM     20  C   UNL     1      37.316 -23.504 -14.365  0.00  0.00    +0.000 C 
ATOM     21  C   UNL     1      36.158 -24.221 -14.065  0.00  0.00    +0.001 C 
ATOM     22  H   UNL     1      33.166 -23.722 -16.632  0.00  0.00    +0.155 HD
ENDBRANCH   9  13
BRANCH   2  23
ATOM     23  C   UNL     1      35.044 -17.435 -24.478  0.00  0.00    -0.050 C 
BRANCH  23  24
ATOM     24  N   UNL     1      34.968 -15.988 -24.280  0.00  0.00    +0.390 N 
ATOM     25  C   UNL     1      33.697 -13.495 -23.402  0.00  0.00    -0.026 C 
ATOM     26  C   UNL     1      33.777 -13.902 -24.878  0.00  0.00    -0.025 C 
ATOM     27  C   UNL     1      34.835 -14.158 -22.620  0.00  0.00    -0.025 C 
ATOM     28  C   UNL     1      33.839 -15.423 -25.032  0.00  0.00    -0.077 C 
ATOM     29  C   UNL     1      34.862 -15.670 -22.849  0.00  0.00    -0.077 C 
ATOM     30  H   UNL     1      35.825 -15.563 -24.633  0.00  0.00    -0.079 HD
BRANCH  25  31
ATOM     31  C   UNL     1      33.736 -11.977 -23.249  0.00  0.00    -0.086 C 
BRANCH  31  32
ATOM     32  N   UNL     1      34.624 -11.379 -24.235  0.00  0.00    +0.380 N 
ATOM     33  H   UNL     1      35.318 -10.802 -23.761  0.00  0.00    -0.089 HD
ATOM     34  H   UNL     1      34.080 -10.799 -24.874  0.00  0.00    -0.089 HD
ATOM     35  H   UNL     1      35.094 -12.115 -24.761  0.00  0.00    -0.089 HD
ENDBRANCH  31  32
ENDBRANCH  25  31
ENDBRANCH  23  24
ENDBRANCH   2  23
TORSDOF 5
ENDMDL
MODEL 3
REMARK VINA RESULT:     -11.4      3.272     10.790
REMARK  Name = 10156987
REMARK  5 active torsions:
REMARK  status: ('A' for Active; 'I' for Inactive)
REMARK    1  A    between atoms: C_2  and  C_23
REMARK    2  A    between atoms: C_9  and  C_13
REMARK    3  A    between atoms: C_23  and  N_24
REMARK    4  A    between atoms: C_25  and  C_31
REMARK    5  A    between atoms: C_31  and  N_32
REMARK                            x       y       z     vdW  Elec       q    Type
REMARK                         _______ _______ _______ _____ _____    ______ ____
ROOT
ATOM      1  N   UNL     1      34.211 -14.481 -23.227  0.00  0.00    -0.312 N 
ATOM      2  C   UNL     1      36.055 -17.937 -21.972  0.00  0.00    -0.043 C 
ATOM      3  C   UNL     1      35.642 -16.938 -21.089  0.00  0.00    -0.005 C 
ATOM      4  C   UNL     1      35.862 -17.816 -23.342  0.00  0.00    -0.005 C 
ATOM      5  C   UNL     1      35.017 -15.786 -21.607  0.00  0.00    +0.014 C 
ATOM      6  C   UNL     1      34.834 -15.686 -22.988  0.00  0.00    +0.048 C 
ATOM      7  C   UNL     1      35.246 -16.683 -23.879  0.00  0.00    +0.014 C 
ATOM      8  C   UNL     1      34.483 -14.602 -21.028  0.00  0.00    +0.016 C 
ATOM      9  C   UNL     1      33.995 -13.819 -22.049  0.00  0.00    +0.053 C 
ATOM     10  H   UNL     1      33.958 -14.145 -24.117  0.00  0.00    +0.152 HD
ENDROOT
BRANCH   9  13
ATOM     11  O   UNL     1      31.847 -13.056 -20.326  0.00  0.00    -0.270 OA
ATOM     12  N   UNL     1      31.681 -10.964 -21.247  0.00  0.00    -0.280 N 
ATOM     13  C   UNL     1      33.354 -12.542 -22.099  0.00  0.00    +0.067 C 
ATOM     14  C   UNL     1      33.761 -11.628 -22.997  0.00  0.00    +0.007 C 
ATOM     15  C   UNL     1      32.238 -12.224 -21.145  0.00  0.00    +0.251 C 
ATOM     16  C   UNL     1      33.134 -10.310 -23.070  0.00  0.00    +0.014 C 
ATOM     17  C   UNL     1      32.099 -10.002 -22.182  0.00  0.00    +0.051 C 
ATOM     18  C   UNL     1      33.547  -9.353 -24.001  0.00  0.00    +0.001 C 
ATOM     19  C   UNL     1      31.477  -8.752 -22.219  0.00  0.00    +0.015 C 
ATOM     20  C   UNL     1      32.927  -8.102 -24.039  0.00  0.00    +0.000 C 
ATOM     21  C   UNL     1      31.894  -7.803 -23.151  0.00  0.00    +0.001 C 
ATOM     22  H   UNL     1      30.951 -10.726 -20.630  0.00  0.00    +0.155 HD
ENDBRANCH   9  13
BRANCH   2  23
ATOM     23  C   UNL     1      36.722 -19.165 -21.426  0.00  0.00    -0.050 C 
BRANCH  23  24
ATOM     24  N   UNL     1      35.934 -19.790 -20.365  0.00  0.00    +0.390 N 
ATOM     25  C   UNL     1      34.474 -21.993 -19.093  0.00  0.00    -0.026 C 
ATOM     26  C   UNL     1      33.762 -20.813 -19.763  0.00  0.00    -0.025 C 
ATOM     27  C   UNL     1      35.873 -21.563 -18.639  0.00  0.00    -0.025 C 
ATOM     28  C   UNL     1      34.620 -20.205 -20.875  0.00  0.00    -0.077 C 
ATOM     29  C   UNL     1      36.661 -20.930 -19.788  0.00  0.00    -0.077 C 
ATOM     30  H   UNL     1      35.782 -19.107 -19.623  0.00  0.00    -0.079 HD
BRANCH  25  31
ATOM     31  C   UNL     1      33.658 -22.532 -17.921  0.00  0.00    -0.086 C 
BRANCH  31  32
ATOM     32  N   UNL     1      32.286 -22.051 -17.978  0.00  0.00    +0.380 N 
ATOM     33  H   UNL     1      32.284 -21.032 -17.981  0.00  0.00    -0.089 HD
ATOM     34  H   UNL     1      31.773 -22.390 -17.164  0.00  0.00    -0.089 HD
ATOM     35  H   UNL     1      31.841 -22.395 -18.829  0.00  0.00    -0.089 HD
ENDBRANCH  31  32
ENDBRANCH  25  31
ENDBRANCH  23  24
ENDBRANCH   2  23
TORSDOF 5
ENDMDL
MODEL 4
REMARK VINA RESULT:     -11.4      2.140      3.301
REMARK  Name = 10156987
REMARK  5 active torsions:
REMARK  status: ('A' for Active; 'I' for Inactive)
REMARK    1  A    between atoms: C_2  and  C_23
REMARK    2  A    between atoms: C_9  and  C_13
REMARK    3  A    between atoms: C_23  and  N_24
REMARK    4  A    between atoms: C_25  and  C_31
REMARK    5  A    between atoms: C_31  and  N_32
REMARK                            x       y       z     vdW  Elec       q    Type
REMARK                         _______ _______ _______ _____ _____    ______ ____
ROOT
ATOM      1  N   UNL     1      34.230 -21.614 -18.296  0.00  0.00    -0.312 N 
ATOM      2  C   UNL     1      35.258 -19.555 -21.706  0.00  0.00    -0.043 C 
ATOM      3  C   UNL     1      36.205 -20.063 -20.816  0.00  0.00    -0.005 C 
ATOM      4  C   UNL     1      33.896 -19.721 -21.485  0.00  0.00    -0.005 C 
ATOM      5  C   UNL     1      35.763 -20.756 -19.672  0.00  0.00    +0.014 C 
ATOM      6  C   UNL     1      34.390 -20.910 -19.470  0.00  0.00    +0.048 C 
ATOM      7  C   UNL     1      33.434 -20.404 -20.357  0.00  0.00    +0.014 C 
ATOM      8  C   UNL     1      36.419 -21.390 -18.581  0.00  0.00    +0.016 C 
ATOM      9  C   UNL     1      35.451 -21.908 -17.752  0.00  0.00    +0.053 C 
ATOM     10  H   UNL     1      33.363 -21.868 -17.905  0.00  0.00    +0.152 HD
ENDROOT
BRANCH   9  13
ATOM     11  O   UNL     1      33.250 -23.434 -16.756  0.00  0.00    -0.270 OA
ATOM     12  N   UNL     1      34.399 -24.113 -14.892  0.00  0.00    -0.280 N 
ATOM     13  C   UNL     1      35.485 -22.638 -16.524  0.00  0.00    +0.067 C 
ATOM     14  C   UNL     1      36.599 -22.624 -15.771  0.00  0.00    +0.007 C 
ATOM     15  C   UNL     1      34.281 -23.422 -16.084  0.00  0.00    +0.251 C 
ATOM     16  C   UNL     1      36.670 -23.367 -14.515  0.00  0.00    +0.014 C 
ATOM     17  C   UNL     1      35.558 -24.105 -14.099  0.00  0.00    +0.051 C 
ATOM     18  C   UNL     1      37.822 -23.358 -13.724  0.00  0.00    +0.001 C 
ATOM     19  C   UNL     1      35.589 -24.830 -12.905  0.00  0.00    +0.015 C 
ATOM     20  C   UNL     1      37.856 -24.083 -12.530  0.00  0.00    +0.000 C 
ATOM     21  C   UNL     1      36.742 -24.816 -12.122  0.00  0.00    +0.001 C 
ATOM     22  H   UNL     1      33.627 -24.640 -14.583  0.00  0.00    +0.155 HD
ENDBRANCH   9  13
BRANCH   2  23
ATOM     23  C   UNL     1      35.722 -18.814 -22.925  0.00  0.00    -0.050 C 
BRANCH  23  24
ATOM     24  N   UNL     1      35.010 -17.549 -23.102  0.00  0.00    +0.390 N 
ATOM     25  C   UNL     1      34.759 -14.734 -23.887  0.00  0.00    -0.026 C 
ATOM     26  C   UNL     1      34.861 -15.174 -22.422  0.00  0.00    -0.025 C 
ATOM     27  C   UNL     1      34.188 -15.878 -24.731  0.00  0.00    -0.025 C 
ATOM     28  C   UNL     1      35.627 -16.492 -22.289  0.00  0.00    -0.077 C 
ATOM     29  C   UNL     1      34.976 -17.173 -24.522  0.00  0.00    -0.077 C 
ATOM     30  H   UNL     1      34.048 -17.668 -22.786  0.00  0.00    -0.079 HD
BRANCH  25  31
ATOM     31  C   UNL     1      33.909 -13.474 -24.023  0.00  0.00    -0.086 C 
BRANCH  31  32
ATOM     32  N   UNL     1      34.592 -12.323 -23.453  0.00  0.00    +0.380 N 
ATOM     33  H   UNL     1      34.019 -11.921 -22.711  0.00  0.00    -0.089 HD
ATOM     34  H   UNL     1      34.745 -11.624 -24.180  0.00  0.00    -0.089 HD
ATOM     35  H   UNL     1      35.490 -12.616 -23.068  0.00  0.00    -0.089 HD
ENDBRANCH  31  32
ENDBRANCH  25  31
ENDBRANCH  23  24
ENDBRANCH   2  23
TORSDOF 5
ENDMDL
MODEL 5
REMARK VINA RESULT:     -11.2      6.688     10.857
REMARK  Name = 10156987
REMARK  5 active torsions:
REMARK  status: ('A' for Active; 'I' for Inactive)
REMARK    1  A    between atoms: C_2  and  C_23
REMARK    2  A    between atoms: C_9  and  C_13
REMARK    3  A    between atoms: C_23  and  N_24
REMARK    4  A    between atoms: C_25  and  C_31
REMARK    5  A    between atoms: C_31  and  N_32
REMARK                            x       y       z     vdW  Elec       q    Type
REMARK                         _______ _______ _______ _____ _____    ______ ____
ROOT
ATOM      1  N   UNL     1      32.804 -12.629 -22.102  0.00  0.00    -0.312 N 
ATOM      2  C   UNL     1      32.251  -8.558 -22.291  0.00  0.00    -0.043 C 
ATOM      3  C   UNL     1      33.067  -9.251 -23.185  0.00  0.00    -0.005 C 
ATOM      4  C   UNL     1      31.569  -9.216 -21.275  0.00  0.00    -0.005 C 
ATOM      5  C   UNL     1      33.199 -10.647 -23.046  0.00  0.00    +0.014 C 
ATOM      6  C   UNL     1      32.506 -11.287 -22.016  0.00  0.00    +0.048 C 
ATOM      7  C   UNL     1      31.685 -10.599 -21.117  0.00  0.00    +0.014 C 
ATOM      8  C   UNL     1      33.922 -11.650 -23.749  0.00  0.00    +0.016 C 
ATOM      9  C   UNL     1      33.659 -12.858 -23.145  0.00  0.00    +0.053 C 
ATOM     10  H   UNL     1      32.453 -13.324 -21.498  0.00  0.00    +0.152 HD
ENDROOT
BRANCH   9  13
ATOM     11  O   UNL     1      33.370 -14.177 -25.663  0.00  0.00    -0.270 OA
ATOM     12  N   UNL     1      34.350 -16.107 -24.910  0.00  0.00    -0.280 N 
ATOM     13  C   UNL     1      34.083 -14.201 -23.390  0.00  0.00    +0.067 C 
ATOM     14  C   UNL     1      34.651 -14.911 -22.399  0.00  0.00    +0.007 C 
ATOM     15  C   UNL     1      33.900 -14.810 -24.751  0.00  0.00    +0.251 C 
ATOM     16  C   UNL     1      35.104 -16.283 -22.617  0.00  0.00    +0.014 C 
ATOM     17  C   UNL     1      34.944 -16.857 -23.882  0.00  0.00    +0.051 C 
ATOM     18  C   UNL     1      35.694 -17.030 -21.594  0.00  0.00    +0.001 C 
ATOM     19  C   UNL     1      35.367 -18.165 -24.129  0.00  0.00    +0.015 C 
ATOM     20  C   UNL     1      36.118 -18.339 -21.839  0.00  0.00    +0.000 C 
ATOM     21  C   UNL     1      35.954 -18.904 -23.103  0.00  0.00    +0.001 C 
ATOM     22  H   UNL     1      34.247 -16.530 -25.794  0.00  0.00    +0.155 HD
ENDBRANCH   9  13
BRANCH   2  23
ATOM     23  C   UNL     1      32.107  -7.071 -22.434  0.00  0.00    -0.050 C 
BRANCH  23  24
ATOM     24  N   UNL     1      32.784  -6.567 -23.628  0.00  0.00    +0.390 N 
ATOM     25  C   UNL     1      34.147  -4.536 -25.246  0.00  0.00    -0.026 C 
ATOM     26  C   UNL     1      32.694  -4.951 -25.501  0.00  0.00    -0.025 C 
ATOM     27  C   UNL     1      34.899  -5.680 -24.557  0.00  0.00    -0.025 C 
ATOM     28  C   UNL     1      32.027  -5.455 -24.219  0.00  0.00    -0.077 C 
ATOM     29  C   UNL     1      34.159  -6.160 -23.307  0.00  0.00    -0.077 C 
ATOM     30  H   UNL     1      32.831  -7.317 -24.318  0.00  0.00    -0.079 HD
BRANCH  25  31
ATOM     31  C   UNL     1      34.837  -4.130 -26.545  0.00  0.00    -0.086 C 
BRANCH  31  32
ATOM     32  N   UNL     1      35.765  -5.160 -26.984  0.00  0.00    +0.380 N 
ATOM     33  H   UNL     1      36.454  -5.332 -26.252  0.00  0.00    -0.089 HD
ATOM     34  H   UNL     1      36.241  -4.851 -27.832  0.00  0.00    -0.089 HD
ATOM     35  H   UNL     1      35.252  -6.021 -27.177  0.00  0.00    -0.089 HD
ENDBRANCH  31  32
ENDBRANCH  25  31
ENDBRANCH  23  24
ENDBRANCH   2  23
TORSDOF 5
ENDMDL
MODEL 6
REMARK VINA RESULT:     -11.2      3.727     11.224
REMARK  Name = 10156987
REMARK  5 active torsions:
REMARK  status: ('A' for Active; 'I' for Inactive)
REMARK    1  A    between atoms: C_2  and  C_23
REMARK    2  A    between atoms: C_9  and  C_13
REMARK    3  A    between atoms: C_23  and  N_24
REMARK    4  A    between atoms: C_25  and  C_31
REMARK    5  A    between atoms: C_31  and  N_32
REMARK                            x       y       z     vdW  Elec       q    Type
REMARK                         _______ _______ _______ _____ _____    ______ ____
ROOT
ATOM      1  N   UNL     1      34.090 -14.167 -24.127  0.00  0.00    -0.312 N 
ATOM      2  C   UNL     1      35.669 -17.659 -22.633  0.00  0.00    -0.043 C 
ATOM      3  C   UNL     1      35.602 -16.481 -21.888  0.00  0.00    -0.005 C 
ATOM      4  C   UNL     1      35.197 -17.716 -23.939  0.00  0.00    -0.005 C 
ATOM      5  C   UNL     1      35.044 -15.330 -22.480  0.00  0.00    +0.014 C 
ATOM      6  C   UNL     1      34.578 -15.411 -23.794  0.00  0.00    +0.048 C 
ATOM      7  C   UNL     1      34.641 -16.588 -24.548  0.00  0.00    +0.014 C 
ATOM      8  C   UNL     1      34.819 -13.997 -22.039  0.00  0.00    +0.016 C 
ATOM      9  C   UNL     1      34.232 -13.306 -23.073  0.00  0.00    +0.053 C 
ATOM     10  H   UNL     1      33.696 -13.931 -24.999  0.00  0.00    +0.152 HD
ENDROOT
BRANCH   9  13
ATOM     11  O   UNL     1      34.659 -11.765 -25.440  0.00  0.00    -0.270 OA
ATOM     12  N   UNL     1      33.558  -9.936 -24.604  0.00  0.00    -0.280 N 
ATOM     13  C   UNL     1      33.779 -11.959 -23.234  0.00  0.00    +0.067 C 
ATOM     14  C   UNL     1      33.115 -11.356 -22.233  0.00  0.00    +0.007 C 
ATOM     15  C   UNL     1      34.041 -11.229 -24.521  0.00  0.00    +0.251 C 
ATOM     16  C   UNL     1      32.631  -9.984 -22.369  0.00  0.00    +0.014 C 
ATOM     17  C   UNL     1      32.863  -9.297 -23.564  0.00  0.00    +0.051 C 
ATOM     18  C   UNL     1      31.940  -9.346 -21.334  0.00  0.00    +0.001 C 
ATOM     19  C   UNL     1      32.414  -7.985 -23.732  0.00  0.00    +0.015 C 
ATOM     20  C   UNL     1      31.489  -8.034 -21.500  0.00  0.00    +0.000 C 
ATOM     21  C   UNL     1      31.726  -7.355 -22.695  0.00  0.00    +0.001 C 
ATOM     22  H   UNL     1      33.711  -9.436 -25.438  0.00  0.00    +0.155 HD
ENDBRANCH   9  13
BRANCH   2  23
ATOM     23  C   UNL     1      36.263 -18.887 -22.009  0.00  0.00    -0.050 C 
BRANCH  23  24
ATOM     24  N   UNL     1      35.433 -19.403 -20.920  0.00  0.00    +0.390 N 
ATOM     25  C   UNL     1      33.809 -21.427 -19.555  0.00  0.00    -0.026 C 
ATOM     26  C   UNL     1      33.190 -20.222 -20.271  0.00  0.00    -0.025 C 
ATOM     27  C   UNL     1      35.241 -21.094 -19.124  0.00  0.00    -0.025 C 
ATOM     28  C   UNL     1      34.087 -19.730 -21.409  0.00  0.00    -0.077 C 
ATOM     29  C   UNL     1      36.070 -20.574 -20.300  0.00  0.00    -0.077 C 
ATOM     30  H   UNL     1      35.342 -18.680 -20.207  0.00  0.00    -0.079 HD
BRANCH  25  31
ATOM     31  C   UNL     1      32.960 -21.851 -18.359  0.00  0.00    -0.086 C 
BRANCH  31  32
ATOM     32  N   UNL     1      33.385 -23.147 -17.854  0.00  0.00    +0.380 N 
ATOM     33  H   UNL     1      34.393 -23.138 -17.702  0.00  0.00    -0.089 HD
ATOM     34  H   UNL     1      33.149 -23.870 -18.533  0.00  0.00    -0.089 HD
ATOM     35  H   UNL     1      32.910 -23.341 -16.972  0.00  0.00    -0.089 HD
ENDBRANCH  31  32
ENDBRANCH  25  31
ENDBRANCH  23  24
ENDBRANCH   2  23
TORSDOF 5
ENDMDL
MODEL 7
REMARK VINA RESULT:     -11.1      6.433     10.933
REMARK  Name = 10156987
REMARK  5 active torsions:
REMARK  status: ('A' for Active; 'I' for Inactive)
REMARK    1  A    between atoms: C_2  and  C_23
REMARK    2  A    between atoms: C_9  and  C_13
REMARK    3  A    between atoms: C_23  and  N_24
REMARK    4  A    between atoms: C_25  and  C_31
REMARK    5  A    between atoms: C_31  and  N_32
REMARK                            x       y       z     vdW  Elec       q    Type
REMARK                         _______ _______ _______ _____ _____    ______ ____
ROOT
ATOM      1  N   UNL     1      34.566 -12.188 -23.848  0.00  0.00    -0.312 N 
ATOM      2  C   UNL     1      32.635  -8.755 -22.663  0.00  0.00    -0.043 C 
ATOM      3  C   UNL     1      32.266 -10.023 -22.212  0.00  0.00    -0.005 C 
ATOM      4  C   UNL     1      33.691  -8.582 -23.549  0.00  0.00    -0.005 C 
ATOM      5  C   UNL     1      32.984 -11.146 -22.671  0.00  0.00    +0.014 C 
ATOM      6  C   UNL     1      34.041 -10.948 -23.562  0.00  0.00    +0.048 C 
ATOM      7  C   UNL     1      34.417  -9.680 -24.018  0.00  0.00    +0.014 C 
ATOM      8  C   UNL     1      32.894 -12.545 -22.434  0.00  0.00    +0.016 C 
ATOM      9  C   UNL     1      33.879 -13.160 -23.172  0.00  0.00    +0.053 C 
ATOM     10  H   UNL     1      35.325 -12.353 -24.453  0.00  0.00    +0.152 HD
ENDROOT
BRANCH   9  13
ATOM     11  O   UNL     1      33.653 -14.573 -25.645  0.00  0.00    -0.270 OA
ATOM     12  N   UNL     1      34.564 -16.490 -24.780  0.00  0.00    -0.280 N 
ATOM     13  C   UNL     1      34.283 -14.520 -23.347  0.00  0.00    +0.067 C 
ATOM     14  C   UNL     1      34.800 -15.200 -22.309  0.00  0.00    +0.007 C 
ATOM     15  C   UNL     1      34.136 -15.179 -24.689  0.00  0.00    +0.251 C 
ATOM     16  C   UNL     1      35.231 -16.588 -22.456  0.00  0.00    +0.014 C 
ATOM     17  C   UNL     1      35.105 -17.209 -23.702  0.00  0.00    +0.051 C 
ATOM     18  C   UNL     1      35.768 -17.306 -21.383  0.00  0.00    +0.001 C 
ATOM     19  C   UNL     1      35.509 -18.535 -23.882  0.00  0.00    +0.015 C 
ATOM     20  C   UNL     1      36.173 -18.631 -21.561  0.00  0.00    +0.000 C 
ATOM     21  C   UNL     1      36.043 -19.243 -22.807  0.00  0.00    +0.001 C 
ATOM     22  H   UNL     1      34.485 -16.945 -25.650  0.00  0.00    +0.155 HD
ENDBRANCH   9  13
BRANCH   2  23
ATOM     23  C   UNL     1      31.873  -7.556 -22.179  0.00  0.00    -0.050 C 
BRANCH  23  24
ATOM     24  N   UNL     1      32.250  -6.341 -22.900  0.00  0.00    +0.390 N 
ATOM     25  C   UNL     1      31.742  -3.753 -24.183  0.00  0.00    -0.026 C 
ATOM     26  C   UNL     1      31.985  -5.035 -24.985  0.00  0.00    -0.025 C 
ATOM     27  C   UNL     1      32.401  -3.873 -22.805  0.00  0.00    -0.025 C 
ATOM     28  C   UNL     1      31.561  -6.275 -24.196  0.00  0.00    -0.077 C 
ATOM     29  C   UNL     1      31.963  -5.151 -22.086  0.00  0.00    -0.077 C 
ATOM     30  H   UNL     1      33.254  -6.364 -23.079  0.00  0.00    -0.079 HD
BRANCH  25  31
ATOM     31  C   UNL     1      32.259  -2.528 -24.933  0.00  0.00    -0.086 C 
BRANCH  31  32
ATOM     32  N   UNL     1      32.383  -2.806 -26.356  0.00  0.00    +0.380 N 
ATOM     33  H   UNL     1      33.349  -2.658 -26.648  0.00  0.00    -0.089 HD
ATOM     34  H   UNL     1      31.771  -2.180 -26.879  0.00  0.00    -0.089 HD
ATOM     35  H   UNL     1      32.117  -3.774 -26.538  0.00  0.00    -0.089 HD
ENDBRANCH  31  32
ENDBRANCH  25  31
ENDBRANCH  23  24
ENDBRANCH   2  23
TORSDOF 5
ENDMDL
MODEL 8
REMARK VINA RESULT:     -11.1      4.763     12.509
REMARK  Name = 10156987
REMARK  5 active torsions:
REMARK  status: ('A' for Active; 'I' for Inactive)
REMARK    1  A    between atoms: C_2  and  C_23
REMARK    2  A    between atoms: C_9  and  C_13
REMARK    3  A    between atoms: C_23  and  N_24
REMARK    4  A    between atoms: C_25  and  C_31
REMARK    5  A    between atoms: C_31  and  N_32
REMARK                            x       y       z     vdW  Elec       q    Type
REMARK                         _______ _______ _______ _____ _____    ______ ____
ROOT
ATOM      1  N   UNL     1      33.658 -11.806 -21.743  0.00  0.00    -0.312 N 
ATOM      2  C   UNL     1      35.047 -15.584 -22.587  0.00  0.00    -0.043 C 
ATOM      3  C   UNL     1      34.940 -14.585 -23.555  0.00  0.00    -0.005 C 
ATOM      4  C   UNL     1      34.686 -15.352 -21.265  0.00  0.00    -0.005 C 
ATOM      5  C   UNL     1      34.453 -13.318 -23.177  0.00  0.00    +0.014 C 
ATOM      6  C   UNL     1      34.095 -13.108 -21.843  0.00  0.00    +0.048 C 
ATOM      7  C   UNL     1      34.200 -14.104 -20.867  0.00  0.00    +0.014 C 
ATOM      8  C   UNL     1      34.215 -12.099 -23.870  0.00  0.00    +0.016 C 
ATOM      9  C   UNL     1      33.726 -11.189 -22.962  0.00  0.00    +0.053 C 
ATOM     10  H   UNL     1      33.341 -11.381 -20.913  0.00  0.00    +0.152 HD
ENDROOT
BRANCH   9  13
ATOM     11  O   UNL     1      31.172 -10.252 -22.089  0.00  0.00    -0.270 OA
ATOM     12  N   UNL     1      31.627  -8.081 -22.668  0.00  0.00    -0.280 N 
ATOM     13  C   UNL     1      33.309  -9.824 -23.054  0.00  0.00    +0.067 C 
ATOM     14  C   UNL     1      34.141  -8.908 -23.577  0.00  0.00    +0.007 C 
ATOM     15  C   UNL     1      31.949  -9.421 -22.559  0.00  0.00    +0.251 C 
ATOM     16  C   UNL     1      33.750  -7.503 -23.677  0.00  0.00    +0.014 C 
ATOM     17  C   UNL     1      32.489  -7.116 -23.213  0.00  0.00    +0.051 C 
ATOM     18  C   UNL     1      34.606  -6.541 -24.221  0.00  0.00    +0.001 C 
ATOM     19  C   UNL     1      32.080  -5.782 -23.289  0.00  0.00    +0.015 C 
ATOM     20  C   UNL     1      34.199  -5.207 -24.297  0.00  0.00    +0.000 C 
ATOM     21  C   UNL     1      32.940  -4.829 -23.834  0.00  0.00    +0.001 C 
ATOM     22  H   UNL     1      30.744  -7.788 -22.346  0.00  0.00    +0.155 HD
ENDBRANCH   9  13
BRANCH   2  23
ATOM     23  C   UNL     1      35.563 -16.936 -22.984  0.00  0.00    -0.050 C 
BRANCH  23  24
ATOM     24  N   UNL     1      35.638 -17.850 -21.845  0.00  0.00    +0.390 N 
ATOM     25  C   UNL     1      36.081 -20.445 -20.552  0.00  0.00    -0.026 C 
ATOM     26  C   UNL     1      34.680 -19.867 -20.776  0.00  0.00    -0.025 C 
ATOM     27  C   UNL     1      37.106 -19.307 -20.487  0.00  0.00    -0.025 C 
ATOM     28  C   UNL     1      34.652 -18.931 -21.987  0.00  0.00    -0.077 C 
ATOM     29  C   UNL     1      36.998 -18.390 -21.707  0.00  0.00    -0.077 C 
ATOM     30  H   UNL     1      35.417 -17.333 -20.995  0.00  0.00    -0.079 HD
BRANCH  25  31
ATOM     31  C   UNL     1      36.127 -21.297 -19.286  0.00  0.00    -0.086 C 
BRANCH  31  32
ATOM     32  N   UNL     1      36.980 -20.686 -18.279  0.00  0.00    +0.380 N 
ATOM     33  H   UNL     1      36.433 -20.024 -17.728  0.00  0.00    -0.089 HD
ATOM     34  H   UNL     1      37.747 -20.194 -18.737  0.00  0.00    -0.089 HD
ATOM     35  H   UNL     1      37.357 -21.409 -17.667  0.00  0.00    -0.089 HD
ENDBRANCH  31  32
ENDBRANCH  25  31
ENDBRANCH  23  24
ENDBRANCH   2  23
TORSDOF 5
ENDMDL
MODEL 9
REMARK VINA RESULT:     -10.7      1.546      1.997
REMARK  Name = 10156987
REMARK  5 active torsions:
REMARK  status: ('A' for Active; 'I' for Inactive)
REMARK    1  A    between atoms: C_2  and  C_23
REMARK    2  A    between atoms: C_9  and  C_13
REMARK    3  A    between atoms: C_23  and  N_24
REMARK    4  A    between atoms: C_25  and  C_31
REMARK    5  A    between atoms: C_31  and  N_32
REMARK                            x       y       z     vdW  Elec       q    Type
REMARK                         _______ _______ _______ _____ _____    ______ ____
ROOT
ATOM      1  N   UNL     1      36.712 -20.605 -18.799  0.00  0.00    -0.312 N 
ATOM      2  C   UNL     1      35.817 -18.850 -22.410  0.00  0.00    -0.043 C 
ATOM      3  C   UNL     1      34.915 -19.663 -21.721  0.00  0.00    -0.005 C 
ATOM      4  C   UNL     1      37.084 -18.585 -21.904  0.00  0.00    -0.005 C 
ATOM      5  C   UNL     1      35.307 -20.223 -20.489  0.00  0.00    +0.014 C 
ATOM      6  C   UNL     1      36.585 -19.944 -20.000  0.00  0.00    +0.048 C 
ATOM      7  C   UNL     1      37.494 -19.130 -20.684  0.00  0.00    +0.014 C 
ATOM      8  C   UNL     1      34.673 -21.073 -19.540  0.00  0.00    +0.016 C 
ATOM      9  C   UNL     1      35.562 -21.290 -18.512  0.00  0.00    +0.053 C 
ATOM     10  H   UNL     1      37.514 -20.587 -18.228  0.00  0.00    +0.152 HD
ENDROOT
BRANCH   9  13
ATOM     11  O   UNL     1      37.861 -21.923 -16.938  0.00  0.00    -0.270 OA
ATOM     12  N   UNL     1      36.630 -23.037 -15.357  0.00  0.00    -0.280 N 
ATOM     13  C   UNL     1      35.507 -22.041 -17.297  0.00  0.00    +0.067 C 
ATOM     14  C   UNL     1      34.324 -22.490 -16.845  0.00  0.00    +0.007 C 
ATOM     15  C   UNL     1      36.769 -22.318 -16.529  0.00  0.00    +0.251 C 
ATOM     16  C   UNL     1      34.232 -23.253 -15.602  0.00  0.00    +0.014 C 
ATOM     17  C   UNL     1      35.399 -23.511 -14.876  0.00  0.00    +0.051 C 
ATOM     18  C   UNL     1      33.007 -23.727 -15.123  0.00  0.00    +0.001 C 
ATOM     19  C   UNL     1      35.350 -24.234 -13.682  0.00  0.00    +0.015 C 
ATOM     20  C   UNL     1      32.957 -24.451 -13.929  0.00  0.00    +0.000 C 
ATOM     21  C   UNL     1      34.125 -24.704 -13.211  0.00  0.00    +0.001 C 
ATOM     22  H   UNL     1      37.440 -23.228 -14.831  0.00  0.00    +0.155 HD
ENDBRANCH   9  13
BRANCH   2  23
ATOM     23  C   UNL     1      35.407 -18.251 -23.723  0.00  0.00    -0.050 C 
BRANCH  23  24
ATOM     24  N   UNL     1      34.785 -16.938 -23.556  0.00  0.00    +0.390 N 
ATOM     25  C   UNL     1      34.753 -14.006 -23.508  0.00  0.00    -0.026 C 
ATOM     26  C   UNL     1      34.744 -14.850 -22.229  0.00  0.00    -0.025 C 
ATOM     27  C   UNL     1      34.162 -14.816 -24.666  0.00  0.00    -0.025 C 
ATOM     28  C   UNL     1      35.419 -16.205 -22.451  0.00  0.00    -0.077 C 
ATOM     29  C   UNL     1      34.855 -16.173 -24.808  0.00  0.00    -0.077 C 
ATOM     30  H   UNL     1      33.801 -17.069 -23.323  0.00  0.00    -0.079 HD
BRANCH  25  31
ATOM     31  C   UNL     1      33.991 -12.698 -23.308  0.00  0.00    -0.086 C 
BRANCH  31  32
ATOM     32  N   UNL     1      34.007 -11.898 -24.522  0.00  0.00    +0.380 N 
ATOM     33  H   UNL     1      33.095 -11.461 -24.654  0.00  0.00    -0.089 HD
ATOM     34  H   UNL     1      34.216 -12.497 -25.322  0.00  0.00    -0.089 HD
ATOM     35  H   UNL     1      34.723 -11.174 -24.444  0.00  0.00    -0.089 HD
ENDBRANCH  31  32
ENDBRANCH  25  31
ENDBRANCH  23  24
ENDBRANCH   2  23
TORSDOF 5
ENDMDL
