MODEL 1
REMARK VINA RESULT:     -11.2      0.000      0.000
REMARK  Name = 445770
REMARK  5 active torsions:
REMARK  status: ('A' for Active; 'I' for Inactive)
REMARK    1  A    between atoms: N_2  and  C_17
REMARK    2  A    between atoms: C_3  and  C_5
REMARK    3  A    between atoms: C_6  and  S_11
REMARK    4  A    between atoms: S_11  and  N_14
REMARK    5  A    between atoms: C_17  and  C_23
REMARK                            x       y       z     vdW  Elec       q    Type
REMARK                         _______ _______ _______ _____ _____    ______ ____
ROOT
ATOM      1  O   UNL     1      37.469 -18.644 -21.684  0.00  0.00    -0.270 OA
ATOM      2  N   UNL     1      35.390 -17.721 -22.130  0.00  0.00    -0.297 N 
ATOM      3  C   UNL     1      36.236 -18.655 -21.521  0.00  0.00    +0.246 C 
ATOM      4  H   UNL     1      34.422 -17.787 -21.959  0.00  0.00    +0.150 HD
ENDROOT
BRANCH   3   5
ATOM      5  C   UNL     1      35.608 -19.676 -20.697  0.00  0.00    +0.053 C 
ATOM      6  C   UNL     1      34.405 -21.633 -19.115  0.00  0.00    +0.122 C 
ATOM      7  C   UNL     1      34.220 -19.809 -20.688  0.00  0.00    +0.006 C 
ATOM      8  C   UNL     1      36.396 -20.521 -19.914  0.00  0.00    +0.006 C 
ATOM      9  C   UNL     1      33.618 -20.787 -19.897  0.00  0.00    +0.020 C 
ATOM     10  C   UNL     1      35.793 -21.500 -19.124  0.00  0.00    +0.020 C 
BRANCH   6  11
ATOM     11  S   UNL     1      33.652 -22.859 -18.127  0.00  0.00    +0.057 S 
ATOM     12  O   UNL     1      33.799 -24.146 -18.792  0.00  0.00    -0.153 OA
ATOM     13  O   UNL     1      32.328 -22.391 -17.743  0.00  0.00    -0.153 OA
BRANCH  11  14
ATOM     14  N   UNL     1      34.665 -22.835 -16.750  0.00  0.00    -0.203 NA
ATOM     15  H   UNL     1      35.498 -22.282 -16.951  0.00  0.00    +0.144 HD
ATOM     16  H   UNL     1      34.939 -23.788 -16.513  0.00  0.00    +0.144 HD
ENDBRANCH  11  14
ENDBRANCH   6  11
ENDBRANCH   3   5
BRANCH   2  17
ATOM     17  C   UNL     1      35.859 -16.662 -22.996  0.00  0.00    +0.121 C 
BRANCH  17  23
ATOM     18  F   UNL     1      34.808 -15.362 -25.272  0.00  0.00    -0.202 F 
ATOM     19  F   UNL     1      35.143 -15.477 -20.537  0.00  0.00    -0.202 F 
ATOM     20  F   UNL     1      33.567 -13.258 -20.378  0.00  0.00    -0.199 F 
ATOM     21  F   UNL     1      33.230 -13.146 -25.101  0.00  0.00    -0.199 F 
ATOM     22  F   UNL     1      32.608 -12.090 -22.656  0.00  0.00    -0.199 F 
ATOM     23  C   UNL     1      34.988 -15.438 -22.906  0.00  0.00    +0.057 A 
ATOM     24  C   UNL     1      34.507 -14.853 -24.070  0.00  0.00    +0.170 A 
ATOM     25  C   UNL     1      34.678 -14.911 -21.660  0.00  0.00    +0.170 A 
ATOM     26  C   UNL     1      33.871 -13.777 -21.575  0.00  0.00    +0.197 A 
ATOM     27  C   UNL     1      33.701 -13.718 -23.985  0.00  0.00    +0.197 A 
ATOM     28  C   UNL     1      33.382 -13.179 -22.738  0.00  0.00    +0.199 A 
ENDBRANCH  17  23
ENDBRANCH   2  17
TORSDOF 5
ENDMDL
MODEL 2
REMARK VINA RESULT:     -11.2      0.031      2.338
REMARK  Name = 445770
REMARK  5 active torsions:
REMARK  status: ('A' for Active; 'I' for Inactive)
REMARK    1  A    between atoms: N_2  and  C_17
REMARK    2  A    between atoms: C_3  and  C_5
REMARK    3  A    between atoms: C_6  and  S_11
REMARK    4  A    between atoms: S_11  and  N_14
REMARK    5  A    between atoms: C_17  and  C_23
REMARK                            x       y       z     vdW  Elec       q    Type
REMARK                         _______ _______ _______ _____ _____    ______ ____
ROOT
ATOM      1  O   UNL     1      37.461 -18.648 -21.712  0.00  0.00    -0.270 OA
ATOM      2  N   UNL     1      35.385 -17.706 -22.129  0.00  0.00    -0.297 N 
ATOM      3  C   UNL     1      36.230 -18.650 -21.535  0.00  0.00    +0.246 C 
ATOM      4  H   UNL     1      34.418 -17.766 -21.948  0.00  0.00    +0.150 HD
ENDROOT
BRANCH   3   5
ATOM      5  C   UNL     1      35.604 -19.671 -20.710  0.00  0.00    +0.053 C 
ATOM      6  C   UNL     1      34.402 -21.628 -19.127  0.00  0.00    +0.122 C 
ATOM      7  C   UNL     1      36.391 -20.513 -19.925  0.00  0.00    +0.006 C 
ATOM      8  C   UNL     1      34.215 -19.808 -20.705  0.00  0.00    +0.006 C 
ATOM      9  C   UNL     1      35.790 -21.491 -19.133  0.00  0.00    +0.020 C 
ATOM     10  C   UNL     1      33.614 -20.786 -19.913  0.00  0.00    +0.020 C 
BRANCH   6  11
ATOM     11  S   UNL     1      33.649 -22.852 -18.136  0.00  0.00    +0.057 S 
ATOM     12  O   UNL     1      33.807 -24.142 -18.793  0.00  0.00    -0.153 OA
ATOM     13  O   UNL     1      32.320 -22.389 -17.763  0.00  0.00    -0.153 OA
BRANCH  11  14
ATOM     14  N   UNL     1      34.653 -22.814 -16.753  0.00  0.00    -0.203 NA
ATOM     15  H   UNL     1      35.518 -23.317 -16.948  0.00  0.00    +0.144 HD
ATOM     16  H   UNL     1      34.171 -23.256 -15.971  0.00  0.00    +0.144 HD
ENDBRANCH  11  14
ENDBRANCH   6  11
ENDBRANCH   3   5
BRANCH   2  17
ATOM     17  C   UNL     1      35.853 -16.646 -22.994  0.00  0.00    +0.121 C 
BRANCH  17  23
ATOM     18  F   UNL     1      35.146 -15.476 -20.523  0.00  0.00    -0.202 F 
ATOM     19  F   UNL     1      34.808 -15.322 -25.256  0.00  0.00    -0.202 F 
ATOM     20  F   UNL     1      33.242 -13.098 -25.065  0.00  0.00    -0.199 F 
ATOM     21  F   UNL     1      33.584 -13.249 -20.344  0.00  0.00    -0.199 F 
ATOM     22  F   UNL     1      32.629 -12.057 -22.613  0.00  0.00    -0.199 F 
ATOM     23  C   UNL     1      34.990 -15.417 -22.891  0.00  0.00    +0.057 A 
ATOM     24  C   UNL     1      34.684 -14.898 -21.640  0.00  0.00    +0.170 A 
ATOM     25  C   UNL     1      34.512 -14.820 -24.049  0.00  0.00    +0.170 A 
ATOM     26  C   UNL     1      33.712 -13.681 -23.955  0.00  0.00    +0.197 A 
ATOM     27  C   UNL     1      33.884 -13.760 -21.546  0.00  0.00    +0.197 A 
ATOM     28  C   UNL     1      33.397 -13.150 -22.703  0.00  0.00    +0.199 A 
ENDBRANCH  17  23
ENDBRANCH   2  17
TORSDOF 5
ENDMDL
MODEL 3
REMARK VINA RESULT:     -10.3      6.525     10.318
REMARK  Name = 445770
REMARK  5 active torsions:
REMARK  status: ('A' for Active; 'I' for Inactive)
REMARK    1  A    between atoms: N_2  and  C_17
REMARK    2  A    between atoms: C_3  and  C_5
REMARK    3  A    between atoms: C_6  and  S_11
REMARK    4  A    between atoms: S_11  and  N_14
REMARK    5  A    between atoms: C_17  and  C_23
REMARK                            x       y       z     vdW  Elec       q    Type
REMARK                         _______ _______ _______ _____ _____    ______ ____
ROOT
ATOM      1  O   UNL     1      33.617 -23.905 -18.395  0.00  0.00    -0.270 OA
ATOM      2  N   UNL     1      34.340 -22.688 -16.560  0.00  0.00    -0.297 N 
ATOM      3  C   UNL     1      34.147 -22.879 -17.932  0.00  0.00    +0.246 C 
ATOM      4  H   UNL     1      34.767 -21.852 -16.261  0.00  0.00    +0.150 HD
ENDROOT
BRANCH   3   5
ATOM      5  C   UNL     1      34.620 -21.828 -18.819  0.00  0.00    +0.053 C 
ATOM      6  C   UNL     1      35.528 -19.811 -20.518  0.00  0.00    +0.122 C 
ATOM      7  C   UNL     1      33.710 -21.100 -19.585  0.00  0.00    +0.006 C 
ATOM      8  C   UNL     1      35.984 -21.548 -18.902  0.00  0.00    +0.006 C 
ATOM      9  C   UNL     1      34.164 -20.092 -20.435  0.00  0.00    +0.020 C 
ATOM     10  C   UNL     1      36.438 -20.539 -19.752  0.00  0.00    +0.020 C 
BRANCH   6  11
ATOM     11  S   UNL     1      36.096 -18.548 -21.581  0.00  0.00    +0.057 S 
ATOM     12  O   UNL     1      35.611 -17.269 -21.082  0.00  0.00    -0.153 OA
ATOM     13  O   UNL     1      35.815 -18.942 -22.955  0.00  0.00    -0.153 OA
BRANCH  11  14
ATOM     14  N   UNL     1      37.782 -18.635 -21.318  0.00  0.00    -0.203 NA
ATOM     15  H   UNL     1      38.028 -19.571 -20.995  0.00  0.00    +0.144 HD
ATOM     16  H   UNL     1      38.052 -17.950 -20.612  0.00  0.00    +0.144 HD
ENDBRANCH  11  14
ENDBRANCH   6  11
ENDBRANCH   3   5
BRANCH   2  17
ATOM     17  C   UNL     1      33.947 -23.651 -15.555  0.00  0.00    +0.121 C 
BRANCH  17  23
ATOM     18  F   UNL     1      36.703 -23.447 -16.136  0.00  0.00    -0.202 F 
ATOM     19  F   UNL     1      33.361 -24.242 -12.859  0.00  0.00    -0.202 F 
ATOM     20  F   UNL     1      35.300 -24.590 -10.975  0.00  0.00    -0.199 F 
ATOM     21  F   UNL     1      38.634 -23.792 -14.242  0.00  0.00    -0.199 F 
ATOM     22  F   UNL     1      37.936 -24.364 -11.660  0.00  0.00    -0.199 F 
ATOM     23  C   UNL     1      35.016 -23.842 -14.513  0.00  0.00    +0.057 A 
ATOM     24  C   UNL     1      36.352 -23.725 -14.873  0.00  0.00    +0.170 A 
ATOM     25  C   UNL     1      34.651 -24.131 -13.205  0.00  0.00    +0.170 A 
ATOM     26  C   UNL     1      35.641 -24.308 -12.239  0.00  0.00    +0.197 A 
ATOM     27  C   UNL     1      37.341 -23.903 -13.907  0.00  0.00    +0.197 A 
ATOM     28  C   UNL     1      36.987 -24.194 -12.589  0.00  0.00    +0.199 A 
ENDBRANCH  17  23
ENDBRANCH   2  17
TORSDOF 5
ENDMDL
MODEL 4
REMARK VINA RESULT:     -10.3      6.508     10.457
REMARK  Name = 445770
REMARK  5 active torsions:
REMARK  status: ('A' for Active; 'I' for Inactive)
REMARK    1  A    between atoms: N_2  and  C_17
REMARK    2  A    between atoms: C_3  and  C_5
REMARK    3  A    between atoms: C_6  and  S_11
REMARK    4  A    between atoms: S_11  and  N_14
REMARK    5  A    between atoms: C_17  and  C_23
REMARK                            x       y       z     vdW  Elec       q    Type
REMARK                         _______ _______ _______ _____ _____    ______ ____
ROOT
ATOM      1  O   UNL     1      33.612 -23.920 -18.401  0.00  0.00    -0.270 OA
ATOM      2  N   UNL     1      34.326 -22.700 -16.564  0.00  0.00    -0.297 N 
ATOM      3  C   UNL     1      34.136 -22.892 -17.937  0.00  0.00    +0.246 C 
ATOM      4  H   UNL     1      34.749 -21.861 -16.265  0.00  0.00    +0.150 HD
ENDROOT
BRANCH   3   5
ATOM      5  C   UNL     1      34.607 -21.839 -18.823  0.00  0.00    +0.053 C 
ATOM      6  C   UNL     1      35.511 -19.819 -20.521  0.00  0.00    +0.122 C 
ATOM      7  C   UNL     1      33.693 -21.091 -19.565  0.00  0.00    +0.006 C 
ATOM      8  C   UNL     1      35.974 -21.578 -18.931  0.00  0.00    +0.006 C 
ATOM      9  C   UNL     1      34.145 -20.081 -20.414  0.00  0.00    +0.020 C 
ATOM     10  C   UNL     1      36.425 -20.567 -19.780  0.00  0.00    +0.020 C 
BRANCH   6  11
ATOM     11  S   UNL     1      36.077 -18.554 -21.584  0.00  0.00    +0.057 S 
ATOM     12  O   UNL     1      35.622 -17.273 -21.061  0.00  0.00    -0.153 OA
ATOM     13  O   UNL     1      35.761 -18.929 -22.954  0.00  0.00    -0.153 OA
BRANCH  11  14
ATOM     14  N   UNL     1      37.767 -18.670 -21.357  0.00  0.00    -0.203 NA
ATOM     15  H   UNL     1      38.218 -17.835 -21.727  0.00  0.00    +0.144 HD
ATOM     16  H   UNL     1      38.120 -19.493 -21.846  0.00  0.00    +0.144 HD
ENDBRANCH  11  14
ENDBRANCH   6  11
ENDBRANCH   3   5
BRANCH   2  17
ATOM     17  C   UNL     1      33.934 -23.664 -15.560  0.00  0.00    +0.121 C 
BRANCH  17  23
ATOM     18  F   UNL     1      33.352 -24.322 -12.876  0.00  0.00    -0.202 F 
ATOM     19  F   UNL     1      36.684 -23.385 -16.126  0.00  0.00    -0.202 F 
ATOM     20  F   UNL     1      38.617 -23.722 -14.232  0.00  0.00    -0.199 F 
ATOM     21  F   UNL     1      35.293 -24.661 -10.992  0.00  0.00    -0.199 F 
ATOM     22  F   UNL     1      37.927 -24.361 -11.666  0.00  0.00    -0.199 F 
ATOM     23  C   UNL     1      35.003 -23.851 -14.516  0.00  0.00    +0.057 A 
ATOM     24  C   UNL     1      34.640 -24.174 -13.216  0.00  0.00    +0.170 A 
ATOM     25  C   UNL     1      36.336 -23.697 -14.870  0.00  0.00    +0.170 A 
ATOM     26  C   UNL     1      37.327 -23.870 -13.904  0.00  0.00    +0.197 A 
ATOM     27  C   UNL     1      35.631 -24.347 -12.250  0.00  0.00    +0.197 A 
ATOM     28  C   UNL     1      36.975 -24.195 -12.593  0.00  0.00    +0.199 A 
ENDBRANCH  17  23
ENDBRANCH   2  17
TORSDOF 5
ENDMDL
MODEL 5
REMARK VINA RESULT:     -10.2      7.189     10.922
REMARK  Name = 445770
REMARK  5 active torsions:
REMARK  status: ('A' for Active; 'I' for Inactive)
REMARK    1  A    between atoms: N_2  and  C_17
REMARK    2  A    between atoms: C_3  and  C_5
REMARK    3  A    between atoms: C_6  and  S_11
REMARK    4  A    between atoms: S_11  and  N_14
REMARK    5  A    between atoms: C_17  and  C_23
REMARK                            x       y       z     vdW  Elec       q    Type
REMARK                         _______ _______ _______ _____ _____    ______ ____
ROOT
ATOM      1  O   UNL     1      33.617 -23.898 -17.472  0.00  0.00    -0.270 OA
ATOM      2  N   UNL     1      35.125 -22.927 -16.004  0.00  0.00    -0.297 N 
ATOM      3  C   UNL     1      34.456 -23.013 -17.231  0.00  0.00    +0.246 C 
ATOM      4  H   UNL     1      35.779 -22.201 -15.880  0.00  0.00    +0.150 HD
ENDROOT
BRANCH   3   5
ATOM      5  C   UNL     1      34.804 -22.028 -18.243  0.00  0.00    +0.053 C 
ATOM      6  C   UNL     1      35.471 -20.139 -20.184  0.00  0.00    +0.122 C 
ATOM      7  C   UNL     1      33.806 -21.462 -19.037  0.00  0.00    +0.006 C 
ATOM      8  C   UNL     1      36.135 -21.650 -18.419  0.00  0.00    +0.006 C 
ATOM      9  C   UNL     1      34.140 -20.518 -20.007  0.00  0.00    +0.020 C 
ATOM     10  C   UNL     1      36.468 -20.705 -19.390  0.00  0.00    +0.020 C 
BRANCH   6  11
ATOM     11  S   UNL     1      35.888 -18.956 -21.398  0.00  0.00    +0.057 S 
ATOM     12  O   UNL     1      35.393 -17.656 -20.967  0.00  0.00    -0.153 OA
ATOM     13  O   UNL     1      35.505 -19.480 -22.701  0.00  0.00    -0.153 OA
BRANCH  11  14
ATOM     14  N   UNL     1      37.593 -18.959 -21.283  0.00  0.00    -0.203 NA
ATOM     15  H   UNL     1      37.925 -18.009 -21.122  0.00  0.00    +0.144 HD
ATOM     16  H   UNL     1      37.992 -19.316 -22.151  0.00  0.00    +0.144 HD
ENDBRANCH  11  14
ENDBRANCH   6  11
ENDBRANCH   3   5
BRANCH   2  17
ATOM     17  C   UNL     1      34.907 -23.845 -14.909  0.00  0.00    +0.121 C 
BRANCH  17  23
ATOM     18  F   UNL     1      36.364 -22.665 -12.797  0.00  0.00    -0.202 F 
ATOM     19  F   UNL     1      36.075 -26.184 -15.971  0.00  0.00    -0.202 F 
ATOM     20  F   UNL     1      38.419 -27.213 -15.032  0.00  0.00    -0.199 F 
ATOM     21  F   UNL     1      38.704 -23.706 -11.864  0.00  0.00    -0.199 F 
ATOM     22  F   UNL     1      39.736 -25.980 -12.979  0.00  0.00    -0.199 F 
ATOM     23  C   UNL     1      36.200 -24.416 -14.391  0.00  0.00    +0.057 A 
ATOM     24  C   UNL     1      36.861 -23.780 -13.348  0.00  0.00    +0.170 A 
ATOM     25  C   UNL     1      36.714 -25.571 -14.964  0.00  0.00    +0.170 A 
ATOM     26  C   UNL     1      37.912 -26.101 -14.486  0.00  0.00    +0.197 A 
ATOM     27  C   UNL     1      38.059 -24.310 -12.871  0.00  0.00    +0.197 A 
ATOM     28  C   UNL     1      38.586 -25.470 -13.438  0.00  0.00    +0.199 A 
ENDBRANCH  17  23
ENDBRANCH   2  17
TORSDOF 5
ENDMDL
MODEL 6
REMARK VINA RESULT:     -10.0      6.497     10.479
REMARK  Name = 445770
REMARK  5 active torsions:
REMARK  status: ('A' for Active; 'I' for Inactive)
REMARK    1  A    between atoms: N_2  and  C_17
REMARK    2  A    between atoms: C_3  and  C_5
REMARK    3  A    between atoms: C_6  and  S_11
REMARK    4  A    between atoms: S_11  and  N_14
REMARK    5  A    between atoms: C_17  and  C_23
REMARK                            x       y       z     vdW  Elec       q    Type
REMARK                         _______ _______ _______ _____ _____    ______ ____
ROOT
ATOM      1  O   UNL     1      33.512 -23.806 -18.369  0.00  0.00    -0.270 OA
ATOM      2  N   UNL     1      34.869 -22.923 -16.709  0.00  0.00    -0.297 N 
ATOM      3  C   UNL     1      34.293 -22.918 -17.985  0.00  0.00    +0.246 C 
ATOM      4  H   UNL     1      35.480 -22.189 -16.470  0.00  0.00    +0.150 HD
ENDROOT
BRANCH   3   5
ATOM      5  C   UNL     1      34.669 -21.830 -18.874  0.00  0.00    +0.053 C 
ATOM      6  C   UNL     1      35.390 -19.743 -20.580  0.00  0.00    +0.122 C 
ATOM      7  C   UNL     1      36.013 -21.492 -19.034  0.00  0.00    +0.006 C 
ATOM      8  C   UNL     1      33.685 -21.124 -19.567  0.00  0.00    +0.006 C 
ATOM      9  C   UNL     1      36.373 -20.449 -19.886  0.00  0.00    +0.020 C 
ATOM     10  C   UNL     1      34.046 -20.081 -20.421  0.00  0.00    +0.020 C 
BRANCH   6  11
ATOM     11  S   UNL     1      35.841 -18.438 -21.648  0.00  0.00    +0.057 S 
ATOM     12  O   UNL     1      37.196 -18.677 -22.124  0.00  0.00    -0.153 OA
ATOM     13  O   UNL     1      35.515 -17.177 -20.997  0.00  0.00    -0.153 OA
BRANCH  11  14
ATOM     14  N   UNL     1      34.753 -18.686 -22.942  0.00  0.00    -0.203 NA
ATOM     15  H   UNL     1      34.885 -17.957 -23.642  0.00  0.00    +0.144 HD
ATOM     16  H   UNL     1      33.795 -18.653 -22.592  0.00  0.00    +0.144 HD
ENDBRANCH  11  14
ENDBRANCH   6  11
ENDBRANCH   3   5
BRANCH   2  17
ATOM     17  C   UNL     1      34.613 -23.948 -15.722  0.00  0.00    +0.121 C 
BRANCH  17  23
ATOM     18  F   UNL     1      36.001 -26.406 -15.643  0.00  0.00    -0.202 F 
ATOM     19  F   UNL     1      35.649 -21.965 -14.002  0.00  0.00    -0.202 F 
ATOM     20  F   UNL     1      37.811 -22.394 -12.398  0.00  0.00    -0.199 F 
ATOM     21  F   UNL     1      38.164 -26.822 -14.037  0.00  0.00    -0.199 F 
ATOM     22  F   UNL     1      39.072 -24.818 -12.412  0.00  0.00    -0.199 F 
ATOM     23  C   UNL     1      35.808 -24.182 -14.836  0.00  0.00    +0.057 A 
ATOM     24  C   UNL     1      36.440 -25.418 -14.851  0.00  0.00    +0.170 A 
ATOM     25  C   UNL     1      36.260 -23.158 -14.016  0.00  0.00    +0.170 A 
ATOM     26  C   UNL     1      37.367 -23.373 -13.195  0.00  0.00    +0.197 A 
ATOM     27  C   UNL     1      37.545 -25.634 -14.030  0.00  0.00    +0.197 A 
ATOM     28  C   UNL     1      38.010 -24.612 -13.201  0.00  0.00    +0.199 A 
ENDBRANCH  17  23
ENDBRANCH   2  17
TORSDOF 5
ENDMDL
MODEL 7
REMARK VINA RESULT:     -10.0      5.924      9.386
REMARK  Name = 445770
REMARK  5 active torsions:
REMARK  status: ('A' for Active; 'I' for Inactive)
REMARK    1  A    between atoms: N_2  and  C_17
REMARK    2  A    between atoms: C_3  and  C_5
REMARK    3  A    between atoms: C_6  and  S_11
REMARK    4  A    between atoms: S_11  and  N_14
REMARK    5  A    between atoms: C_17  and  C_23
REMARK                            x       y       z     vdW  Elec       q    Type
REMARK                         _______ _______ _______ _____ _____    ______ ____
ROOT
ATOM      1  O   UNL     1      36.467 -22.377 -17.063  0.00  0.00    -0.270 OA
ATOM      2  N   UNL     1      34.167 -22.555 -17.288  0.00  0.00    -0.297 N 
ATOM      3  C   UNL     1      35.428 -22.098 -17.687  0.00  0.00    +0.246 C 
ATOM      4  H   UNL     1      33.384 -22.295 -17.828  0.00  0.00    +0.150 HD
ENDROOT
BRANCH   3   5
ATOM      5  C   UNL     1      35.479 -21.245 -18.864  0.00  0.00    +0.053 C 
ATOM      6  C   UNL     1      35.577 -19.609 -21.121  0.00  0.00    +0.122 C 
ATOM      7  C   UNL     1      36.703 -20.748 -19.312  0.00  0.00    +0.006 C 
ATOM      8  C   UNL     1      34.304 -20.923 -19.543  0.00  0.00    +0.006 C 
ATOM      9  C   UNL     1      36.752 -19.930 -20.441  0.00  0.00    +0.020 C 
ATOM     10  C   UNL     1      34.353 -20.106 -20.673  0.00  0.00    +0.020 C 
BRANCH   6  11
ATOM     11  S   UNL     1      35.639 -18.586 -22.535  0.00  0.00    +0.057 S 
ATOM     12  O   UNL     1      35.036 -17.303 -22.204  0.00  0.00    -0.153 OA
ATOM     13  O   UNL     1      35.143 -19.346 -23.674  0.00  0.00    -0.153 OA
BRANCH  11  14
ATOM     14  N   UNL     1      37.325 -18.372 -22.708  0.00  0.00    -0.203 NA
ATOM     15  H   UNL     1      37.531 -17.381 -22.829  0.00  0.00    +0.144 HD
ATOM     16  H   UNL     1      37.651 -18.889 -23.525  0.00  0.00    +0.144 HD
ENDBRANCH  11  14
ENDBRANCH   6  11
ENDBRANCH   3   5
BRANCH   2  17
ATOM     17  C   UNL     1      33.949 -23.390 -16.128  0.00  0.00    +0.121 C 
BRANCH  17  23
ATOM     18  F   UNL     1      31.948 -21.924 -17.479  0.00  0.00    -0.202 F 
ATOM     19  F   UNL     1      32.991 -25.014 -14.029  0.00  0.00    -0.202 F 
ATOM     20  F   UNL     1      30.350 -25.151 -13.363  0.00  0.00    -0.199 F 
ATOM     21  F   UNL     1      29.310 -22.072 -16.808  0.00  0.00    -0.199 F 
ATOM     22  F   UNL     1      28.507 -23.684 -14.749  0.00  0.00    -0.199 F 
ATOM     23  C   UNL     1      32.491 -23.468 -15.760  0.00  0.00    +0.057 A 
ATOM     24  C   UNL     1      31.564 -22.718 -16.470  0.00  0.00    +0.170 A 
ATOM     25  C   UNL     1      32.095 -24.290 -14.714  0.00  0.00    +0.170 A 
ATOM     26  C   UNL     1      30.744 -24.363 -14.372  0.00  0.00    +0.197 A 
ATOM     27  C   UNL     1      30.214 -22.791 -16.128  0.00  0.00    +0.197 A 
ATOM     28  C   UNL     1      29.804 -23.613 -15.078  0.00  0.00    +0.199 A 
ENDBRANCH  17  23
ENDBRANCH   2  17
TORSDOF 5
ENDMDL
MODEL 8
REMARK VINA RESULT:     -10.0      5.927      9.568
REMARK  Name = 445770
REMARK  5 active torsions:
REMARK  status: ('A' for Active; 'I' for Inactive)
REMARK    1  A    between atoms: N_2  and  C_17
REMARK    2  A    between atoms: C_3  and  C_5
REMARK    3  A    between atoms: C_6  and  S_11
REMARK    4  A    between atoms: S_11  and  N_14
REMARK    5  A    between atoms: C_17  and  C_23
REMARK                            x       y       z     vdW  Elec       q    Type
REMARK                         _______ _______ _______ _____ _____    ______ ____
ROOT
ATOM      1  O   UNL     1      36.461 -22.373 -17.051  0.00  0.00    -0.270 OA
ATOM      2  N   UNL     1      34.162 -22.562 -17.283  0.00  0.00    -0.297 N 
ATOM      3  C   UNL     1      35.423 -22.100 -17.678  0.00  0.00    +0.246 C 
ATOM      4  H   UNL     1      33.381 -22.307 -17.826  0.00  0.00    +0.150 HD
ENDROOT
BRANCH   3   5
ATOM      5  C   UNL     1      35.475 -21.249 -18.857  0.00  0.00    +0.053 C 
ATOM      6  C   UNL     1      35.574 -19.619 -21.118  0.00  0.00    +0.122 C 
ATOM      7  C   UNL     1      36.699 -20.753 -19.306  0.00  0.00    +0.006 C 
ATOM      8  C   UNL     1      34.300 -20.930 -19.539  0.00  0.00    +0.006 C 
ATOM      9  C   UNL     1      36.748 -19.938 -20.436  0.00  0.00    +0.020 C 
ATOM     10  C   UNL     1      34.350 -20.115 -20.670  0.00  0.00    +0.020 C 
BRANCH   6  11
ATOM     11  S   UNL     1      35.636 -18.599 -22.534  0.00  0.00    +0.057 S 
ATOM     12  O   UNL     1      35.030 -17.316 -22.208  0.00  0.00    -0.153 OA
ATOM     13  O   UNL     1      35.143 -19.362 -23.672  0.00  0.00    -0.153 OA
BRANCH  11  14
ATOM     14  N   UNL     1      37.322 -18.383 -22.706  0.00  0.00    -0.203 NA
ATOM     15  H   UNL     1      37.594 -18.577 -23.669  0.00  0.00    +0.144 HD
ATOM     16  H   UNL     1      37.812 -19.021 -22.079  0.00  0.00    +0.144 HD
ENDBRANCH  11  14
ENDBRANCH   6  11
ENDBRANCH   3   5
BRANCH   2  17
ATOM     17  C   UNL     1      33.944 -23.394 -16.121  0.00  0.00    +0.121 C 
BRANCH  17  23
ATOM     18  F   UNL     1      32.980 -25.018 -14.022  0.00  0.00    -0.202 F 
ATOM     19  F   UNL     1      31.950 -21.927 -17.475  0.00  0.00    -0.202 F 
ATOM     20  F   UNL     1      29.310 -22.071 -16.807  0.00  0.00    -0.199 F 
ATOM     21  F   UNL     1      30.338 -25.151 -13.361  0.00  0.00    -0.199 F 
ATOM     22  F   UNL     1      28.500 -23.680 -14.752  0.00  0.00    -0.199 F 
ATOM     23  C   UNL     1      32.486 -23.472 -15.753  0.00  0.00    +0.057 A 
ATOM     24  C   UNL     1      32.086 -24.293 -14.708  0.00  0.00    +0.170 A 
ATOM     25  C   UNL     1      31.562 -22.720 -16.466  0.00  0.00    +0.170 A 
ATOM     26  C   UNL     1      30.211 -22.790 -16.126  0.00  0.00    +0.197 A 
ATOM     27  C   UNL     1      30.736 -24.364 -14.369  0.00  0.00    +0.197 A 
ATOM     28  C   UNL     1      29.797 -23.612 -15.077  0.00  0.00    +0.199 A 
ENDBRANCH  17  23
ENDBRANCH   2  17
TORSDOF 5
ENDMDL
MODEL 9
REMARK VINA RESULT:      -9.9      4.205      6.288
REMARK  Name = 445770
REMARK  5 active torsions:
REMARK  status: ('A' for Active; 'I' for Inactive)
REMARK    1  A    between atoms: N_2  and  C_17
REMARK    2  A    between atoms: C_3  and  C_5
REMARK    3  A    between atoms: C_6  and  S_11
REMARK    4  A    between atoms: S_11  and  N_14
REMARK    5  A    between atoms: C_17  and  C_23
REMARK                            x       y       z     vdW  Elec       q    Type
REMARK                         _______ _______ _______ _____ _____    ______ ____
ROOT
ATOM      1  O   UNL     1      33.455 -13.168 -25.722  0.00  0.00    -0.270 OA
ATOM      2  N   UNL     1      34.024 -12.034 -23.782  0.00  0.00    -0.297 N 
ATOM      3  C   UNL     1      33.931 -13.185 -24.573  0.00  0.00    +0.246 C 
ATOM      4  H   UNL     1      34.412 -12.119 -22.880  0.00  0.00    +0.150 HD
ENDROOT
BRANCH   3   5
ATOM      5  C   UNL     1      34.397 -14.431 -23.984  0.00  0.00    +0.053 C 
ATOM      6  C   UNL     1      35.289 -16.820 -22.855  0.00  0.00    +0.122 C 
ATOM      7  C   UNL     1      34.718 -14.483 -22.628  0.00  0.00    +0.006 C 
ATOM      8  C   UNL     1      34.522 -15.572 -24.777  0.00  0.00    +0.006 C 
ATOM      9  C   UNL     1      35.165 -15.678 -22.064  0.00  0.00    +0.020 C 
ATOM     10  C   UNL     1      34.967 -16.767 -24.212  0.00  0.00    +0.020 C 
BRANCH   6  11
ATOM     11  S   UNL     1      35.847 -18.316 -22.149  0.00  0.00    +0.057 S 
ATOM     12  O   UNL     1      35.265 -19.425 -22.893  0.00  0.00    -0.153 OA
ATOM     13  O   UNL     1      35.665 -18.239 -20.706  0.00  0.00    -0.153 OA
BRANCH  11  14
ATOM     14  N   UNL     1      37.518 -18.238 -22.498  0.00  0.00    -0.203 NA
ATOM     15  H   UNL     1      38.005 -18.979 -21.995  0.00  0.00    +0.144 HD
ATOM     16  H   UNL     1      37.883 -17.331 -22.207  0.00  0.00    +0.144 HD
ENDBRANCH  11  14
ENDBRANCH   6  11
ENDBRANCH   3   5
BRANCH   2  17
ATOM     17  C   UNL     1      33.582 -10.728 -24.216  0.00  0.00    +0.121 C 
BRANCH  17  23
ATOM     18  F   UNL     1      34.449  -8.062 -23.872  0.00  0.00    -0.202 F 
ATOM     19  F   UNL     1      31.828 -11.655 -22.210  0.00  0.00    -0.202 F 
ATOM     20  F   UNL     1      31.040 -10.101 -20.112  0.00  0.00    -0.199 F 
ATOM     21  F   UNL     1      33.652  -6.517 -21.772  0.00  0.00    -0.199 F 
ATOM     22  F   UNL     1      31.948  -7.533 -19.890  0.00  0.00    -0.199 F 
ATOM     23  C   UNL     1      33.145  -9.871 -23.058  0.00  0.00    +0.057 A 
ATOM     24  C   UNL     1      33.613  -8.568 -22.955  0.00  0.00    +0.170 A 
ATOM     25  C   UNL     1      32.279 -10.397 -22.109  0.00  0.00    +0.170 A 
ATOM     26  C   UNL     1      31.873  -9.604 -21.035  0.00  0.00    +0.197 A 
ATOM     27  C   UNL     1      33.208  -7.776 -21.881  0.00  0.00    +0.197 A 
ATOM     28  C   UNL     1      32.338  -8.293 -20.921  0.00  0.00    +0.199 A 
ENDBRANCH  17  23
ENDBRANCH   2  17
TORSDOF 5
ENDMDL
