MODEL 1
REMARK VINA RESULT:     -12.0      0.000      0.000
REMARK  Name = 6918314
REMARK  8 active torsions:
REMARK  status: ('A' for Active; 'I' for Inactive)
REMARK    1  A    between atoms: N_1  and  C_22
REMARK    2  A    between atoms: N_2  and  C_9
REMARK    3  A    between atoms: C_16  and  C_19
REMARK    4  A    between atoms: C_22  and  C_23
REMARK    5  A    between atoms: C_23  and  C_24
REMARK    6  A    between atoms: C_24  and  C_25
REMARK    7  A    between atoms: C_25  and  C_27
REMARK    8  A    between atoms: C_33  and  C_37
REMARK                            x       y       z     vdW  Elec       q    Type
REMARK                         _______ _______ _______ _____ _____    ______ ____
ROOT
ATOM      1  N   UNL     1      36.343 -20.506 -19.174  0.00  0.00    +0.389 N 
ATOM      2  N   UNL     1      35.532 -19.016 -21.471  0.00  0.00    -0.312 N 
ATOM      3  C   UNL     1      37.346 -19.928 -20.075  0.00  0.00    -0.055 C 
ATOM      4  C   UNL     1      35.156 -20.906 -19.938  0.00  0.00    -0.055 C 
ATOM      5  C   UNL     1      36.795 -18.695 -20.794  0.00  0.00    +0.068 C 
ATOM      6  C   UNL     1      34.531 -19.707 -20.653  0.00  0.00    +0.068 C 
ATOM      7  H   UNL     1      36.070 -19.800 -18.489  0.00  0.00    -0.080 HD
ENDROOT
BRANCH   2   9
ATOM      8  O   UNL     1      33.938 -15.618 -25.528  0.00  0.00    -0.449 OA
ATOM      9  C   UNL     1      35.120 -18.186 -22.520  0.00  0.00    +0.048 C 
ATOM     10  C   UNL     1      35.180 -16.776 -22.388  0.00  0.00    +0.018 C 
ATOM     11  C   UNL     1      34.635 -18.738 -23.727  0.00  0.00    +0.018 C 
ATOM     12  C   UNL     1      34.761 -15.957 -23.451  0.00  0.00    +0.039 C 
ATOM     13  C   UNL     1      34.296 -16.563 -24.613  0.00  0.00    +0.146 C 
ATOM     14  C   UNL     1      34.215 -17.942 -24.798  0.00  0.00    +0.039 C 
ATOM     15  C   UNL     1      34.677 -14.559 -23.685  0.00  0.00    +0.045 C 
ATOM     16  C   UNL     1      34.173 -14.408 -24.955  0.00  0.00    +0.198 C 
BRANCH  16  19
ATOM     17  O   UNL     1      33.552 -13.243 -26.932  0.00  0.00    -0.267 OA
ATOM     18  N   UNL     1      33.970 -11.992 -25.085  0.00  0.00    -0.323 N 
ATOM     19  C   UNL     1      33.877 -13.243 -25.717  0.00  0.00    +0.277 C 
ATOM     20  H   UNL     1      33.771 -11.170 -25.589  0.00  0.00    +0.145 HD
ATOM     21  H   UNL     1      34.236 -11.937 -24.139  0.00  0.00    +0.145 HD
ENDBRANCH  16  19
ENDBRANCH   2   9
BRANCH   1  22
ATOM     22  C   UNL     1      36.899 -21.650 -18.452  0.00  0.00    -0.077 C 
BRANCH  22  23
ATOM     23  C   UNL     1      37.249 -21.254 -17.019  0.00  0.00    -0.022 C 
BRANCH  23  24
ATOM     24  C   UNL     1      36.584 -22.191 -16.008  0.00  0.00    +0.003 C 
BRANCH  24  25
ATOM     25  C   UNL     1      35.203 -22.643 -16.492  0.00  0.00    +0.028 C 
BRANCH  25  27
ATOM     26  N   UNL     1      34.021 -24.718 -13.730  0.00  0.00    -0.312 N 
ATOM     27  C   UNL     1      34.456 -23.412 -15.444  0.00  0.00    -0.006 C 
ATOM     28  C   UNL     1      33.055 -23.446 -15.288  0.00  0.00    +0.011 C 
ATOM     29  C   UNL     1      35.033 -24.192 -14.487  0.00  0.00    +0.058 C 
ATOM     30  C   UNL     1      32.801 -24.279 -14.196  0.00  0.00    +0.048 C 
ATOM     31  C   UNL     1      31.965 -22.856 -15.958  0.00  0.00    +0.011 C 
ATOM     32  C   UNL     1      31.507 -24.553 -13.740  0.00  0.00    +0.015 C 
ATOM     33  C   UNL     1      30.665 -23.121 -15.512  0.00  0.00    +0.069 C 
ATOM     34  C   UNL     1      30.441 -23.957 -14.420  0.00  0.00    +0.012 C 
ATOM     35  H   UNL     1      34.145 -25.323 -12.963  0.00  0.00    +0.152 HD
BRANCH  33  37
ATOM     36  N   UNL     1      28.651 -22.043 -16.736  0.00  0.00    -0.191 NA
ATOM     37  C   UNL     1      29.553 -22.526 -16.188  0.00  0.00    +0.100 C 
ENDBRANCH  33  37
ENDBRANCH  25  27
ENDBRANCH  24  25
ENDBRANCH  23  24
ENDBRANCH  22  23
ENDBRANCH   1  22
TORSDOF 8
ENDMDL
MODEL 2
REMARK VINA RESULT:     -11.8      4.328      8.126
REMARK  Name = 6918314
REMARK  8 active torsions:
REMARK  status: ('A' for Active; 'I' for Inactive)
REMARK    1  A    between atoms: N_1  and  C_22
REMARK    2  A    between atoms: N_2  and  C_9
REMARK    3  A    between atoms: C_16  and  C_19
REMARK    4  A    between atoms: C_22  and  C_23
REMARK    5  A    between atoms: C_23  and  C_24
REMARK    6  A    between atoms: C_24  and  C_25
REMARK    7  A    between atoms: C_25  and  C_27
REMARK    8  A    between atoms: C_33  and  C_37
REMARK                            x       y       z     vdW  Elec       q    Type
REMARK                         _______ _______ _______ _____ _____    ______ ____
ROOT
ATOM      1  N   UNL     1      34.327 -14.755 -24.597  0.00  0.00    +0.389 N 
ATOM      2  N   UNL     1      33.894 -12.003 -23.969  0.00  0.00    -0.312 N 
ATOM      3  C   UNL     1      33.526 -13.908 -25.488  0.00  0.00    -0.055 C 
ATOM      4  C   UNL     1      34.142 -14.331 -23.205  0.00  0.00    -0.055 C 
ATOM      5  C   UNL     1      33.940 -12.439 -25.370  0.00  0.00    +0.068 C 
ATOM      6  C   UNL     1      34.575 -12.877 -23.009  0.00  0.00    +0.068 C 
ATOM      7  H   UNL     1      35.312 -14.653 -24.843  0.00  0.00    -0.080 HD
ENDROOT
BRANCH   2   9
ATOM      8  O   UNL     1      33.369  -6.609 -22.884  0.00  0.00    -0.449 OA
ATOM      9  C   UNL     1      33.795 -10.630 -23.711  0.00  0.00    +0.048 C 
ATOM     10  C   UNL     1      32.656 -10.103 -23.053  0.00  0.00    +0.018 C 
ATOM     11  C   UNL     1      34.827  -9.748 -24.102  0.00  0.00    +0.018 C 
ATOM     12  C   UNL     1      32.573  -8.722 -22.801  0.00  0.00    +0.039 C 
ATOM     13  C   UNL     1      33.624  -7.908 -23.211  0.00  0.00    +0.146 C 
ATOM     14  C   UNL     1      34.766  -8.372 -23.861  0.00  0.00    +0.039 C 
ATOM     15  C   UNL     1      31.629  -7.856 -22.190  0.00  0.00    +0.045 C 
ATOM     16  C   UNL     1      32.159  -6.589 -22.266  0.00  0.00    +0.198 C 
BRANCH  16  19
ATOM     17  O   UNL     1      30.453  -4.982 -21.871  0.00  0.00    -0.267 OA
ATOM     18  N   UNL     1      32.572  -4.397 -21.308  0.00  0.00    -0.323 N 
ATOM     19  C   UNL     1      31.660  -5.333 -21.822  0.00  0.00    +0.277 C 
ATOM     20  H   UNL     1      32.254  -3.520 -20.994  0.00  0.00    +0.145 HD
ATOM     21  H   UNL     1      33.530  -4.618 -21.263  0.00  0.00    +0.145 HD
ENDBRANCH  16  19
ENDBRANCH   2   9
BRANCH   1  22
ATOM     22  C   UNL     1      33.960 -16.161 -24.760  0.00  0.00    -0.077 C 
BRANCH  22  23
ATOM     23  C   UNL     1      35.210 -17.040 -24.748  0.00  0.00    -0.022 C 
BRANCH  23  24
ATOM     24  C   UNL     1      34.881 -18.462 -24.289  0.00  0.00    +0.003 C 
BRANCH  24  25
ATOM     25  C   UNL     1      34.452 -18.488 -22.819  0.00  0.00    +0.028 C 
BRANCH  25  27
ATOM     26  N   UNL     1      37.547 -19.169 -21.005  0.00  0.00    -0.312 N 
ATOM     27  C   UNL     1      35.557 -18.936 -21.910  0.00  0.00    -0.006 C 
ATOM     28  C   UNL     1      35.421 -19.821 -20.821  0.00  0.00    +0.011 C 
ATOM     29  C   UNL     1      36.859 -18.546 -22.011  0.00  0.00    +0.058 C 
ATOM     30  C   UNL     1      36.694 -19.955 -20.262  0.00  0.00    +0.048 C 
ATOM     31  C   UNL     1      34.349 -20.530 -20.242  0.00  0.00    +0.011 C 
ATOM     32  C   UNL     1      36.950 -20.765 -19.150  0.00  0.00    +0.015 C 
ATOM     33  C   UNL     1      34.590 -21.344 -19.130  0.00  0.00    +0.069 C 
ATOM     34  C   UNL     1      35.871 -21.458 -18.593  0.00  0.00    +0.012 C 
ATOM     35  H   UNL     1      38.512 -19.071 -20.837  0.00  0.00    +0.152 HD
BRANCH  33  37
ATOM     36  N   UNL     1      32.627 -22.653 -18.059  0.00  0.00    -0.191 NA
ATOM     37  C   UNL     1      33.507 -22.067 -18.538  0.00  0.00    +0.100 C 
ENDBRANCH  33  37
ENDBRANCH  25  27
ENDBRANCH  24  25
ENDBRANCH  23  24
ENDBRANCH  22  23
ENDBRANCH   1  22
TORSDOF 8
ENDMDL
MODEL 3
REMARK VINA RESULT:     -11.7      4.532     12.527
REMARK  Name = 6918314
REMARK  8 active torsions:
REMARK  status: ('A' for Active; 'I' for Inactive)
REMARK    1  A    between atoms: N_1  and  C_22
REMARK    2  A    between atoms: N_2  and  C_9
REMARK    3  A    between atoms: C_16  and  C_19
REMARK    4  A    between atoms: C_22  and  C_23
REMARK    5  A    between atoms: C_23  and  C_24
REMARK    6  A    between atoms: C_24  and  C_25
REMARK    7  A    between atoms: C_25  and  C_27
REMARK    8  A    between atoms: C_33  and  C_37
REMARK                            x       y       z     vdW  Elec       q    Type
REMARK                         _______ _______ _______ _____ _____    ______ ____
ROOT
ATOM      1  N   UNL     1      35.131 -16.426 -24.146  0.00  0.00    +0.389 N 
ATOM      2  N   UNL     1      35.094 -18.401 -22.084  0.00  0.00    -0.312 N 
ATOM      3  C   UNL     1      35.112 -16.024 -22.735  0.00  0.00    -0.055 C 
ATOM      4  C   UNL     1      34.373 -17.669 -24.323  0.00  0.00    -0.055 C 
ATOM      5  C   UNL     1      35.738 -17.103 -21.848  0.00  0.00    +0.068 C 
ATOM      6  C   UNL     1      34.972 -18.803 -23.489  0.00  0.00    +0.068 C 
ATOM      7  H   UNL     1      36.098 -16.588 -24.430  0.00  0.00    -0.080 HD
ENDROOT
BRANCH   2   9
ATOM      8  O   UNL     1      35.363 -22.267 -18.145  0.00  0.00    -0.449 OA
ATOM      9  C   UNL     1      35.201 -19.379 -21.088  0.00  0.00    +0.048 C 
ATOM     10  C   UNL     1      34.038 -19.931 -20.496  0.00  0.00    +0.018 C 
ATOM     11  C   UNL     1      36.467 -19.831 -20.656  0.00  0.00    +0.018 C 
ATOM     12  C   UNL     1      34.162 -20.913 -19.497  0.00  0.00    +0.039 C 
ATOM     13  C   UNL     1      35.439 -21.315 -19.117  0.00  0.00    +0.146 C 
ATOM     14  C   UNL     1      36.615 -20.807 -19.665  0.00  0.00    +0.039 C 
ATOM     15  C   UNL     1      33.265 -21.672 -18.701  0.00  0.00    +0.045 C 
ATOM     16  C   UNL     1      34.042 -22.476 -17.900  0.00  0.00    +0.198 C 
BRANCH  16  19
ATOM     17  O   UNL     1      34.489 -24.270 -16.407  0.00  0.00    -0.267 OA
ATOM     18  N   UNL     1      32.361 -23.485 -16.469  0.00  0.00    -0.323 N 
ATOM     19  C   UNL     1      33.693 -23.437 -16.910  0.00  0.00    +0.277 C 
ATOM     20  H   UNL     1      32.092 -24.140 -15.785  0.00  0.00    +0.145 HD
ATOM     21  H   UNL     1      31.696 -22.864 -16.844  0.00  0.00    +0.145 HD
ENDBRANCH  16  19
ENDBRANCH   2   9
BRANCH   1  22
ATOM     22  C   UNL     1      34.581 -15.364 -24.989  0.00  0.00    -0.077 C 
BRANCH  22  23
ATOM     23  C   UNL     1      34.017 -14.239 -24.124  0.00  0.00    -0.022 C 
BRANCH  23  24
ATOM     24  C   UNL     1      33.844 -12.952 -24.934  0.00  0.00    +0.003 C 
BRANCH  24  25
ATOM     25  C   UNL     1      33.471 -11.771 -24.033  0.00  0.00    +0.028 C 
BRANCH  25  27
ATOM     26  N   UNL     1      35.912  -9.267 -25.084  0.00  0.00    -0.312 N 
ATOM     27  C   UNL     1      34.340 -10.573 -24.274  0.00  0.00    -0.006 C 
ATOM     28  C   UNL     1      34.220  -9.325 -23.630  0.00  0.00    +0.011 C 
ATOM     29  C   UNL     1      35.376 -10.525 -25.159  0.00  0.00    +0.058 C 
ATOM     30  C   UNL     1      35.226  -8.512 -24.159  0.00  0.00    +0.048 C 
ATOM     31  C   UNL     1      33.362  -8.790 -22.650  0.00  0.00    +0.011 C 
ATOM     32  C   UNL     1      35.418  -7.187 -23.753  0.00  0.00    +0.015 C 
ATOM     33  C   UNL     1      33.541  -7.465 -22.234  0.00  0.00    +0.069 C 
ATOM     34  C   UNL     1      34.554  -6.678 -22.779  0.00  0.00    +0.012 C 
ATOM     35  H   UNL     1      36.678  -8.948 -25.615  0.00  0.00    +0.152 HD
BRANCH  33  37
ATOM     36  N   UNL     1      31.971  -6.469 -20.430  0.00  0.00    -0.191 NA
ATOM     37  C   UNL     1      32.674  -6.916 -21.238  0.00  0.00    +0.100 C 
ENDBRANCH  33  37
ENDBRANCH  25  27
ENDBRANCH  24  25
ENDBRANCH  23  24
ENDBRANCH  22  23
ENDBRANCH   1  22
TORSDOF 8
ENDMDL
MODEL 4
REMARK VINA RESULT:     -11.6      4.134     11.108
REMARK  Name = 6918314
REMARK  8 active torsions:
REMARK  status: ('A' for Active; 'I' for Inactive)
REMARK    1  A    between atoms: N_1  and  C_22
REMARK    2  A    between atoms: N_2  and  C_9
REMARK    3  A    between atoms: C_16  and  C_19
REMARK    4  A    between atoms: C_22  and  C_23
REMARK    5  A    between atoms: C_23  and  C_24
REMARK    6  A    between atoms: C_24  and  C_25
REMARK    7  A    between atoms: C_25  and  C_27
REMARK    8  A    between atoms: C_33  and  C_37
REMARK                            x       y       z     vdW  Elec       q    Type
REMARK                         _______ _______ _______ _____ _____    ______ ____
ROOT
ATOM      1  N   UNL     1      35.590 -17.065 -24.019  0.00  0.00    +0.389 N 
ATOM      2  N   UNL     1      35.259 -18.890 -21.847  0.00  0.00    -0.312 N 
ATOM      3  C   UNL     1      35.650 -16.587 -22.633  0.00  0.00    -0.055 C 
ATOM      4  C   UNL     1      34.640 -18.178 -24.123  0.00  0.00    -0.055 C 
ATOM      5  C   UNL     1      36.105 -17.701 -21.687  0.00  0.00    +0.068 C 
ATOM      6  C   UNL     1      35.060 -19.345 -23.226  0.00  0.00    +0.068 C 
ATOM      7  H   UNL     1      36.515 -17.395 -24.294  0.00  0.00    -0.080 HD
ENDROOT
BRANCH   2   9
ATOM      8  O   UNL     1      34.948 -22.531 -17.702  0.00  0.00    -0.449 OA
ATOM      9  C   UNL     1      35.219 -19.815 -20.797  0.00  0.00    +0.048 C 
ATOM     10  C   UNL     1      33.979 -20.220 -20.244  0.00  0.00    +0.018 C 
ATOM     11  C   UNL     1      36.412 -20.358 -20.270  0.00  0.00    +0.018 C 
ATOM     12  C   UNL     1      33.956 -21.150 -19.189  0.00  0.00    +0.039 C 
ATOM     13  C   UNL     1      35.166 -21.648 -18.717  0.00  0.00    +0.146 C 
ATOM     14  C   UNL     1      36.413 -21.285 -19.222  0.00  0.00    +0.039 C 
ATOM     15  C   UNL     1      32.949 -21.775 -18.408  0.00  0.00    +0.045 C 
ATOM     16  C   UNL     1      33.602 -22.601 -17.522  0.00  0.00    +0.198 C 
BRANCH  16  19
ATOM     17  O   UNL     1      31.905 -23.794 -16.363  0.00  0.00    -0.267 OA
ATOM     18  N   UNL     1      34.024 -23.984 -15.572  0.00  0.00    -0.323 N 
ATOM     19  C   UNL     1      33.111 -23.467 -16.506  0.00  0.00    +0.277 C 
ATOM     20  H   UNL     1      33.710 -24.586 -14.858  0.00  0.00    +0.145 HD
ATOM     21  H   UNL     1      34.977 -23.746 -15.632  0.00  0.00    +0.145 HD
ENDBRANCH  16  19
ENDBRANCH   2   9
BRANCH   1  22
ATOM     22  C   UNL     1      35.208 -15.978 -24.920  0.00  0.00    -0.077 C 
BRANCH  22  23
ATOM     23  C   UNL     1      33.780 -15.521 -24.624  0.00  0.00    -0.022 C 
BRANCH  23  24
ATOM     24  C   UNL     1      33.657 -13.999 -24.718  0.00  0.00    +0.003 C 
BRANCH  24  25
ATOM     25  C   UNL     1      34.424 -13.306 -23.588  0.00  0.00    +0.028 C 
BRANCH  25  27
ATOM     26  N   UNL     1      32.413 -13.123 -20.546  0.00  0.00    -0.312 N 
ATOM     27  C   UNL     1      33.540 -12.963 -22.426  0.00  0.00    -0.006 C 
ATOM     28  C   UNL     1      32.891 -11.729 -22.221  0.00  0.00    +0.011 C 
ATOM     29  C   UNL     1      33.241 -13.805 -21.397  0.00  0.00    +0.058 C 
ATOM     30  C   UNL     1      32.182 -11.852 -21.023  0.00  0.00    +0.048 C 
ATOM     31  C   UNL     1      32.825 -10.509 -22.924  0.00  0.00    +0.011 C 
ATOM     32  C   UNL     1      31.408 -10.814 -20.494  0.00  0.00    +0.015 C 
ATOM     33  C   UNL     1      32.055  -9.462 -22.406  0.00  0.00    +0.069 C 
ATOM     34  C   UNL     1      31.358  -9.614 -21.209  0.00  0.00    +0.012 C 
ATOM     35  H   UNL     1      32.037 -13.488 -19.713  0.00  0.00    +0.152 HD
BRANCH  33  37
ATOM     36  N   UNL     1      31.926  -7.216 -23.691  0.00  0.00    -0.191 NA
ATOM     37  C   UNL     1      31.983  -8.222 -23.115  0.00  0.00    +0.100 C 
ENDBRANCH  33  37
ENDBRANCH  25  27
ENDBRANCH  24  25
ENDBRANCH  23  24
ENDBRANCH  22  23
ENDBRANCH   1  22
TORSDOF 8
ENDMDL
MODEL 5
REMARK VINA RESULT:     -11.6      1.343      1.806
REMARK  Name = 6918314
REMARK  8 active torsions:
REMARK  status: ('A' for Active; 'I' for Inactive)
REMARK    1  A    between atoms: N_1  and  C_22
REMARK    2  A    between atoms: N_2  and  C_9
REMARK    3  A    between atoms: C_16  and  C_19
REMARK    4  A    between atoms: C_22  and  C_23
REMARK    5  A    between atoms: C_23  and  C_24
REMARK    6  A    between atoms: C_24  and  C_25
REMARK    7  A    between atoms: C_25  and  C_27
REMARK    8  A    between atoms: C_33  and  C_37
REMARK                            x       y       z     vdW  Elec       q    Type
REMARK                         _______ _______ _______ _____ _____    ______ ____
ROOT
ATOM      1  N   UNL     1      35.916 -20.716 -20.263  0.00  0.00    +0.389 N 
ATOM      2  N   UNL     1      35.473 -18.234 -21.605  0.00  0.00    -0.312 N 
ATOM      3  C   UNL     1      34.558 -20.176 -20.396  0.00  0.00    -0.055 C 
ATOM      4  C   UNL     1      36.879 -19.617 -20.129  0.00  0.00    -0.055 C 
ATOM      5  C   UNL     1      34.441 -19.278 -21.629  0.00  0.00    +0.068 C 
ATOM      6  C   UNL     1      36.841 -18.699 -21.352  0.00  0.00    +0.068 C 
ATOM      7  H   UNL     1      36.141 -21.250 -21.102  0.00  0.00    -0.080 HD
ENDROOT
BRANCH   2   9
ATOM      8  O   UNL     1      34.619 -13.606 -24.501  0.00  0.00    -0.449 OA
ATOM      9  C   UNL     1      35.262 -17.082 -22.371  0.00  0.00    +0.048 C 
ATOM     10  C   UNL     1      34.999 -15.839 -21.743  0.00  0.00    +0.018 C 
ATOM     11  C   UNL     1      35.305 -17.138 -23.782  0.00  0.00    +0.018 C 
ATOM     12  C   UNL     1      34.789 -14.691 -22.527  0.00  0.00    +0.039 C 
ATOM     13  C   UNL     1      34.845 -14.813 -23.912  0.00  0.00    +0.146 C 
ATOM     14  C   UNL     1      35.099 -16.009 -24.582  0.00  0.00    +0.039 C 
ATOM     15  C   UNL     1      34.511 -13.323 -22.272  0.00  0.00    +0.045 C 
ATOM     16  C   UNL     1      34.418 -12.710 -23.499  0.00  0.00    +0.198 C 
BRANCH  16  19
ATOM     17  O   UNL     1      33.214 -10.663 -23.401  0.00  0.00    -0.267 OA
ATOM     18  N   UNL     1      34.993 -10.747 -24.808  0.00  0.00    -0.323 N 
ATOM     19  C   UNL     1      34.157 -11.358 -23.858  0.00  0.00    +0.277 C 
ATOM     20  H   UNL     1      34.834  -9.813 -25.075  0.00  0.00    +0.145 HD
ATOM     21  H   UNL     1      35.736 -11.254 -25.207  0.00  0.00    +0.145 HD
ENDBRANCH  16  19
ENDBRANCH   2   9
BRANCH   1  22
ATOM     22  C   UNL     1      36.000 -21.616 -19.113  0.00  0.00    -0.077 C 
BRANCH  22  23
ATOM     23  C   UNL     1      34.614 -21.837 -18.510  0.00  0.00    -0.022 C 
BRANCH  23  24
ATOM     24  C   UNL     1      34.592 -23.080 -17.617  0.00  0.00    +0.003 C 
BRANCH  24  25
ATOM     25  C   UNL     1      34.961 -22.735 -16.172  0.00  0.00    +0.028 C 
BRANCH  25  27
ATOM     26  N   UNL     1      33.588 -24.815 -13.503  0.00  0.00    -0.312 N 
ATOM     27  C   UNL     1      34.142 -23.502 -15.176  0.00  0.00    -0.006 C 
ATOM     28  C   UNL     1      32.734 -23.514 -15.102  0.00  0.00    +0.011 C 
ATOM     29  C   UNL     1      34.650 -24.299 -14.195  0.00  0.00    +0.058 C 
ATOM     30  C   UNL     1      32.405 -24.353 -14.035  0.00  0.00    +0.048 C 
ATOM     31  C   UNL     1      31.694 -22.901 -15.829  0.00  0.00    +0.011 C 
ATOM     32  C   UNL     1      31.082 -24.611 -13.658  0.00  0.00    +0.015 C 
ATOM     33  C   UNL     1      30.366 -23.150 -15.462  0.00  0.00    +0.069 C 
ATOM     34  C   UNL     1      30.067 -23.992 -14.393  0.00  0.00    +0.012 C 
ATOM     35  H   UNL     1      33.658 -25.428 -12.736  0.00  0.00    +0.152 HD
BRANCH  33  37
ATOM     36  N   UNL     1      28.445 -22.031 -16.793  0.00  0.00    -0.191 NA
ATOM     37  C   UNL     1      29.305 -22.532 -16.196  0.00  0.00    +0.100 C 
ENDBRANCH  33  37
ENDBRANCH  25  27
ENDBRANCH  24  25
ENDBRANCH  23  24
ENDBRANCH  22  23
ENDBRANCH   1  22
TORSDOF 8
ENDMDL
MODEL 6
REMARK VINA RESULT:     -11.5      3.592      6.070
REMARK  Name = 6918314
REMARK  8 active torsions:
REMARK  status: ('A' for Active; 'I' for Inactive)
REMARK    1  A    between atoms: N_1  and  C_22
REMARK    2  A    between atoms: N_2  and  C_9
REMARK    3  A    between atoms: C_16  and  C_19
REMARK    4  A    between atoms: C_22  and  C_23
REMARK    5  A    between atoms: C_23  and  C_24
REMARK    6  A    between atoms: C_24  and  C_25
REMARK    7  A    between atoms: C_25  and  C_27
REMARK    8  A    between atoms: C_33  and  C_37
REMARK                            x       y       z     vdW  Elec       q    Type
REMARK                         _______ _______ _______ _____ _____    ______ ____
ROOT
ATOM      1  N   UNL     1      35.611 -16.386 -22.998  0.00  0.00    +0.389 N 
ATOM      2  N   UNL     1      34.061 -14.024 -22.578  0.00  0.00    -0.312 N 
ATOM      3  C   UNL     1      34.629 -15.956 -23.999  0.00  0.00    -0.055 C 
ATOM      4  C   UNL     1      35.139 -16.037 -21.653  0.00  0.00    -0.055 C 
ATOM      5  C   UNL     1      34.412 -14.442 -23.941  0.00  0.00    +0.068 C 
ATOM      6  C   UNL     1      34.938 -14.526 -21.515  0.00  0.00    +0.068 C 
ATOM      7  H   UNL     1      36.493 -15.904 -23.172  0.00  0.00    -0.080 HD
ENDROOT
BRANCH   2   9
ATOM      8  O   UNL     1      31.536  -9.137 -22.048  0.00  0.00    -0.449 OA
ATOM      9  C   UNL     1      33.401 -12.801 -22.414  0.00  0.00    +0.048 C 
ATOM     10  C   UNL     1      33.698 -11.705 -23.262  0.00  0.00    +0.018 C 
ATOM     11  C   UNL     1      32.431 -12.636 -21.401  0.00  0.00    +0.018 C 
ATOM     12  C   UNL     1      33.026 -10.483 -23.085  0.00  0.00    +0.039 C 
ATOM     13  C   UNL     1      32.080 -10.386 -22.069  0.00  0.00    +0.146 C 
ATOM     14  C   UNL     1      31.750 -11.430 -21.206  0.00  0.00    +0.039 C 
ATOM     15  C   UNL     1      33.049  -9.210 -23.712  0.00  0.00    +0.045 C 
ATOM     16  C   UNL     1      32.130  -8.432 -23.047  0.00  0.00    +0.198 C 
BRANCH  16  19
ATOM     17  O   UNL     1      31.878  -6.430 -24.302  0.00  0.00    -0.267 OA
ATOM     18  N   UNL     1      31.145  -6.401 -22.154  0.00  0.00    -0.323 N 
ATOM     19  C   UNL     1      31.730  -7.080 -23.236  0.00  0.00    +0.277 C 
ATOM     20  H   UNL     1      30.860  -5.464 -22.257  0.00  0.00    +0.145 HD
ATOM     21  H   UNL     1      31.022  -6.861 -21.293  0.00  0.00    +0.145 HD
ENDBRANCH  16  19
ENDBRANCH   2   9
BRANCH   1  22
ATOM     22  C   UNL     1      35.850 -17.826 -23.100  0.00  0.00    -0.077 C 
BRANCH  22  23
ATOM     23  C   UNL     1      36.208 -18.402 -21.731  0.00  0.00    -0.022 C 
BRANCH  23  24
ATOM     24  C   UNL     1      35.256 -19.534 -21.342  0.00  0.00    +0.003 C 
BRANCH  24  25
ATOM     25  C   UNL     1      35.867 -20.432 -20.262  0.00  0.00    +0.028 C 
BRANCH  25  27
ATOM     26  N   UNL     1      32.901 -22.036 -18.862  0.00  0.00    -0.312 N 
ATOM     27  C   UNL     1      34.824 -21.163 -19.471  0.00  0.00    -0.006 C 
ATOM     28  C   UNL     1      35.028 -21.801 -18.230  0.00  0.00    +0.011 C 
ATOM     29  C   UNL     1      33.522 -21.314 -19.845  0.00  0.00    +0.058 C 
ATOM     30  C   UNL     1      33.796 -22.348 -17.863  0.00  0.00    +0.048 C 
ATOM     31  C   UNL     1      36.131 -21.977 -17.371  0.00  0.00    +0.011 C 
ATOM     32  C   UNL     1      33.612 -23.062 -16.674  0.00  0.00    +0.015 C 
ATOM     33  C   UNL     1      35.961 -22.691 -16.179  0.00  0.00    +0.069 C 
ATOM     34  C   UNL     1      34.720 -23.225 -15.838  0.00  0.00    +0.012 C 
ATOM     35  H   UNL     1      31.951 -22.295 -18.867  0.00  0.00    +0.152 HD
BRANCH  33  37
ATOM     36  N   UNL     1      37.981 -23.021 -14.590  0.00  0.00    -0.191 NA
ATOM     37  C   UNL     1      37.076 -22.872 -15.302  0.00  0.00    +0.100 C 
ENDBRANCH  33  37
ENDBRANCH  25  27
ENDBRANCH  24  25
ENDBRANCH  23  24
ENDBRANCH  22  23
ENDBRANCH   1  22
TORSDOF 8
ENDMDL
MODEL 7
REMARK VINA RESULT:     -11.4      5.042      8.799
REMARK  Name = 6918314
REMARK  8 active torsions:
REMARK  status: ('A' for Active; 'I' for Inactive)
REMARK    1  A    between atoms: N_1  and  C_22
REMARK    2  A    between atoms: N_2  and  C_9
REMARK    3  A    between atoms: C_16  and  C_19
REMARK    4  A    between atoms: C_22  and  C_23
REMARK    5  A    between atoms: C_23  and  C_24
REMARK    6  A    between atoms: C_24  and  C_25
REMARK    7  A    between atoms: C_25  and  C_27
REMARK    8  A    between atoms: C_33  and  C_37
REMARK                            x       y       z     vdW  Elec       q    Type
REMARK                         _______ _______ _______ _____ _____    ______ ____
ROOT
ATOM      1  N   UNL     1      33.697 -13.877 -23.079  0.00  0.00    +0.389 N 
ATOM      2  N   UNL     1      33.071 -11.151 -22.501  0.00  0.00    -0.312 N 
ATOM      3  C   UNL     1      33.236 -13.489 -21.741  0.00  0.00    -0.055 C 
ATOM      4  C   UNL     1      34.490 -12.792 -23.668  0.00  0.00    -0.055 C 
ATOM      5  C   UNL     1      32.365 -12.232 -21.802  0.00  0.00    +0.068 C 
ATOM      6  C   UNL     1      33.663 -11.511 -23.793  0.00  0.00    +0.068 C 
ATOM      7  H   UNL     1      32.884 -14.048 -23.671  0.00  0.00    -0.080 HD
ENDROOT
BRANCH   2   9
ATOM      8  O   UNL     1      31.431  -5.928 -21.743  0.00  0.00    -0.449 OA
ATOM      9  C   UNL     1      32.651  -9.835 -22.271  0.00  0.00    +0.048 C 
ATOM     10  C   UNL     1      32.578  -8.907 -23.339  0.00  0.00    +0.018 C 
ATOM     11  C   UNL     1      32.295  -9.410 -20.972  0.00  0.00    +0.018 C 
ATOM     12  C   UNL     1      32.154  -7.590 -23.092  0.00  0.00    +0.039 C 
ATOM     13  C   UNL     1      31.816  -7.234 -21.790  0.00  0.00    +0.146 C 
ATOM     14  C   UNL     1      31.870  -8.105 -20.703  0.00  0.00    +0.039 C 
ATOM     15  C   UNL     1      31.959  -6.422 -23.874  0.00  0.00    +0.045 C 
ATOM     16  C   UNL     1      31.521  -5.445 -23.010  0.00  0.00    +0.198 C 
BRANCH  16  19
ATOM     17  O   UNL     1      31.059  -3.544 -24.360  0.00  0.00    -0.267 OA
ATOM     18  N   UNL     1      30.947  -3.264 -22.111  0.00  0.00    -0.323 N 
ATOM     19  C   UNL     1      31.169  -4.083 -23.230  0.00  0.00    +0.277 C 
ATOM     20  H   UNL     1      30.702  -2.318 -22.234  0.00  0.00    +0.145 HD
ATOM     21  H   UNL     1      31.036  -3.635 -21.204  0.00  0.00    +0.145 HD
ENDBRANCH  16  19
ENDBRANCH   2   9
BRANCH   1  22
ATOM     22  C   UNL     1      34.482 -15.109 -23.014  0.00  0.00    -0.077 C 
BRANCH  22  23
ATOM     23  C   UNL     1      34.755 -15.639 -24.421  0.00  0.00    -0.022 C 
BRANCH  23  24
ATOM     24  C   UNL     1      35.239 -17.090 -24.381  0.00  0.00    +0.003 C 
BRANCH  24  25
ATOM     25  C   UNL     1      34.683 -17.830 -23.160  0.00  0.00    +0.028 C 
BRANCH  25  27
ATOM     26  N   UNL     1      37.749 -18.789 -21.425  0.00  0.00    -0.312 N 
ATOM     27  C   UNL     1      35.768 -18.391 -22.291  0.00  0.00    -0.006 C 
ATOM     28  C   UNL     1      35.590 -19.325 -21.250  0.00  0.00    +0.011 C 
ATOM     29  C   UNL     1      37.090 -18.072 -22.387  0.00  0.00    +0.058 C 
ATOM     30  C   UNL     1      36.858 -19.562 -20.714  0.00  0.00    +0.048 C 
ATOM     31  C   UNL     1      34.484 -20.000 -20.697  0.00  0.00    +0.011 C 
ATOM     32  C   UNL     1      37.075 -20.446 -19.652  0.00  0.00    +0.015 C 
ATOM     33  C   UNL     1      34.686 -20.886 -19.633  0.00  0.00    +0.069 C 
ATOM     34  C   UNL     1      35.963 -21.104 -19.119  0.00  0.00    +0.012 C 
ATOM     35  H   UNL     1      38.720 -18.757 -21.263  0.00  0.00    +0.152 HD
BRANCH  33  37
ATOM     36  N   UNL     1      32.660 -22.136 -18.610  0.00  0.00    -0.191 NA
ATOM     37  C   UNL     1      33.568 -21.576 -19.068  0.00  0.00    +0.100 C 
ENDBRANCH  33  37
ENDBRANCH  25  27
ENDBRANCH  24  25
ENDBRANCH  23  24
ENDBRANCH  22  23
ENDBRANCH   1  22
TORSDOF 8
ENDMDL
MODEL 8
REMARK VINA RESULT:     -11.3      4.505     11.255
REMARK  Name = 6918314
REMARK  8 active torsions:
REMARK  status: ('A' for Active; 'I' for Inactive)
REMARK    1  A    between atoms: N_1  and  C_22
REMARK    2  A    between atoms: N_2  and  C_9
REMARK    3  A    between atoms: C_16  and  C_19
REMARK    4  A    between atoms: C_22  and  C_23
REMARK    5  A    between atoms: C_23  and  C_24
REMARK    6  A    between atoms: C_24  and  C_25
REMARK    7  A    between atoms: C_25  and  C_27
REMARK    8  A    between atoms: C_33  and  C_37
REMARK                            x       y       z     vdW  Elec       q    Type
REMARK                         _______ _______ _______ _____ _____    ______ ____
ROOT
ATOM      1  N   UNL     1      35.225 -17.846 -23.080  0.00  0.00    +0.389 N 
ATOM      2  N   UNL     1      35.444 -19.719 -20.935  0.00  0.00    -0.312 N 
ATOM      3  C   UNL     1      34.272 -18.956 -22.964  0.00  0.00    -0.055 C 
ATOM      4  C   UNL     1      36.543 -18.267 -22.593  0.00  0.00    -0.055 C 
ATOM      5  C   UNL     1      34.129 -19.408 -21.509  0.00  0.00    +0.068 C 
ATOM      6  C   UNL     1      36.477 -18.697 -21.126  0.00  0.00    +0.068 C 
ATOM      7  H   UNL     1      34.896 -17.068 -22.507  0.00  0.00    -0.080 HD
ENDROOT
BRANCH   2   9
ATOM      8  O   UNL     1      35.771 -22.965 -16.474  0.00  0.00    -0.449 OA
ATOM      9  C   UNL     1      35.490 -20.553 -19.811  0.00  0.00    +0.048 C 
ATOM     10  C   UNL     1      36.666 -20.635 -19.026  0.00  0.00    +0.018 C 
ATOM     11  C   UNL     1      34.367 -21.326 -19.441  0.00  0.00    +0.018 C 
ATOM     12  C   UNL     1      36.697 -21.477 -17.900  0.00  0.00    +0.039 C 
ATOM     13  C   UNL     1      35.557 -22.212 -17.589  0.00  0.00    +0.146 C 
ATOM     14  C   UNL     1      34.375 -22.170 -18.326  0.00  0.00    +0.039 C 
ATOM     15  C   UNL     1      37.655 -21.811 -16.907  0.00  0.00    +0.045 C 
ATOM     16  C   UNL     1      37.045 -22.715 -16.068  0.00  0.00    +0.198 C 
BRANCH  16  19
ATOM     17  O   UNL     1      37.637 -22.865 -13.772  0.00  0.00    -0.267 OA
ATOM     18  N   UNL     1      37.904 -24.735 -15.030  0.00  0.00    -0.323 N 
ATOM     19  C   UNL     1      37.518 -23.390 -14.908  0.00  0.00    +0.277 C 
ATOM     20  H   UNL     1      38.235 -25.225 -14.244  0.00  0.00    +0.145 HD
ATOM     21  H   UNL     1      37.844 -25.186 -15.903  0.00  0.00    +0.145 HD
ENDBRANCH  16  19
ENDBRANCH   2   9
BRANCH   1  22
ATOM     22  C   UNL     1      35.312 -17.387 -24.466  0.00  0.00    -0.077 C 
BRANCH  22  23
ATOM     23  C   UNL     1      34.835 -15.940 -24.577  0.00  0.00    -0.022 C 
BRANCH  23  24
ATOM     24  C   UNL     1      35.067 -15.180 -23.269  0.00  0.00    +0.003 C 
BRANCH  24  25
ATOM     25  C   UNL     1      34.611 -13.722 -23.383  0.00  0.00    +0.028 C 
BRANCH  25  27
ATOM     26  N   UNL     1      32.536 -13.383 -20.398  0.00  0.00    -0.312 N 
ATOM     27  C   UNL     1      33.707 -13.318 -22.257  0.00  0.00    -0.006 C 
ATOM     28  C   UNL     1      33.070 -12.068 -22.119  0.00  0.00    +0.011 C 
ATOM     29  C   UNL     1      33.373 -14.111 -21.200  0.00  0.00    +0.058 C 
ATOM     30  C   UNL     1      32.334 -12.131 -20.934  0.00  0.00    +0.048 C 
ATOM     31  C   UNL     1      33.038 -10.879 -22.875  0.00  0.00    +0.011 C 
ATOM     32  C   UNL     1      31.563 -11.061 -20.467  0.00  0.00    +0.015 C 
ATOM     33  C   UNL     1      32.271  -9.801 -22.419  0.00  0.00    +0.069 C 
ATOM     34  C   UNL     1      31.546  -9.892 -21.233  0.00  0.00    +0.012 C 
ATOM     35  H   UNL     1      32.136 -13.707 -19.558  0.00  0.00    +0.152 HD
BRANCH  33  37
ATOM     36  N   UNL     1      32.200  -7.610 -23.802  0.00  0.00    -0.191 NA
ATOM     37  C   UNL     1      32.232  -8.591 -23.182  0.00  0.00    +0.100 C 
ENDBRANCH  33  37
ENDBRANCH  25  27
ENDBRANCH  24  25
ENDBRANCH  23  24
ENDBRANCH  22  23
ENDBRANCH   1  22
TORSDOF 8
ENDMDL
MODEL 9
REMARK VINA RESULT:     -11.1      2.247      4.194
REMARK  Name = 6918314
REMARK  8 active torsions:
REMARK  status: ('A' for Active; 'I' for Inactive)
REMARK    1  A    between atoms: N_1  and  C_22
REMARK    2  A    between atoms: N_2  and  C_9
REMARK    3  A    between atoms: C_16  and  C_19
REMARK    4  A    between atoms: C_22  and  C_23
REMARK    5  A    between atoms: C_23  and  C_24
REMARK    6  A    between atoms: C_24  and  C_25
REMARK    7  A    between atoms: C_25  and  C_27
REMARK    8  A    between atoms: C_33  and  C_37
REMARK                            x       y       z     vdW  Elec       q    Type
REMARK                         _______ _______ _______ _____ _____    ______ ____
ROOT
ATOM      1  N   UNL     1      36.449 -20.865 -19.706  0.00  0.00    +0.389 N 
ATOM      2  N   UNL     1      35.729 -18.694 -21.415  0.00  0.00    -0.312 N 
ATOM      3  C   UNL     1      35.037 -20.539 -19.935  0.00  0.00    -0.055 C 
ATOM      4  C   UNL     1      37.256 -19.640 -19.729  0.00  0.00    -0.055 C 
ATOM      5  C   UNL     1      34.844 -19.859 -21.292  0.00  0.00    +0.068 C 
ATOM      6  C   UNL     1      37.136 -18.928 -21.079  0.00  0.00    +0.068 C 
ATOM      7  H   UNL     1      36.770 -21.484 -20.451  0.00  0.00    -0.080 HD
ENDROOT
BRANCH   2   9
ATOM      8  O   UNL     1      34.413 -14.697 -24.998  0.00  0.00    -0.449 OA
ATOM      9  C   UNL     1      35.392 -17.708 -22.350  0.00  0.00    +0.048 C 
ATOM     10  C   UNL     1      35.303 -16.349 -21.962  0.00  0.00    +0.018 C 
ATOM     11  C   UNL     1      35.135 -18.051 -23.696  0.00  0.00    +0.018 C 
ATOM     12  C   UNL     1      34.965 -15.371 -22.913  0.00  0.00    +0.039 C 
ATOM     13  C   UNL     1      34.724 -15.774 -24.223  0.00  0.00    +0.146 C 
ATOM     14  C   UNL     1      34.797 -17.096 -24.660  0.00  0.00    +0.039 C 
ATOM     15  C   UNL     1      34.786 -13.963 -22.904  0.00  0.00    +0.045 C 
ATOM     16  C   UNL     1      34.453 -13.605 -24.190  0.00  0.00    +0.198 C 
BRANCH  16  19
ATOM     17  O   UNL     1      33.619 -12.170 -25.891  0.00  0.00    -0.267 OA
ATOM     18  N   UNL     1      34.515 -11.182 -24.055  0.00  0.00    -0.323 N 
ATOM     19  C   UNL     1      34.160 -12.339 -24.768  0.00  0.00    +0.277 C 
ATOM     20  H   UNL     1      34.325 -10.293 -24.432  0.00  0.00    +0.145 HD
ATOM     21  H   UNL     1      34.956 -11.261 -23.178  0.00  0.00    +0.145 HD
ENDBRANCH  16  19
ENDBRANCH   2   9
BRANCH   1  22
ATOM     22  C   UNL     1      36.614 -21.563 -18.431  0.00  0.00    -0.077 C 
BRANCH  22  23
ATOM     23  C   UNL     1      35.262 -22.054 -17.916  0.00  0.00    -0.022 C 
BRANCH  23  24
ATOM     24  C   UNL     1      35.306 -22.314 -16.409  0.00  0.00    +0.003 C 
BRANCH  24  25
ATOM     25  C   UNL     1      34.799 -23.719 -16.071  0.00  0.00    +0.028 C 
BRANCH  25  27
ATOM     26  N   UNL     1      34.815 -24.508 -12.505  0.00  0.00    -0.312 N 
ATOM     27  C   UNL     1      35.084 -24.101 -14.649  0.00  0.00    -0.006 C 
ATOM     28  C   UNL     1      36.332 -24.518 -14.142  0.00  0.00    +0.011 C 
ATOM     29  C   UNL     1      34.167 -24.101 -13.640  0.00  0.00    +0.058 C 
ATOM     30  C   UNL     1      36.139 -24.771 -12.782  0.00  0.00    +0.048 C 
ATOM     31  C   UNL     1      37.615 -24.710 -14.692  0.00  0.00    +0.011 C 
ATOM     32  C   UNL     1      37.169 -25.206 -11.941  0.00  0.00    +0.015 C 
ATOM     33  C   UNL     1      38.655 -25.146 -13.862  0.00  0.00    +0.069 C 
ATOM     34  C   UNL     1      38.433 -25.390 -12.509  0.00  0.00    +0.012 C 
ATOM     35  H   UNL     1      34.397 -24.601 -11.619  0.00  0.00    +0.152 HD
BRANCH  33  37
ATOM     36  N   UNL     1      41.019 -25.501 -14.861  0.00  0.00    -0.191 NA
ATOM     37  C   UNL     1      39.960 -25.342 -14.413  0.00  0.00    +0.100 C 
ENDBRANCH  33  37
ENDBRANCH  25  27
ENDBRANCH  24  25
ENDBRANCH  23  24
ENDBRANCH  22  23
ENDBRANCH   1  22
TORSDOF 8
ENDMDL
