MODEL 1
REMARK VINA RESULT:     -12.9      0.000      0.000
REMARK  Name = 11167118
REMARK  6 active torsions:
REMARK  status: ('A' for Active; 'I' for Inactive)
REMARK    1  A    between atoms: N_2  and  C_6
REMARK    2  A    between atoms: N_2  and  C_15
REMARK    3  A    between atoms: C_8  and  O_25
REMARK    4  A    between atoms: C_17  and  C_24
REMARK    5  A    between atoms: O_25  and  C_27
REMARK    6  A    between atoms: C_30  and  C_34
REMARK                            x       y       z     vdW  Elec       q    Type
REMARK                         _______ _______ _______ _____ _____    ______ ____
ROOT
ATOM      1  N   UNL     1      33.553 -20.791 -19.864  0.00  0.00    -0.302 N 
ATOM      2  N   UNL     1      35.249 -21.876 -18.923  0.00  0.00    -0.302 N 
ATOM      3  C   UNL     1      34.682 -20.128 -20.271  0.00  0.00    +0.063 C 
ATOM      4  C   UNL     1      35.727 -20.825 -19.670  0.00  0.00    +0.060 C 
ATOM      5  C   UNL     1      33.942 -21.827 -19.062  0.00  0.00    +0.225 C 
ATOM      6  C   UNL     1      34.875 -19.013 -21.088  0.00  0.00    +0.053 C 
ATOM      7  C   UNL     1      36.196 -18.603 -21.292  0.00  0.00    +0.147 C 
ATOM      8  C   UNL     1      37.049 -20.399 -19.885  0.00  0.00    +0.019 C 
ATOM      9  C   UNL     1      37.265 -19.281 -20.702  0.00  0.00    +0.039 C 
ATOM     10  H   UNL     1      32.627 -20.561 -20.107  0.00  0.00    +0.150 HD
ATOM     11  H   UNL     1      35.770 -22.526 -18.398  0.00  0.00    +0.150 HD
ENDROOT
BRANCH   5  12
ATOM     12  N   UNL     1      32.986 -22.627 -18.540  0.00  0.00    -0.303 N 
ATOM     13  H   UNL     1      32.520 -23.195 -19.195  0.00  0.00    +0.150 HD
BRANCH  12  15
ATOM     14 CL   UNL     1      31.195 -23.270 -12.928  0.00  0.00    -0.082 Cl
ATOM     15  C   UNL     1      32.547 -22.779 -17.195  0.00  0.00    +0.047 C 
ATOM     16  C   UNL     1      31.201 -22.625 -16.893  0.00  0.00    +0.019 C 
ATOM     17  C   UNL     1      30.770 -22.775 -15.575  0.00  0.00    +0.083 C 
ATOM     18  C   UNL     1      33.471 -23.079 -16.204  0.00  0.00    +0.015 C 
ATOM     19  C   UNL     1      31.691 -23.076 -14.570  0.00  0.00    +0.062 C 
ATOM     20  C   UNL     1      33.041 -23.228 -14.885  0.00  0.00    +0.013 C 
BRANCH  17  24
ATOM     21  F   UNL     1      28.741 -23.759 -14.863  0.00  0.00    -0.166 F 
ATOM     22  F   UNL     1      29.090 -21.686 -14.309  0.00  0.00    -0.166 F 
ATOM     23  F   UNL     1      28.640 -22.195 -16.380  0.00  0.00    -0.166 F 
ATOM     24  C   UNL     1      29.315 -22.604 -15.279  0.00  0.00    +0.419 C 
ENDBRANCH  17  24
ENDBRANCH  12  15
ENDBRANCH   5  12
BRANCH   7  25
ATOM     25  O   UNL     1      36.444 -17.518 -22.080  0.00  0.00    -0.453 OA
BRANCH  25  27
ATOM     26  N   UNL     1      33.821 -16.776 -25.217  0.00  0.00    -0.239 NA
ATOM     27  C   UNL     1      35.571 -17.271 -23.124  0.00  0.00    +0.149 C 
ATOM     28  C   UNL     1      35.264 -15.968 -23.453  0.00  0.00    +0.061 C 
ATOM     29  C   UNL     1      35.027 -18.333 -23.815  0.00  0.00    +0.058 C 
ATOM     30  C   UNL     1      34.385 -15.773 -24.506  0.00  0.00    +0.137 C 
ATOM     31  C   UNL     1      34.158 -18.033 -24.852  0.00  0.00    +0.102 C 
BRANCH  30  34
ATOM     32  O   UNL     1      33.436 -14.230 -25.995  0.00  0.00    -0.268 OA
ATOM     33  N   UNL     1      34.313 -13.390 -24.021  0.00  0.00    -0.298 N 
ATOM     34  C   UNL     1      34.013 -14.428 -24.911  0.00  0.00    +0.264 C 
ATOM     35  C   UNL     1      33.987 -12.003 -24.270  0.00  0.00    +0.111 C 
ATOM     36  H   UNL     1      34.772 -13.616 -23.180  0.00  0.00    +0.150 HD
ENDBRANCH  30  34
ENDBRANCH  25  27
ENDBRANCH   7  25
TORSDOF 6
ENDMDL
MODEL 2
REMARK VINA RESULT:     -12.8      5.541     10.455
REMARK  Name = 11167118
REMARK  6 active torsions:
REMARK  status: ('A' for Active; 'I' for Inactive)
REMARK    1  A    between atoms: N_2  and  C_6
REMARK    2  A    between atoms: N_2  and  C_15
REMARK    3  A    between atoms: C_8  and  O_25
REMARK    4  A    between atoms: C_17  and  C_24
REMARK    5  A    between atoms: O_25  and  C_27
REMARK    6  A    between atoms: C_30  and  C_34
REMARK                            x       y       z     vdW  Elec       q    Type
REMARK                         _______ _______ _______ _____ _____    ______ ____
ROOT
ATOM      1  N   UNL     1      34.737 -19.291 -21.084  0.00  0.00    -0.302 N 
ATOM      2  N   UNL     1      36.773 -19.784 -20.343  0.00  0.00    -0.302 N 
ATOM      3  C   UNL     1      34.560 -20.296 -20.168  0.00  0.00    +0.063 C 
ATOM      4  C   UNL     1      35.846 -20.586 -19.720  0.00  0.00    +0.060 C 
ATOM      5  C   UNL     1      36.075 -19.020 -21.154  0.00  0.00    +0.225 C 
ATOM      6  C   UNL     1      33.420 -20.957 -19.706  0.00  0.00    +0.053 C 
ATOM      7  C   UNL     1      33.617 -21.954 -18.746  0.00  0.00    +0.147 C 
ATOM      8  C   UNL     1      36.025 -21.591 -18.755  0.00  0.00    +0.019 C 
ATOM      9  C   UNL     1      34.895 -22.267 -18.277  0.00  0.00    +0.039 C 
ATOM     10  H   UNL     1      34.026 -18.845 -21.599  0.00  0.00    +0.150 HD
ATOM     11  H   UNL     1      37.749 -19.781 -20.211  0.00  0.00    +0.150 HD
ENDROOT
BRANCH   5  12
ATOM     12  N   UNL     1      36.489 -18.052 -22.001  0.00  0.00    -0.303 N 
ATOM     13  H   UNL     1      37.465 -17.991 -22.114  0.00  0.00    +0.150 HD
BRANCH  12  15
ATOM     14 CL   UNL     1      33.366 -14.146 -25.180  0.00  0.00    -0.082 Cl
ATOM     15  C   UNL     1      35.738 -17.108 -22.757  0.00  0.00    +0.047 C 
ATOM     16  C   UNL     1      35.396 -15.891 -22.184  0.00  0.00    +0.019 C 
ATOM     17  C   UNL     1      34.661 -14.965 -22.925  0.00  0.00    +0.083 C 
ATOM     18  C   UNL     1      35.360 -17.418 -24.056  0.00  0.00    +0.015 C 
ATOM     19  C   UNL     1      34.275 -15.266 -24.232  0.00  0.00    +0.062 C 
ATOM     20  C   UNL     1      34.625 -16.492 -24.797  0.00  0.00    +0.013 C 
BRANCH  17  24
ATOM     21  F   UNL     1      34.840 -12.607 -22.945  0.00  0.00    -0.166 F 
ATOM     22  F   UNL     1      32.968 -13.457 -22.238  0.00  0.00    -0.166 F 
ATOM     23  F   UNL     1      34.762 -13.608 -21.009  0.00  0.00    -0.166 F 
ATOM     24  C   UNL     1      34.307 -13.662 -22.284  0.00  0.00    +0.419 C 
ENDBRANCH  17  24
ENDBRANCH  12  15
ENDBRANCH   5  12
BRANCH   7  25
ATOM     25  O   UNL     1      32.539 -22.633 -18.259  0.00  0.00    -0.453 OA
BRANCH  25  27
ATOM     26  N   UNL     1      32.276 -23.131 -14.142  0.00  0.00    -0.239 NA
ATOM     27  C   UNL     1      32.451 -22.799 -16.888  0.00  0.00    +0.149 C 
ATOM     28  C   UNL     1      33.539 -23.289 -16.197  0.00  0.00    +0.061 C 
ATOM     29  C   UNL     1      31.279 -22.470 -16.242  0.00  0.00    +0.058 C 
ATOM     30  C   UNL     1      33.401 -23.437 -14.826  0.00  0.00    +0.137 C 
ATOM     31  C   UNL     1      31.241 -22.655 -14.869  0.00  0.00    +0.102 C 
BRANCH  30  34
ATOM     32  O   UNL     1      35.384 -24.658 -14.549  0.00  0.00    -0.268 OA
ATOM     33  N   UNL     1      34.535 -23.584 -12.678  0.00  0.00    -0.298 N 
ATOM     34  C   UNL     1      34.504 -23.948 -14.030  0.00  0.00    +0.264 C 
ATOM     35  C   UNL     1      35.577 -23.993 -11.763  0.00  0.00    +0.111 C 
ATOM     36  H   UNL     1      33.807 -23.019 -12.331  0.00  0.00    +0.150 HD
ENDBRANCH  30  34
ENDBRANCH  25  27
ENDBRANCH   7  25
TORSDOF 6
ENDMDL
MODEL 3
REMARK VINA RESULT:     -12.6      1.282      1.874
REMARK  Name = 11167118
REMARK  6 active torsions:
REMARK  status: ('A' for Active; 'I' for Inactive)
REMARK    1  A    between atoms: N_2  and  C_6
REMARK    2  A    between atoms: N_2  and  C_15
REMARK    3  A    between atoms: C_8  and  O_25
REMARK    4  A    between atoms: C_17  and  C_24
REMARK    5  A    between atoms: O_25  and  C_27
REMARK    6  A    between atoms: C_30  and  C_34
REMARK                            x       y       z     vdW  Elec       q    Type
REMARK                         _______ _______ _______ _____ _____    ______ ____
ROOT
ATOM      1  N   UNL     1      35.247 -21.994 -18.478  0.00  0.00    -0.302 N 
ATOM      2  N   UNL     1      33.052 -21.878 -18.807  0.00  0.00    -0.302 N 
ATOM      3  C   UNL     1      35.074 -21.065 -19.471  0.00  0.00    +0.063 C 
ATOM      4  C   UNL     1      33.696 -21.011 -19.659  0.00  0.00    +0.060 C 
ATOM      5  C   UNL     1      34.011 -22.451 -18.113  0.00  0.00    +0.225 C 
ATOM      6  C   UNL     1      35.978 -20.291 -20.201  0.00  0.00    +0.053 C 
ATOM      7  C   UNL     1      35.437 -19.429 -21.160  0.00  0.00    +0.147 C 
ATOM      8  C   UNL     1      33.170 -20.139 -20.626  0.00  0.00    +0.019 C 
ATOM      9  C   UNL     1      34.058 -19.352 -21.370  0.00  0.00    +0.039 C 
ATOM     10  H   UNL     1      36.107 -22.281 -18.095  0.00  0.00    +0.150 HD
ATOM     11  H   UNL     1      32.083 -22.036 -18.731  0.00  0.00    +0.150 HD
ENDROOT
BRANCH   5  12
ATOM     12  N   UNL     1      33.935 -23.383 -17.138  0.00  0.00    -0.303 N 
ATOM     13  H   UNL     1      34.574 -24.127 -17.226  0.00  0.00    +0.150 HD
BRANCH  12  15
ATOM     14 CL   UNL     1      30.399 -23.724 -12.395  0.00  0.00    -0.082 Cl
ATOM     15  C   UNL     1      33.077 -23.461 -16.004  0.00  0.00    +0.047 C 
ATOM     16  C   UNL     1      31.733 -23.145 -16.139  0.00  0.00    +0.019 C 
ATOM     17  C   UNL     1      30.893 -23.222 -15.028  0.00  0.00    +0.083 C 
ATOM     18  C   UNL     1      33.599 -23.854 -14.779  0.00  0.00    +0.015 C 
ATOM     19  C   UNL     1      31.407 -23.615 -13.791  0.00  0.00    +0.062 C 
ATOM     20  C   UNL     1      32.760 -23.931 -13.667  0.00  0.00    +0.013 C 
BRANCH  17  24
ATOM     21  F   UNL     1      29.081 -21.823 -14.436  0.00  0.00    -0.166 F 
ATOM     22  F   UNL     1      29.150 -22.550 -16.484  0.00  0.00    -0.166 F 
ATOM     23  F   UNL     1      28.654 -23.918 -14.861  0.00  0.00    -0.166 F 
ATOM     24  C   UNL     1      29.450 -22.877 -15.203  0.00  0.00    +0.419 C 
ENDBRANCH  17  24
ENDBRANCH  12  15
ENDBRANCH   5  12
BRANCH   7  25
ATOM     25  O   UNL     1      36.273 -18.648 -21.903  0.00  0.00    -0.453 OA
BRANCH  25  27
ATOM     26  N   UNL     1      34.543 -15.897 -24.494  0.00  0.00    -0.239 NA
ATOM     27  C   UNL     1      35.697 -17.733 -22.766  0.00  0.00    +0.149 C 
ATOM     28  C   UNL     1      35.487 -16.439 -22.335  0.00  0.00    +0.061 C 
ATOM     29  C   UNL     1      35.346 -18.131 -24.037  0.00  0.00    +0.058 C 
ATOM     30  C   UNL     1      34.908 -15.560 -23.236  0.00  0.00    +0.137 C 
ATOM     31  C   UNL     1      34.772 -17.178 -24.863  0.00  0.00    +0.102 C 
BRANCH  30  34
ATOM     32  O   UNL     1      34.718 -13.833 -21.662  0.00  0.00    -0.268 OA
ATOM     33  N   UNL     1      34.369 -13.279 -23.885  0.00  0.00    -0.298 N 
ATOM     34  C   UNL     1      34.656 -14.181 -22.855  0.00  0.00    +0.264 C 
ATOM     35  C   UNL     1      34.117 -11.871 -23.670  0.00  0.00    +0.111 C 
ATOM     36  H   UNL     1      34.334 -13.621 -24.808  0.00  0.00    +0.150 HD
ENDBRANCH  30  34
ENDBRANCH  25  27
ENDBRANCH   7  25
TORSDOF 6
ENDMDL
MODEL 4
REMARK VINA RESULT:     -12.5      3.384      4.125
REMARK  Name = 11167118
REMARK  6 active torsions:
REMARK  status: ('A' for Active; 'I' for Inactive)
REMARK    1  A    between atoms: N_2  and  C_6
REMARK    2  A    between atoms: N_2  and  C_15
REMARK    3  A    between atoms: C_8  and  O_25
REMARK    4  A    between atoms: C_17  and  C_24
REMARK    5  A    between atoms: O_25  and  C_27
REMARK    6  A    between atoms: C_30  and  C_34
REMARK                            x       y       z     vdW  Elec       q    Type
REMARK                         _______ _______ _______ _____ _____    ______ ____
ROOT
ATOM      1  N   UNL     1      34.927 -22.475 -18.131  0.00  0.00    -0.302 N 
ATOM      2  N   UNL     1      32.737 -22.149 -18.322  0.00  0.00    -0.302 N 
ATOM      3  C   UNL     1      34.784 -21.500 -19.084  0.00  0.00    +0.063 C 
ATOM      4  C   UNL     1      33.408 -21.314 -19.185  0.00  0.00    +0.060 C 
ATOM      5  C   UNL     1      33.677 -22.831 -17.706  0.00  0.00    +0.225 C 
ATOM      6  C   UNL     1      35.712 -20.785 -19.844  0.00  0.00    +0.053 C 
ATOM      7  C   UNL     1      35.199 -19.844 -20.741  0.00  0.00    +0.147 C 
ATOM      8  C   UNL     1      32.910 -20.364 -20.092  0.00  0.00    +0.019 C 
ATOM      9  C   UNL     1      33.823 -19.635 -20.865  0.00  0.00    +0.039 C 
ATOM     10  H   UNL     1      35.778 -22.852 -17.811  0.00  0.00    +0.150 HD
ATOM     11  H   UNL     1      31.764 -22.221 -18.193  0.00  0.00    +0.150 HD
ENDROOT
BRANCH   5  12
ATOM     12  N   UNL     1      33.572 -23.786 -16.757  0.00  0.00    -0.303 N 
ATOM     13  H   UNL     1      33.049 -24.577 -17.023  0.00  0.00    +0.150 HD
BRANCH  12  15
ATOM     14 CL   UNL     1      35.712 -23.978 -11.234  0.00  0.00    -0.082 Cl
ATOM     15  C   UNL     1      34.095 -23.832 -15.434  0.00  0.00    +0.047 C 
ATOM     16  C   UNL     1      35.463 -23.710 -15.235  0.00  0.00    +0.019 C 
ATOM     17  C   UNL     1      35.976 -23.754 -13.938  0.00  0.00    +0.083 C 
ATOM     18  C   UNL     1      33.229 -23.997 -14.362  0.00  0.00    +0.015 C 
ATOM     19  C   UNL     1      35.115 -23.920 -12.852  0.00  0.00    +0.062 C 
ATOM     20  C   UNL     1      33.741 -24.042 -13.065  0.00  0.00    +0.013 C 
BRANCH  17  24
ATOM     21  F   UNL     1      38.001 -24.729 -13.202  0.00  0.00    -0.166 F 
ATOM     22  F   UNL     1      38.101 -23.405 -14.924  0.00  0.00    -0.166 F 
ATOM     23  F   UNL     1      37.749 -22.579 -12.938  0.00  0.00    -0.166 F 
ATOM     24  C   UNL     1      37.453 -23.620 -13.754  0.00  0.00    +0.419 C 
ENDBRANCH  17  24
ENDBRANCH  12  15
ENDBRANCH   5  12
BRANCH   7  25
ATOM     25  O   UNL     1      36.058 -19.116 -21.510  0.00  0.00    -0.453 OA
BRANCH  25  27
ATOM     26  N   UNL     1      34.529 -17.301 -24.921  0.00  0.00    -0.239 NA
ATOM     27  C   UNL     1      35.549 -18.512 -22.646  0.00  0.00    +0.149 C 
ATOM     28  C   UNL     1      35.417 -17.140 -22.678  0.00  0.00    +0.061 C 
ATOM     29  C   UNL     1      35.185 -19.294 -23.721  0.00  0.00    +0.058 C 
ATOM     30  C   UNL     1      34.902 -16.583 -23.838  0.00  0.00    +0.137 C 
ATOM     31  C   UNL     1      34.680 -18.641 -24.834  0.00  0.00    +0.102 C 
BRANCH  30  34
ATOM     32  O   UNL     1      35.271 -14.380 -23.125  0.00  0.00    -0.268 OA
ATOM     33  N   UNL     1      33.968 -14.672 -25.019  0.00  0.00    -0.298 N 
ATOM     34  C   UNL     1      34.733 -15.144 -23.947  0.00  0.00    +0.264 C 
ATOM     35  C   UNL     1      33.727 -13.270 -25.276  0.00  0.00    +0.111 C 
ATOM     36  H   UNL     1      33.570 -15.332 -25.633  0.00  0.00    +0.150 HD
ENDBRANCH  30  34
ENDBRANCH  25  27
ENDBRANCH   7  25
TORSDOF 6
ENDMDL
MODEL 5
REMARK VINA RESULT:     -12.5      5.650     10.311
REMARK  Name = 11167118
REMARK  6 active torsions:
REMARK  status: ('A' for Active; 'I' for Inactive)
REMARK    1  A    between atoms: N_2  and  C_6
REMARK    2  A    between atoms: N_2  and  C_15
REMARK    3  A    between atoms: C_8  and  O_25
REMARK    4  A    between atoms: C_17  and  C_24
REMARK    5  A    between atoms: O_25  and  C_27
REMARK    6  A    between atoms: C_30  and  C_34
REMARK                            x       y       z     vdW  Elec       q    Type
REMARK                         _______ _______ _______ _____ _____    ______ ____
ROOT
ATOM      1  N   UNL     1      36.298 -19.957 -20.250  0.00  0.00    -0.302 N 
ATOM      2  N   UNL     1      34.246 -19.552 -21.002  0.00  0.00    -0.302 N 
ATOM      3  C   UNL     1      35.474 -20.785 -19.531  0.00  0.00    +0.063 C 
ATOM      4  C   UNL     1      34.199 -20.513 -20.019  0.00  0.00    +0.060 C 
ATOM      5  C   UNL     1      35.519 -19.241 -21.115  0.00  0.00    +0.225 C 
ATOM      6  C   UNL     1      35.726 -21.720 -18.525  0.00  0.00    +0.053 C 
ATOM      7  C   UNL     1      34.621 -22.400 -18.006  0.00  0.00    +0.147 C 
ATOM      8  C   UNL     1      33.099 -21.205 -19.485  0.00  0.00    +0.019 C 
ATOM      9  C   UNL     1      33.329 -22.149 -18.475  0.00  0.00    +0.039 C 
ATOM     10  H   UNL     1      37.276 -19.892 -20.158  0.00  0.00    +0.150 HD
ATOM     11  H   UNL     1      33.491 -19.178 -21.512  0.00  0.00    +0.150 HD
ENDROOT
BRANCH   5  12
ATOM     12  N   UNL     1      36.122 -18.353 -21.934  0.00  0.00    -0.303 N 
ATOM     13  H   UNL     1      37.098 -18.457 -22.011  0.00  0.00    +0.150 HD
BRANCH  12  15
ATOM     14 CL   UNL     1      33.835 -13.948 -25.172  0.00  0.00    -0.082 Cl
ATOM     15  C   UNL     1      35.572 -17.289 -22.704  0.00  0.00    +0.047 C 
ATOM     16  C   UNL     1      35.267 -16.084 -22.086  0.00  0.00    +0.019 C 
ATOM     17  C   UNL     1      34.728 -15.041 -22.841  0.00  0.00    +0.083 C 
ATOM     18  C   UNL     1      35.348 -17.472 -24.061  0.00  0.00    +0.015 C 
ATOM     19  C   UNL     1      34.499 -15.215 -24.206  0.00  0.00    +0.062 C 
ATOM     20  C   UNL     1      34.809 -16.430 -24.816  0.00  0.00    +0.013 C 
BRANCH  17  24
ATOM     21  F   UNL     1      34.939 -12.686 -22.793  0.00  0.00    -0.166 F 
ATOM     22  F   UNL     1      33.077 -13.534 -22.058  0.00  0.00    -0.166 F 
ATOM     23  F   UNL     1      34.903 -13.746 -20.887  0.00  0.00    -0.166 F 
ATOM     24  C   UNL     1      34.410 -13.755 -22.149  0.00  0.00    +0.419 C 
ENDBRANCH  17  24
ENDBRANCH  12  15
ENDBRANCH   5  12
BRANCH   7  25
ATOM     25  O   UNL     1      34.807 -23.325 -17.021  0.00  0.00    -0.453 OA
BRANCH  25  27
ATOM     26  N   UNL     1      31.958 -23.527 -14.003  0.00  0.00    -0.239 NA
ATOM     27  C   UNL     1      33.859 -23.392 -16.016  0.00  0.00    +0.149 C 
ATOM     28  C   UNL     1      32.525 -23.491 -16.353  0.00  0.00    +0.061 C 
ATOM     29  C   UNL     1      34.267 -23.360 -14.700  0.00  0.00    +0.058 C 
ATOM     30  C   UNL     1      31.615 -23.555 -15.311  0.00  0.00    +0.137 C 
ATOM     31  C   UNL     1      33.279 -23.429 -13.731  0.00  0.00    +0.102 C 
BRANCH  30  34
ATOM     32  O   UNL     1      29.507 -24.548 -15.047  0.00  0.00    -0.268 OA
ATOM     33  N   UNL     1      29.640 -22.711 -16.455  0.00  0.00    -0.298 N 
ATOM     34  C   UNL     1      30.192 -23.660 -15.586  0.00  0.00    +0.264 C 
ATOM     35  C   UNL     1      28.239 -22.670 -16.809  0.00  0.00    +0.111 C 
ATOM     36  H   UNL     1      30.239 -22.035 -16.847  0.00  0.00    +0.150 HD
ENDBRANCH  30  34
ENDBRANCH  25  27
ENDBRANCH   7  25
TORSDOF 6
ENDMDL
MODEL 6
REMARK VINA RESULT:     -12.5      5.127     10.125
REMARK  Name = 11167118
REMARK  6 active torsions:
REMARK  status: ('A' for Active; 'I' for Inactive)
REMARK    1  A    between atoms: N_2  and  C_6
REMARK    2  A    between atoms: N_2  and  C_15
REMARK    3  A    between atoms: C_8  and  O_25
REMARK    4  A    between atoms: C_17  and  C_24
REMARK    5  A    between atoms: O_25  and  C_27
REMARK    6  A    between atoms: C_30  and  C_34
REMARK                            x       y       z     vdW  Elec       q    Type
REMARK                         _______ _______ _______ _____ _____    ______ ____
ROOT
ATOM      1  N   UNL     1      35.347 -15.248 -22.903  0.00  0.00    -0.302 N 
ATOM      2  N   UNL     1      34.440 -15.997 -24.789  0.00  0.00    -0.302 N 
ATOM      3  C   UNL     1      35.343 -16.614 -22.790  0.00  0.00    +0.063 C 
ATOM      4  C   UNL     1      34.771 -17.058 -23.979  0.00  0.00    +0.060 C 
ATOM      5  C   UNL     1      34.798 -14.927 -24.113  0.00  0.00    +0.225 C 
ATOM      6  C   UNL     1      35.776 -17.475 -21.779  0.00  0.00    +0.053 C 
ATOM      7  C   UNL     1      35.613 -18.845 -22.007  0.00  0.00    +0.147 C 
ATOM      8  C   UNL     1      34.615 -18.438 -24.191  0.00  0.00    +0.019 C 
ATOM      9  C   UNL     1      35.043 -19.320 -23.190  0.00  0.00    +0.039 C 
ATOM     10  H   UNL     1      35.685 -14.612 -22.232  0.00  0.00    +0.150 HD
ATOM     11  H   UNL     1      34.024 -16.029 -25.681  0.00  0.00    +0.150 HD
ENDROOT
BRANCH   5  12
ATOM     12  N   UNL     1      34.699 -13.621 -24.446  0.00  0.00    -0.303 N 
ATOM     13  H   UNL     1      35.155 -13.371 -25.282  0.00  0.00    +0.150 HD
BRANCH  12  15
ATOM     14 CL   UNL     1      31.976  -9.130 -21.700  0.00  0.00    -0.082 Cl
ATOM     15  C   UNL     1      34.041 -12.549 -23.779  0.00  0.00    +0.047 C 
ATOM     16  C   UNL     1      33.330 -12.801 -22.615  0.00  0.00    +0.019 C 
ATOM     17  C   UNL     1      32.686 -11.749 -21.961  0.00  0.00    +0.083 C 
ATOM     18  C   UNL     1      34.122 -11.266 -24.304  0.00  0.00    +0.015 C 
ATOM     19  C   UNL     1      32.759 -10.456 -22.481  0.00  0.00    +0.062 C 
ATOM     20  C   UNL     1      33.477 -10.215 -23.652  0.00  0.00    +0.013 C 
BRANCH  17  24
ATOM     21  F   UNL     1      32.516 -11.509 -19.615  0.00  0.00    -0.166 F 
ATOM     22  F   UNL     1      30.660 -11.572 -20.746  0.00  0.00    -0.166 F 
ATOM     23  F   UNL     1      31.844 -13.386 -20.499  0.00  0.00    -0.166 F 
ATOM     24  C   UNL     1      31.928 -12.050 -20.709  0.00  0.00    +0.419 C 
ENDBRANCH  17  24
ENDBRANCH  12  15
ENDBRANCH   5  12
BRANCH   7  25
ATOM     25  O   UNL     1      36.018 -19.732 -21.054  0.00  0.00    -0.453 OA
BRANCH  25  27
ATOM     26  N   UNL     1      33.083 -21.539 -18.732  0.00  0.00    -0.239 NA
ATOM     27  C   UNL     1      35.041 -20.334 -20.281  0.00  0.00    +0.149 C 
ATOM     28  C   UNL     1      35.415 -21.183 -19.261  0.00  0.00    +0.061 C 
ATOM     29  C   UNL     1      33.714 -20.071 -20.546  0.00  0.00    +0.058 C 
ATOM     30  C   UNL     1      34.400 -21.760 -18.516  0.00  0.00    +0.137 C 
ATOM     31  C   UNL     1      32.773 -20.698 -19.744  0.00  0.00    +0.102 C 
BRANCH  30  34
ATOM     32  O   UNL     1      34.077 -23.723 -17.275  0.00  0.00    -0.268 OA
ATOM     33  N   UNL     1      35.774 -22.304 -16.583  0.00  0.00    -0.298 N 
ATOM     34  C   UNL     1      34.716 -22.666 -17.425  0.00  0.00    +0.264 C 
ATOM     35  C   UNL     1      36.222 -23.109 -15.469  0.00  0.00    +0.111 C 
ATOM     36  H   UNL     1      36.237 -21.452 -16.758  0.00  0.00    +0.150 HD
ENDBRANCH  30  34
ENDBRANCH  25  27
ENDBRANCH   7  25
TORSDOF 6
ENDMDL
MODEL 7
REMARK VINA RESULT:     -12.5      1.677      2.120
REMARK  Name = 11167118
REMARK  6 active torsions:
REMARK  status: ('A' for Active; 'I' for Inactive)
REMARK    1  A    between atoms: N_2  and  C_6
REMARK    2  A    between atoms: N_2  and  C_15
REMARK    3  A    between atoms: C_8  and  O_25
REMARK    4  A    between atoms: C_17  and  C_24
REMARK    5  A    between atoms: O_25  and  C_27
REMARK    6  A    between atoms: C_30  and  C_34
REMARK                            x       y       z     vdW  Elec       q    Type
REMARK                         _______ _______ _______ _____ _____    ______ ____
ROOT
ATOM      1  N   UNL     1      33.382 -20.464 -20.519  0.00  0.00    -0.302 N 
ATOM      2  N   UNL     1      35.053 -21.091 -19.196  0.00  0.00    -0.302 N 
ATOM      3  C   UNL     1      34.495 -19.831 -21.010  0.00  0.00    +0.063 C 
ATOM      4  C   UNL     1      35.525 -20.239 -20.167  0.00  0.00    +0.060 C 
ATOM      5  C   UNL     1      33.765 -21.204 -19.436  0.00  0.00    +0.225 C 
ATOM      6  C   UNL     1      34.684 -18.964 -22.088  0.00  0.00    +0.053 C 
ATOM      7  C   UNL     1      35.986 -18.501 -22.301  0.00  0.00    +0.147 C 
ATOM      8  C   UNL     1      36.827 -19.764 -20.396  0.00  0.00    +0.019 C 
ATOM      9  C   UNL     1      37.040 -18.892 -21.472  0.00  0.00    +0.039 C 
ATOM     10  H   UNL     1      32.469 -20.396 -20.882  0.00  0.00    +0.150 HD
ATOM     11  H   UNL     1      35.567 -21.523 -18.476  0.00  0.00    +0.150 HD
ENDROOT
BRANCH   5  12
ATOM     12  N   UNL     1      32.824 -21.920 -18.784  0.00  0.00    -0.303 N 
ATOM     13  H   UNL     1      31.986 -22.053 -19.283  0.00  0.00    +0.150 HD
BRANCH  12  15
ATOM     14 CL   UNL     1      32.975 -24.398 -13.403  0.00  0.00    -0.082 Cl
ATOM     15  C   UNL     1      32.850 -22.513 -17.490  0.00  0.00    +0.047 C 
ATOM     16  C   UNL     1      31.679 -22.593 -16.749  0.00  0.00    +0.019 C 
ATOM     17  C   UNL     1      31.705 -23.175 -15.482  0.00  0.00    +0.083 C 
ATOM     18  C   UNL     1      34.047 -23.004 -16.987  0.00  0.00    +0.015 C 
ATOM     19  C   UNL     1      32.903 -23.671 -14.966  0.00  0.00    +0.062 C 
ATOM     20  C   UNL     1      34.074 -23.585 -15.719  0.00  0.00    +0.013 C 
BRANCH  17  24
ATOM     21  F   UNL     1      29.424 -22.572 -15.316  0.00  0.00    -0.166 F 
ATOM     22  F   UNL     1      29.997 -24.522 -14.544  0.00  0.00    -0.166 F 
ATOM     23  F   UNL     1      30.578 -22.716 -13.471  0.00  0.00    -0.166 F 
ATOM     24  C   UNL     1      30.429 -23.248 -14.708  0.00  0.00    +0.419 C 
ENDBRANCH  17  24
ENDBRANCH  12  15
ENDBRANCH   5  12
BRANCH   7  25
ATOM     25  O   UNL     1      36.230 -17.650 -23.339  0.00  0.00    -0.453 OA
BRANCH  25  27
ATOM     26  N   UNL     1      33.735 -14.353 -23.755  0.00  0.00    -0.239 NA
ATOM     27  C   UNL     1      35.400 -16.553 -23.478  0.00  0.00    +0.149 C 
ATOM     28  C   UNL     1      35.150 -15.753 -22.382  0.00  0.00    +0.061 C 
ATOM     29  C   UNL     1      34.840 -16.280 -24.707  0.00  0.00    +0.058 C 
ATOM     30  C   UNL     1      34.311 -14.667 -22.572  0.00  0.00    +0.137 C 
ATOM     31  C   UNL     1      34.015 -15.171 -24.795  0.00  0.00    +0.102 C 
BRANCH  30  34
ATOM     32  O   UNL     1      34.819 -13.605 -20.545  0.00  0.00    -0.268 OA
ATOM     33  N   UNL     1      32.764 -13.124 -21.502  0.00  0.00    -0.298 N 
ATOM     34  C   UNL     1      34.000 -13.779 -21.465  0.00  0.00    +0.264 C 
ATOM     35  C   UNL     1      32.320 -12.194 -20.488  0.00  0.00    +0.111 C 
ATOM     36  H   UNL     1      32.162 -13.307 -22.260  0.00  0.00    +0.150 HD
ENDBRANCH  30  34
ENDBRANCH  25  27
ENDBRANCH   7  25
TORSDOF 6
ENDMDL
MODEL 8
REMARK VINA RESULT:     -12.3      2.534      3.189
REMARK  Name = 11167118
REMARK  6 active torsions:
REMARK  status: ('A' for Active; 'I' for Inactive)
REMARK    1  A    between atoms: N_2  and  C_6
REMARK    2  A    between atoms: N_2  and  C_15
REMARK    3  A    between atoms: C_8  and  O_25
REMARK    4  A    between atoms: C_17  and  C_24
REMARK    5  A    between atoms: O_25  and  C_27
REMARK    6  A    between atoms: C_30  and  C_34
REMARK                            x       y       z     vdW  Elec       q    Type
REMARK                         _______ _______ _______ _____ _____    ______ ____
ROOT
ATOM      1  N   UNL     1      33.500 -20.577 -20.420  0.00  0.00    -0.302 N 
ATOM      2  N   UNL     1      35.314 -21.225 -19.312  0.00  0.00    -0.302 N 
ATOM      3  C   UNL     1      34.523 -19.810 -20.914  0.00  0.00    +0.063 C 
ATOM      4  C   UNL     1      35.645 -20.234 -20.206  0.00  0.00    +0.060 C 
ATOM      5  C   UNL     1      34.021 -21.406 -19.466  0.00  0.00    +0.225 C 
ATOM      6  C   UNL     1      34.565 -18.813 -21.890  0.00  0.00    +0.053 C 
ATOM      7  C   UNL     1      35.811 -18.232 -22.144  0.00  0.00    +0.147 C 
ATOM      8  C   UNL     1      36.889 -19.638 -20.474  0.00  0.00    +0.019 C 
ATOM      9  C   UNL     1      36.954 -18.635 -21.450  0.00  0.00    +0.039 C 
ATOM     10  H   UNL     1      32.557 -20.537 -20.703  0.00  0.00    +0.150 HD
ATOM     11  H   UNL     1      35.914 -21.697 -18.690  0.00  0.00    +0.150 HD
ENDROOT
BRANCH   5  12
ATOM     12  N   UNL     1      33.186 -22.261 -18.836  0.00  0.00    -0.303 N 
ATOM     13  H   UNL     1      32.553 -22.731 -19.426  0.00  0.00    +0.150 HD
BRANCH  12  15
ATOM     14 CL   UNL     1      32.690 -23.627 -13.091  0.00  0.00    -0.082 Cl
ATOM     15  C   UNL     1      33.077 -22.592 -17.456  0.00  0.00    +0.047 C 
ATOM     16  C   UNL     1      34.204 -23.006 -16.760  0.00  0.00    +0.019 C 
ATOM     17  C   UNL     1      34.096 -23.330 -15.407  0.00  0.00    +0.083 C 
ATOM     18  C   UNL     1      31.844 -22.495 -16.826  0.00  0.00    +0.015 C 
ATOM     19  C   UNL     1      32.861 -23.236 -14.764  0.00  0.00    +0.062 C 
ATOM     20  C   UNL     1      31.735 -22.819 -15.473  0.00  0.00    +0.013 C 
BRANCH  17  24
ATOM     21  F   UNL     1      35.684 -22.903 -13.707  0.00  0.00    -0.166 F 
ATOM     22  F   UNL     1      35.170 -24.980 -14.090  0.00  0.00    -0.166 F 
ATOM     23  F   UNL     1      36.379 -23.877 -15.530  0.00  0.00    -0.166 F 
ATOM     24  C   UNL     1      35.327 -23.772 -14.683  0.00  0.00    +0.419 C 
ENDBRANCH  17  24
ENDBRANCH  12  15
ENDBRANCH   5  12
BRANCH   7  25
ATOM     25  O   UNL     1      35.911 -17.252 -23.087  0.00  0.00    -0.453 OA
BRANCH  25  27
ATOM     26  N   UNL     1      34.193 -13.567 -22.226  0.00  0.00    -0.239 NA
ATOM     27  C   UNL     1      35.339 -16.025 -22.800  0.00  0.00    +0.149 C 
ATOM     28  C   UNL     1      34.974 -15.192 -23.837  0.00  0.00    +0.061 C 
ATOM     29  C   UNL     1      35.145 -15.661 -21.485  0.00  0.00    +0.058 C 
ATOM     30  C   UNL     1      34.405 -13.975 -23.498  0.00  0.00    +0.137 C 
ATOM     31  C   UNL     1      34.569 -14.423 -21.250  0.00  0.00    +0.102 C 
BRANCH  30  34
ATOM     32  O   UNL     1      34.000 -11.818 -24.322  0.00  0.00    -0.268 OA
ATOM     33  N   UNL     1      33.626 -13.589 -25.770  0.00  0.00    -0.298 N 
ATOM     34  C   UNL     1      33.995 -13.044 -24.535  0.00  0.00    +0.264 C 
ATOM     35  C   UNL     1      33.217 -12.793 -26.906  0.00  0.00    +0.111 C 
ATOM     36  H   UNL     1      33.645 -14.568 -25.871  0.00  0.00    +0.150 HD
ENDBRANCH  30  34
ENDBRANCH  25  27
ENDBRANCH   7  25
TORSDOF 6
ENDMDL
MODEL 9
REMARK VINA RESULT:     -12.2      2.730      3.272
REMARK  Name = 11167118
REMARK  6 active torsions:
REMARK  status: ('A' for Active; 'I' for Inactive)
REMARK    1  A    between atoms: N_2  and  C_6
REMARK    2  A    between atoms: N_2  and  C_15
REMARK    3  A    between atoms: C_8  and  O_25
REMARK    4  A    between atoms: C_17  and  C_24
REMARK    5  A    between atoms: O_25  and  C_27
REMARK    6  A    between atoms: C_30  and  C_34
REMARK                            x       y       z     vdW  Elec       q    Type
REMARK                         _______ _______ _______ _____ _____    ______ ____
ROOT
ATOM      1  N   UNL     1      33.444 -20.488 -20.549  0.00  0.00    -0.302 N 
ATOM      2  N   UNL     1      35.131 -21.074 -19.226  0.00  0.00    -0.302 N 
ATOM      3  C   UNL     1      34.542 -19.831 -21.043  0.00  0.00    +0.063 C 
ATOM      4  C   UNL     1      35.582 -20.214 -20.199  0.00  0.00    +0.060 C 
ATOM      5  C   UNL     1      33.846 -21.217 -19.465  0.00  0.00    +0.225 C 
ATOM      6  C   UNL     1      34.711 -18.962 -22.122  0.00  0.00    +0.053 C 
ATOM      7  C   UNL     1      36.002 -18.470 -22.338  0.00  0.00    +0.147 C 
ATOM      8  C   UNL     1      36.873 -19.709 -20.431  0.00  0.00    +0.019 C 
ATOM      9  C   UNL     1      37.065 -18.836 -21.509  0.00  0.00    +0.039 C 
ATOM     10  H   UNL     1      32.530 -20.442 -20.912  0.00  0.00    +0.150 HD
ATOM     11  H   UNL     1      35.655 -21.493 -18.505  0.00  0.00    +0.150 HD
ENDROOT
BRANCH   5  12
ATOM     12  N   UNL     1      32.921 -21.953 -18.810  0.00  0.00    -0.303 N 
ATOM     13  H   UNL     1      32.119 -22.173 -19.337  0.00  0.00    +0.150 HD
BRANCH  12  15
ATOM     14 CL   UNL     1      32.883 -24.064 -13.273  0.00  0.00    -0.082 Cl
ATOM     15  C   UNL     1      32.922 -22.462 -17.481  0.00  0.00    +0.047 C 
ATOM     16  C   UNL     1      34.119 -22.852 -16.898  0.00  0.00    +0.019 C 
ATOM     17  C   UNL     1      34.120 -23.350 -15.595  0.00  0.00    +0.083 C 
ATOM     18  C   UNL     1      31.724 -22.560 -16.786  0.00  0.00    +0.015 C 
ATOM     19  C   UNL     1      32.922 -23.453 -14.887  0.00  0.00    +0.062 C 
ATOM     20  C   UNL     1      31.724 -23.058 -15.483  0.00  0.00    +0.013 C 
BRANCH  17  24
ATOM     21  F   UNL     1      36.472 -23.480 -15.804  0.00  0.00    -0.166 F 
ATOM     22  F   UNL     1      35.667 -23.139 -13.814  0.00  0.00    -0.166 F 
ATOM     23  F   UNL     1      35.451 -25.094 -14.752  0.00  0.00    -0.166 F 
ATOM     24  C   UNL     1      35.424 -23.761 -14.993  0.00  0.00    +0.419 C 
ENDBRANCH  17  24
ENDBRANCH  12  15
ENDBRANCH   5  12
BRANCH   7  25
ATOM     25  O   UNL     1      36.226 -17.617 -23.378  0.00  0.00    -0.453 OA
BRANCH  25  27
ATOM     26  N   UNL     1      33.703 -14.336 -23.754  0.00  0.00    -0.239 NA
ATOM     27  C   UNL     1      35.386 -16.525 -23.503  0.00  0.00    +0.149 C 
ATOM     28  C   UNL     1      35.144 -15.729 -22.403  0.00  0.00    +0.061 C 
ATOM     29  C   UNL     1      34.809 -16.254 -24.725  0.00  0.00    +0.058 C 
ATOM     30  C   UNL     1      34.296 -14.648 -22.580  0.00  0.00    +0.137 C 
ATOM     31  C   UNL     1      33.975 -15.149 -24.799  0.00  0.00    +0.102 C 
BRANCH  30  34
ATOM     32  O   UNL     1      34.824 -13.584 -20.558  0.00  0.00    -0.268 OA
ATOM     33  N   UNL     1      32.751 -13.121 -21.485  0.00  0.00    -0.298 N 
ATOM     34  C   UNL     1      33.994 -13.764 -21.467  0.00  0.00    +0.264 C 
ATOM     35  C   UNL     1      32.313 -12.196 -20.463  0.00  0.00    +0.111 C 
ATOM     36  H   UNL     1      32.140 -13.309 -22.234  0.00  0.00    +0.150 HD
ENDBRANCH  30  34
ENDBRANCH  25  27
ENDBRANCH   7  25
TORSDOF 6
ENDMDL
