MODEL 1
REMARK VINA RESULT:     -11.9      0.000      0.000
REMARK  Name = 448942
REMARK  8 active torsions:
REMARK  status: ('A' for Active; 'I' for Inactive)
REMARK    1  A    between atoms: C_2  and  C_20
REMARK    2  A    between atoms: C_3  and  C_6
REMARK    3  A    between atoms: C_7  and  C_13
REMARK    4  A    between atoms: N_19  and  C_22
REMARK    5  A    between atoms: C_22  and  C_23
REMARK    6  A    between atoms: C_22  and  C_29
REMARK    7  A    between atoms: C_29  and  C_31
REMARK    8  A    between atoms: C_31  and  O_32
REMARK                            x       y       z     vdW  Elec       q    Type
REMARK                         _______ _______ _______ _____ _____    ______ ____
ROOT
ATOM      1  S   UNL     1      32.262 -23.583 -15.844  0.00  0.00    -0.082 S 
ATOM      2  C   UNL     1      33.949 -23.580 -15.702  0.00  0.00    +0.083 C 
ATOM      3  C   UNL     1      33.665 -22.287 -17.563  0.00  0.00    +0.007 C 
ATOM      4  C   UNL     1      34.595 -22.871 -16.653  0.00  0.00    +0.012 C 
ATOM      5  C   UNL     1      32.363 -22.595 -17.240  0.00  0.00    +0.036 C 
ENDROOT
BRANCH   3   6
ATOM      6  C   UNL     1      33.968 -21.466 -18.704  0.00  0.00    +0.001 C 
ATOM      7  C   UNL     1      34.553 -19.873 -20.916  0.00  0.00    +0.000 C 
ATOM      8  C   UNL     1      35.291 -21.292 -19.105  0.00  0.00    +0.000 C 
ATOM      9  C   UNL     1      32.936 -20.845 -19.407  0.00  0.00    +0.000 C 
ATOM     10  C   UNL     1      35.585 -20.495 -20.211  0.00  0.00    +0.000 C 
ATOM     11  C   UNL     1      33.230 -20.047 -20.513  0.00  0.00    +0.000 C 
BRANCH   7  13
ATOM     12  N   UNL     1      35.445 -17.443 -24.276  0.00  0.00    -0.242 NA
ATOM     13  C   UNL     1      34.858 -19.045 -22.062  0.00  0.00    +0.003 C 
ATOM     14  C   UNL     1      35.820 -18.046 -21.965  0.00  0.00    +0.021 C 
ATOM     15  C   UNL     1      34.188 -19.243 -23.265  0.00  0.00    +0.021 C 
ATOM     16  C   UNL     1      36.075 -17.279 -23.091  0.00  0.00    +0.099 C 
ATOM     17  C   UNL     1      34.515 -18.423 -24.332  0.00  0.00    +0.099 C 
ENDBRANCH   7  13
ENDBRANCH   3   6
BRANCH   2  20
ATOM     18  O   UNL     1      33.871 -25.030 -13.831  0.00  0.00    -0.270 OA
ATOM     19  N   UNL     1      35.917 -24.167 -14.418  0.00  0.00    -0.298 N 
ATOM     20  C   UNL     1      34.544 -24.327 -14.587  0.00  0.00    +0.252 C 
ATOM     21  H   UNL     1      36.411 -23.594 -15.048  0.00  0.00    +0.150 HD
BRANCH  19  22
ATOM     22  C   UNL     1      36.640 -24.814 -13.345  0.00  0.00    +0.105 C 
BRANCH  22  23
ATOM     23  C   UNL     1      37.932 -25.409 -13.871  0.00  0.00    -0.004 C 
ATOM     24  C   UNL     1      39.137 -24.940 -13.380  0.00  0.00    -0.003 C 
ATOM     25  C   UNL     1      37.874 -26.404 -14.829  0.00  0.00    -0.003 C 
ATOM     26  C   UNL     1      40.325 -25.487 -13.864  0.00  0.00    -0.000 C 
ATOM     27  C   UNL     1      39.062 -26.950 -15.313  0.00  0.00    -0.000 C 
ATOM     28  C   UNL     1      40.288 -26.490 -14.831  0.00  0.00    -0.000 C 
ENDBRANCH  22  23
BRANCH  22  29
ATOM     29  C   UNL     1      36.844 -23.836 -12.175  0.00  0.00    +0.133 C 
BRANCH  29  31
ATOM     30  O   UNL     1      36.521 -24.053  -9.768  0.00  0.00    -0.250 OA
ATOM     31  C   UNL     1      36.130 -24.258 -10.908  0.00  0.00    +0.316 C 
BRANCH  31  32
ATOM     32  O   UNL     1      34.983 -24.933 -11.186  0.00  0.00    -0.480 OA
ATOM     33  H   UNL     1      34.158 -24.587 -10.910  0.00  0.00    +0.295 HD
ENDBRANCH  31  32
ENDBRANCH  29  31
ENDBRANCH  22  29
ENDBRANCH  19  22
ENDBRANCH   2  20
TORSDOF 8
ENDMDL
MODEL 2
REMARK VINA RESULT:     -11.9      0.063      1.490
REMARK  Name = 448942
REMARK  8 active torsions:
REMARK  status: ('A' for Active; 'I' for Inactive)
REMARK    1  A    between atoms: C_2  and  C_20
REMARK    2  A    between atoms: C_3  and  C_6
REMARK    3  A    between atoms: C_7  and  C_13
REMARK    4  A    between atoms: N_19  and  C_22
REMARK    5  A    between atoms: C_22  and  C_23
REMARK    6  A    between atoms: C_22  and  C_29
REMARK    7  A    between atoms: C_29  and  C_31
REMARK    8  A    between atoms: C_31  and  O_32
REMARK                            x       y       z     vdW  Elec       q    Type
REMARK                         _______ _______ _______ _____ _____    ______ ____
ROOT
ATOM      1  S   UNL     1      32.276 -23.635 -15.872  0.00  0.00    -0.082 S 
ATOM      2  C   UNL     1      33.960 -23.594 -15.706  0.00  0.00    +0.083 C 
ATOM      3  C   UNL     1      33.674 -22.303 -17.567  0.00  0.00    +0.007 C 
ATOM      4  C   UNL     1      34.603 -22.867 -16.646  0.00  0.00    +0.012 C 
ATOM      5  C   UNL     1      32.375 -22.641 -17.264  0.00  0.00    +0.036 C 
ENDROOT
BRANCH   3   6
ATOM      6  C   UNL     1      33.974 -21.472 -18.702  0.00  0.00    +0.001 C 
ATOM      7  C   UNL     1      34.558 -19.862 -20.902  0.00  0.00    +0.000 C 
ATOM      8  C   UNL     1      32.943 -20.849 -19.401  0.00  0.00    +0.000 C 
ATOM      9  C   UNL     1      35.299 -21.291 -19.100  0.00  0.00    +0.000 C 
ATOM     10  C   UNL     1      33.234 -20.044 -20.502  0.00  0.00    +0.000 C 
ATOM     11  C   UNL     1      35.590 -20.486 -20.202  0.00  0.00    +0.000 C 
BRANCH   7  13
ATOM     12  N   UNL     1      35.446 -17.419 -24.254  0.00  0.00    -0.242 NA
ATOM     13  C   UNL     1      34.860 -19.028 -22.044  0.00  0.00    +0.003 C 
ATOM     14  C   UNL     1      34.299 -19.314 -23.284  0.00  0.00    +0.021 C 
ATOM     15  C   UNL     1      35.714 -17.939 -21.909  0.00  0.00    +0.021 C 
ATOM     16  C   UNL     1      34.620 -18.486 -24.348  0.00  0.00    +0.099 C 
ATOM     17  C   UNL     1      35.973 -17.173 -23.033  0.00  0.00    +0.099 C 
ENDBRANCH   7  13
ENDBRANCH   3   6
BRANCH   2  20
ATOM     18  O   UNL     1      33.880 -25.000 -13.801  0.00  0.00    -0.270 OA
ATOM     19  N   UNL     1      35.935 -24.200 -14.441  0.00  0.00    -0.298 N 
ATOM     20  C   UNL     1      34.557 -24.330 -14.584  0.00  0.00    +0.252 C 
ATOM     21  H   UNL     1      36.432 -23.654 -15.093  0.00  0.00    +0.150 HD
BRANCH  19  22
ATOM     22  C   UNL     1      36.661 -24.841 -13.366  0.00  0.00    +0.105 C 
BRANCH  22  23
ATOM     23  C   UNL     1      37.951 -25.441 -13.893  0.00  0.00    -0.004 C 
ATOM     24  C   UNL     1      37.887 -26.426 -14.861  0.00  0.00    -0.003 C 
ATOM     25  C   UNL     1      39.157 -24.990 -13.391  0.00  0.00    -0.003 C 
ATOM     26  C   UNL     1      39.072 -26.979 -15.346  0.00  0.00    -0.000 C 
ATOM     27  C   UNL     1      40.342 -25.543 -13.874  0.00  0.00    -0.000 C 
ATOM     28  C   UNL     1      40.300 -26.538 -14.851  0.00  0.00    -0.000 C 
ENDBRANCH  22  23
BRANCH  22  29
ATOM     29  C   UNL     1      36.871 -23.854 -12.204  0.00  0.00    +0.133 C 
BRANCH  29  31
ATOM     30  O   UNL     1      36.528 -24.025  -9.796  0.00  0.00    -0.250 OA
ATOM     31  C   UNL     1      36.151 -24.260 -10.935  0.00  0.00    +0.316 C 
BRANCH  31  32
ATOM     32  O   UNL     1      35.018 -24.959 -11.209  0.00  0.00    -0.480 OA
ATOM     33  H   UNL     1      34.749 -25.085 -12.097  0.00  0.00    +0.295 HD
ENDBRANCH  31  32
ENDBRANCH  29  31
ENDBRANCH  22  29
ENDBRANCH  19  22
ENDBRANCH   2  20
TORSDOF 8
ENDMDL
MODEL 3
REMARK VINA RESULT:     -10.6      2.677      4.352
REMARK  Name = 448942
REMARK  8 active torsions:
REMARK  status: ('A' for Active; 'I' for Inactive)
REMARK    1  A    between atoms: C_2  and  C_20
REMARK    2  A    between atoms: C_3  and  C_6
REMARK    3  A    between atoms: C_7  and  C_13
REMARK    4  A    between atoms: N_19  and  C_22
REMARK    5  A    between atoms: C_22  and  C_23
REMARK    6  A    between atoms: C_22  and  C_29
REMARK    7  A    between atoms: C_29  and  C_31
REMARK    8  A    between atoms: C_31  and  O_32
REMARK                            x       y       z     vdW  Elec       q    Type
REMARK                         _______ _______ _______ _____ _____    ______ ____
ROOT
ATOM      1  S   UNL     1      37.350 -22.425 -16.330  0.00  0.00    -0.082 S 
ATOM      2  C   UNL     1      35.672 -22.624 -16.427  0.00  0.00    +0.083 C 
ATOM      3  C   UNL     1      36.060 -21.303 -18.248  0.00  0.00    +0.007 C 
ATOM      4  C   UNL     1      35.088 -21.995 -17.470  0.00  0.00    +0.012 C 
ATOM      5  C   UNL     1      37.331 -21.452 -17.740  0.00  0.00    +0.036 C 
ENDROOT
BRANCH   3   6
ATOM      6  C   UNL     1      35.826 -20.521 -19.432  0.00  0.00    +0.001 C 
ATOM      7  C   UNL     1      35.371 -19.004 -21.727  0.00  0.00    +0.000 C 
ATOM      8  C   UNL     1      36.881 -19.839 -20.035  0.00  0.00    +0.000 C 
ATOM      9  C   UNL     1      34.543 -20.446 -19.974  0.00  0.00    +0.000 C 
ATOM     10  C   UNL     1      36.654 -19.079 -21.183  0.00  0.00    +0.000 C 
ATOM     11  C   UNL     1      34.316 -19.686 -21.122  0.00  0.00    +0.000 C 
BRANCH   7  13
ATOM     12  N   UNL     1      34.677 -16.689 -25.213  0.00  0.00    -0.242 NA
ATOM     13  C   UNL     1      35.135 -18.215 -22.916  0.00  0.00    +0.003 C 
ATOM     14  C   UNL     1      35.619 -16.915 -22.997  0.00  0.00    +0.021 C 
ATOM     15  C   UNL     1      34.421 -18.754 -23.981  0.00  0.00    +0.021 C 
ATOM     16  C   UNL     1      35.366 -16.199 -24.157  0.00  0.00    +0.099 C 
ATOM     17  C   UNL     1      34.221 -17.957 -25.096  0.00  0.00    +0.099 C 
ENDBRANCH   7  13
ENDBRANCH   3   6
BRANCH   2  20
ATOM     18  O   UNL     1      35.084 -24.673 -15.392  0.00  0.00    -0.270 OA
ATOM     19  N   UNL     1      34.291 -22.739 -14.440  0.00  0.00    -0.298 N 
ATOM     20  C   UNL     1      35.018 -23.442 -15.397  0.00  0.00    +0.252 C 
ATOM     21  H   UNL     1      34.269 -21.755 -14.487  0.00  0.00    +0.150 HD
BRANCH  19  22
ATOM     22  C   UNL     1      33.567 -23.407 -13.381  0.00  0.00    +0.105 C 
BRANCH  22  23
ATOM     23  C   UNL     1      32.168 -23.761 -13.847  0.00  0.00    -0.004 C 
ATOM     24  C   UNL     1      31.354 -22.762 -14.349  0.00  0.00    -0.003 C 
ATOM     25  C   UNL     1      31.741 -25.072 -13.760  0.00  0.00    -0.003 C 
ATOM     26  C   UNL     1      30.068 -23.087 -14.779  0.00  0.00    -0.000 C 
ATOM     27  C   UNL     1      30.455 -25.398 -14.188  0.00  0.00    -0.000 C 
ATOM     28  C   UNL     1      29.618 -24.405 -14.697  0.00  0.00    -0.000 C 
ENDBRANCH  22  23
BRANCH  22  29
ATOM     29  C   UNL     1      34.370 -24.615 -12.868  0.00  0.00    +0.133 C 
BRANCH  29  31
ATOM     30  O   UNL     1      35.431 -24.915 -10.693  0.00  0.00    -0.250 OA
ATOM     31  C   UNL     1      35.305 -24.273 -11.727  0.00  0.00    +0.316 C 
BRANCH  31  32
ATOM     32  O   UNL     1      35.991 -23.126 -11.973  0.00  0.00    -0.480 OA
ATOM     33  H   UNL     1      36.021 -22.450 -11.326  0.00  0.00    +0.295 HD
ENDBRANCH  31  32
ENDBRANCH  29  31
ENDBRANCH  22  29
ENDBRANCH  19  22
ENDBRANCH   2  20
TORSDOF 8
ENDMDL
MODEL 4
REMARK VINA RESULT:     -10.4      2.091      3.555
REMARK  Name = 448942
REMARK  8 active torsions:
REMARK  status: ('A' for Active; 'I' for Inactive)
REMARK    1  A    between atoms: C_2  and  C_20
REMARK    2  A    between atoms: C_3  and  C_6
REMARK    3  A    between atoms: C_7  and  C_13
REMARK    4  A    between atoms: N_19  and  C_22
REMARK    5  A    between atoms: C_22  and  C_23
REMARK    6  A    between atoms: C_22  and  C_29
REMARK    7  A    between atoms: C_29  and  C_31
REMARK    8  A    between atoms: C_31  and  O_32
REMARK                            x       y       z     vdW  Elec       q    Type
REMARK                         _______ _______ _______ _____ _____    ______ ____
ROOT
ATOM      1  S   UNL     1      34.765 -23.360 -16.603  0.00  0.00    -0.082 S 
ATOM      2  C   UNL     1      36.266 -22.585 -16.493  0.00  0.00    +0.083 C 
ATOM      3  C   UNL     1      35.397 -21.590 -18.355  0.00  0.00    +0.007 C 
ATOM      4  C   UNL     1      36.503 -21.672 -17.461  0.00  0.00    +0.012 C 
ATOM      5  C   UNL     1      34.384 -22.454 -18.006  0.00  0.00    +0.036 C 
ENDROOT
BRANCH   3   6
ATOM      6  C   UNL     1      35.275 -20.737 -19.507  0.00  0.00    +0.001 C 
ATOM      7  C   UNL     1      35.036 -19.082 -21.738  0.00  0.00    +0.000 C 
ATOM      8  C   UNL     1      36.412 -20.163 -20.071  0.00  0.00    +0.000 C 
ATOM      9  C   UNL     1      34.017 -20.485 -20.055  0.00  0.00    +0.000 C 
ATOM     10  C   UNL     1      36.293 -19.334 -21.187  0.00  0.00    +0.000 C 
ATOM     11  C   UNL     1      33.899 -19.657 -21.171  0.00  0.00    +0.000 C 
BRANCH   7  13
ATOM     12  N   UNL     1      34.676 -16.562 -25.130  0.00  0.00    -0.242 NA
ATOM     13  C   UNL     1      34.913 -18.222 -22.894  0.00  0.00    +0.003 C 
ATOM     14  C   UNL     1      34.200 -18.650 -24.008  0.00  0.00    +0.021 C 
ATOM     15  C   UNL     1      35.507 -16.965 -22.897  0.00  0.00    +0.021 C 
ATOM     16  C   UNL     1      34.112 -17.790 -25.092  0.00  0.00    +0.099 C 
ATOM     17  C   UNL     1      35.361 -16.181 -24.029  0.00  0.00    +0.099 C 
ENDBRANCH   7  13
ENDBRANCH   3   6
BRANCH   2  20
ATOM     18  O   UNL     1      37.945 -22.168 -14.875  0.00  0.00    -0.270 OA
ATOM     19  N   UNL     1      37.065 -24.288 -14.967  0.00  0.00    -0.298 N 
ATOM     20  C   UNL     1      37.153 -22.963 -15.385  0.00  0.00    +0.252 C 
ATOM     21  H   UNL     1      36.416 -24.884 -15.406  0.00  0.00    +0.150 HD
BRANCH  19  22
ATOM     22  C   UNL     1      37.896 -24.816 -13.907  0.00  0.00    +0.105 C 
BRANCH  22  23
ATOM     23  C   UNL     1      37.306 -24.464 -12.555  0.00  0.00    -0.004 C 
ATOM     24  C   UNL     1      36.121 -25.060 -12.164  0.00  0.00    -0.003 C 
ATOM     25  C   UNL     1      37.965 -23.556 -11.749  0.00  0.00    -0.003 C 
ATOM     26  C   UNL     1      35.577 -24.736 -10.921  0.00  0.00    -0.000 C 
ATOM     27  C   UNL     1      37.422 -23.231 -10.506  0.00  0.00    -0.000 C 
ATOM     28  C   UNL     1      36.227 -23.821 -10.093  0.00  0.00    -0.000 C 
ENDBRANCH  22  23
BRANCH  22  29
ATOM     29  C   UNL     1      38.118 -26.325 -14.108  0.00  0.00    +0.133 C 
BRANCH  29  31
ATOM     30  O   UNL     1      36.513 -26.884 -15.857  0.00  0.00    -0.250 OA
ATOM     31  C   UNL     1      37.671 -26.822 -15.467  0.00  0.00    +0.316 C 
BRANCH  31  32
ATOM     32  O   UNL     1      38.728 -27.229 -16.220  0.00  0.00    -0.480 OA
ATOM     33  H   UNL     1      38.796 -28.124 -16.485  0.00  0.00    +0.295 HD
ENDBRANCH  31  32
ENDBRANCH  29  31
ENDBRANCH  22  29
ENDBRANCH  19  22
ENDBRANCH   2  20
TORSDOF 8
ENDMDL
MODEL 5
REMARK VINA RESULT:     -10.1      9.702     15.605
REMARK  Name = 448942
REMARK  8 active torsions:
REMARK  status: ('A' for Active; 'I' for Inactive)
REMARK    1  A    between atoms: C_2  and  C_20
REMARK    2  A    between atoms: C_3  and  C_6
REMARK    3  A    between atoms: C_7  and  C_13
REMARK    4  A    between atoms: N_19  and  C_22
REMARK    5  A    between atoms: C_22  and  C_23
REMARK    6  A    between atoms: C_22  and  C_29
REMARK    7  A    between atoms: C_29  and  C_31
REMARK    8  A    between atoms: C_31  and  O_32
REMARK                            x       y       z     vdW  Elec       q    Type
REMARK                         _______ _______ _______ _____ _____    ______ ____
ROOT
ATOM      1  S   UNL     1      33.827 -10.974 -25.342  0.00  0.00    -0.082 S 
ATOM      2  C   UNL     1      33.682 -10.589 -23.700  0.00  0.00    +0.083 C 
ATOM      3  C   UNL     1      34.285 -12.788 -23.580  0.00  0.00    +0.007 C 
ATOM      4  C   UNL     1      33.943 -11.610 -22.855  0.00  0.00    +0.012 C 
ATOM      5  C   UNL     1      34.260 -12.583 -24.941  0.00  0.00    +0.036 C 
ENDROOT
BRANCH   3   6
ATOM      6  C   UNL     1      34.625 -14.075 -23.035  0.00  0.00    +0.001 C 
ATOM      7  C   UNL     1      35.286 -16.569 -21.979  0.00  0.00    +0.000 C 
ATOM      8  C   UNL     1      34.586 -14.279 -21.657  0.00  0.00    +0.000 C 
ATOM      9  C   UNL     1      34.994 -15.115 -23.886  0.00  0.00    +0.000 C 
ATOM     10  C   UNL     1      34.917 -15.526 -21.128  0.00  0.00    +0.000 C 
ATOM     11  C   UNL     1      35.325 -16.363 -23.357  0.00  0.00    +0.000 C 
BRANCH   7  13
ATOM     12  N   UNL     1      36.295 -20.360 -20.367  0.00  0.00    -0.242 NA
ATOM     13  C   UNL     1      35.631 -17.862 -21.430  0.00  0.00    +0.003 C 
ATOM     14  C   UNL     1      34.638 -18.807 -21.195  0.00  0.00    +0.021 C 
ATOM     15  C   UNL     1      36.955 -18.165 -21.134  0.00  0.00    +0.021 C 
ATOM     16  C   UNL     1      35.019 -20.030 -20.668  0.00  0.00    +0.099 C 
ATOM     17  C   UNL     1      37.232 -19.416 -20.609  0.00  0.00    +0.099 C 
ENDBRANCH   7  13
ENDBRANCH   3   6
BRANCH   2  20
ATOM     18  O   UNL     1      32.184  -8.757 -23.611  0.00  0.00    -0.270 OA
ATOM     19  N   UNL     1      34.282  -8.453 -22.728  0.00  0.00    -0.298 N 
ATOM     20  C   UNL     1      33.297  -9.216 -23.349  0.00  0.00    +0.252 C 
ATOM     21  H   UNL     1      35.156  -8.866 -22.540  0.00  0.00    +0.150 HD
BRANCH  19  22
ATOM     22  C   UNL     1      34.063  -7.074 -22.350  0.00  0.00    +0.105 C 
BRANCH  22  23
ATOM     23  C   UNL     1      34.110  -6.183 -23.577  0.00  0.00    -0.004 C 
ATOM     24  C   UNL     1      33.036  -5.356 -23.848  0.00  0.00    -0.003 C 
ATOM     25  C   UNL     1      35.225  -6.221 -24.393  0.00  0.00    -0.003 C 
ATOM     26  C   UNL     1      33.079  -4.537 -24.976  0.00  0.00    -0.000 C 
ATOM     27  C   UNL     1      35.268  -5.403 -25.521  0.00  0.00    -0.000 C 
ATOM     28  C   UNL     1      34.194  -4.561 -25.813  0.00  0.00    -0.000 C 
ENDBRANCH  22  23
BRANCH  22  29
ATOM     29  C   UNL     1      32.758  -6.944 -21.545  0.00  0.00    +0.133 C 
BRANCH  29  31
ATOM     30  O   UNL     1      32.272  -8.312 -19.585  0.00  0.00    -0.250 OA
ATOM     31  C   UNL     1      32.894  -7.396 -20.106  0.00  0.00    +0.316 C 
BRANCH  31  32
ATOM     32  O   UNL     1      33.792  -6.634 -19.428  0.00  0.00    -0.480 OA
ATOM     33  H   UNL     1      34.259  -5.955 -19.872  0.00  0.00    +0.295 HD
ENDBRANCH  31  32
ENDBRANCH  29  31
ENDBRANCH  22  29
ENDBRANCH  19  22
ENDBRANCH   2  20
TORSDOF 8
ENDMDL
MODEL 6
REMARK VINA RESULT:     -10.0      3.125      5.187
REMARK  Name = 448942
REMARK  8 active torsions:
REMARK  status: ('A' for Active; 'I' for Inactive)
REMARK    1  A    between atoms: C_2  and  C_20
REMARK    2  A    between atoms: C_3  and  C_6
REMARK    3  A    between atoms: C_7  and  C_13
REMARK    4  A    between atoms: N_19  and  C_22
REMARK    5  A    between atoms: C_22  and  C_23
REMARK    6  A    between atoms: C_22  and  C_29
REMARK    7  A    between atoms: C_29  and  C_31
REMARK    8  A    between atoms: C_31  and  O_32
REMARK                            x       y       z     vdW  Elec       q    Type
REMARK                         _______ _______ _______ _____ _____    ______ ____
ROOT
ATOM      1  S   UNL     1      37.090 -20.914 -19.626  0.00  0.00    -0.082 S 
ATOM      2  C   UNL     1      35.403 -21.046 -19.563  0.00  0.00    +0.083 C 
ATOM      3  C   UNL     1      35.647 -19.183 -20.861  0.00  0.00    +0.007 C 
ATOM      4  C   UNL     1      34.736 -20.089 -20.243  0.00  0.00    +0.012 C 
ATOM      5  C   UNL     1      36.958 -19.515 -20.605  0.00  0.00    +0.036 C 
ENDROOT
BRANCH   3   6
ATOM      6  C   UNL     1      35.319 -18.038 -21.666  0.00  0.00    +0.001 C 
ATOM      7  C   UNL     1      34.685 -15.816 -23.227  0.00  0.00    +0.000 C 
ATOM      8  C   UNL     1      34.985 -18.204 -23.009  0.00  0.00    +0.000 C 
ATOM      9  C   UNL     1      35.337 -16.763 -21.102  0.00  0.00    +0.000 C 
ATOM     10  C   UNL     1      34.668 -17.093 -23.791  0.00  0.00    +0.000 C 
ATOM     11  C   UNL     1      35.020 -15.652 -21.883  0.00  0.00    +0.000 C 
BRANCH   7  13
ATOM     12  N   UNL     1      33.723 -12.437 -25.602  0.00  0.00    -0.242 NA
ATOM     13  C   UNL     1      34.357 -14.664 -24.037  0.00  0.00    +0.003 C 
ATOM     14  C   UNL     1      34.616 -13.383 -23.565  0.00  0.00    +0.021 C 
ATOM     15  C   UNL     1      33.781 -14.833 -25.292  0.00  0.00    +0.021 C 
ATOM     16  C   UNL     1      34.284 -12.311 -24.378  0.00  0.00    +0.099 C 
ATOM     17  C   UNL     1      33.485 -13.698 -26.028  0.00  0.00    +0.099 C 
ENDBRANCH   7  13
ENDBRANCH   3   6
BRANCH   2  20
ATOM     18  O   UNL     1      34.191 -23.068 -19.330  0.00  0.00    -0.270 OA
ATOM     19  N   UNL     1      35.030 -22.109 -17.419  0.00  0.00    -0.298 N 
ATOM     20  C   UNL     1      34.831 -22.160 -18.795  0.00  0.00    +0.252 C 
ATOM     21  H   UNL     1      35.548 -21.363 -17.039  0.00  0.00    +0.150 HD
BRANCH  19  22
ATOM     22  C   UNL     1      34.500 -23.118 -16.527  0.00  0.00    +0.105 C 
BRANCH  22  23
ATOM     23  C   UNL     1      35.595 -23.636 -15.615  0.00  0.00    -0.004 C 
ATOM     24  C   UNL     1      35.294 -24.627 -14.699  0.00  0.00    -0.003 C 
ATOM     25  C   UNL     1      36.867 -23.105 -15.721  0.00  0.00    -0.003 C 
ATOM     26  C   UNL     1      36.300 -25.104 -13.860  0.00  0.00    -0.000 C 
ATOM     27  C   UNL     1      37.873 -23.581 -14.882  0.00  0.00    -0.000 C 
ATOM     28  C   UNL     1      37.590 -24.580 -13.950  0.00  0.00    -0.000 C 
ENDBRANCH  22  23
BRANCH  22  29
ATOM     29  C   UNL     1      33.277 -22.570 -15.772  0.00  0.00    +0.133 C 
BRANCH  29  31
ATOM     30  O   UNL     1      31.117 -23.652 -16.106  0.00  0.00    -0.250 OA
ATOM     31  C   UNL     1      31.964 -22.849 -16.473  0.00  0.00    +0.316 C 
BRANCH  31  32
ATOM     32  O   UNL     1      31.837 -22.106 -17.604  0.00  0.00    -0.480 OA
ATOM     33  H   UNL     1      32.551 -22.046 -18.207  0.00  0.00    +0.295 HD
ENDBRANCH  31  32
ENDBRANCH  29  31
ENDBRANCH  22  29
ENDBRANCH  19  22
ENDBRANCH   2  20
TORSDOF 8
ENDMDL
MODEL 7
REMARK VINA RESULT:      -9.9      5.535     12.065
REMARK  Name = 448942
REMARK  8 active torsions:
REMARK  status: ('A' for Active; 'I' for Inactive)
REMARK    1  A    between atoms: C_2  and  C_20
REMARK    2  A    between atoms: C_3  and  C_6
REMARK    3  A    between atoms: C_7  and  C_13
REMARK    4  A    between atoms: N_19  and  C_22
REMARK    5  A    between atoms: C_22  and  C_23
REMARK    6  A    between atoms: C_22  and  C_29
REMARK    7  A    between atoms: C_29  and  C_31
REMARK    8  A    between atoms: C_31  and  O_32
REMARK                            x       y       z     vdW  Elec       q    Type
REMARK                         _______ _______ _______ _____ _____    ______ ____
ROOT
ATOM      1  S   UNL     1      35.061 -18.294 -24.192  0.00  0.00    -0.082 S 
ATOM      2  C   UNL     1      35.155 -17.140 -22.958  0.00  0.00    +0.083 C 
ATOM      3  C   UNL     1      34.932 -19.060 -21.743  0.00  0.00    +0.007 C 
ATOM      4  C   UNL     1      35.078 -17.643 -21.706  0.00  0.00    +0.012 C 
ATOM      5  C   UNL     1      34.908 -19.544 -23.031  0.00  0.00    +0.036 C 
ENDROOT
BRANCH   3   6
ATOM      6  C   UNL     1      34.817 -19.949 -20.618  0.00  0.00    +0.001 C 
ATOM      7  C   UNL     1      34.592 -21.674 -18.439  0.00  0.00    +0.000 C 
ATOM      8  C   UNL     1      35.965 -20.426 -19.987  0.00  0.00    +0.000 C 
ATOM      9  C   UNL     1      33.556 -20.333 -20.162  0.00  0.00    +0.000 C 
ATOM     10  C   UNL     1      35.853 -21.289 -18.897  0.00  0.00    +0.000 C 
ATOM     11  C   UNL     1      33.445 -21.196 -19.072  0.00  0.00    +0.000 C 
BRANCH   7  13
ATOM     12  N   UNL     1      34.250 -24.299 -15.126  0.00  0.00    -0.242 NA
ATOM     13  C   UNL     1      34.476 -22.569 -17.310  0.00  0.00    +0.003 C 
ATOM     14  C   UNL     1      33.272 -23.215 -17.052  0.00  0.00    +0.021 C 
ATOM     15  C   UNL     1      35.567 -22.788 -16.476  0.00  0.00    +0.021 C 
ATOM     16  C   UNL     1      33.211 -24.062 -15.958  0.00  0.00    +0.099 C 
ATOM     17  C   UNL     1      35.404 -23.654 -15.407  0.00  0.00    +0.099 C 
ENDBRANCH   7  13
ENDBRANCH   3   6
BRANCH   2  20
ATOM     18  O   UNL     1      36.257 -15.336 -24.028  0.00  0.00    -0.270 OA
ATOM     19  N   UNL     1      34.332 -14.864 -22.868  0.00  0.00    -0.298 N 
ATOM     20  C   UNL     1      35.309 -15.732 -23.346  0.00  0.00    +0.252 C 
ATOM     21  H   UNL     1      33.595 -15.228 -22.327  0.00  0.00    +0.150 HD
BRANCH  19  22
ATOM     22  C   UNL     1      34.365 -13.443 -23.141  0.00  0.00    +0.105 C 
BRANCH  22  23
ATOM     23  C   UNL     1      33.938 -13.176 -24.571  0.00  0.00    -0.004 C 
ATOM     24  C   UNL     1      34.182 -11.933 -25.124  0.00  0.00    -0.003 C 
ATOM     25  C   UNL     1      33.314 -14.181 -25.286  0.00  0.00    -0.003 C 
ATOM     26  C   UNL     1      33.789 -11.686 -26.439  0.00  0.00    -0.000 C 
ATOM     27  C   UNL     1      32.921 -13.935 -26.601  0.00  0.00    -0.000 C 
ATOM     28  C   UNL     1      33.157 -12.687 -27.177  0.00  0.00    -0.000 C 
ENDBRANCH  22  23
BRANCH  22  29
ATOM     29  C   UNL     1      33.531 -12.682 -22.096  0.00  0.00    +0.133 C 
BRANCH  29  31
ATOM     30  O   UNL     1      34.009 -14.173 -20.227  0.00  0.00    -0.250 OA
ATOM     31  C   UNL     1      33.209 -13.507 -20.868  0.00  0.00    +0.316 C 
BRANCH  31  32
ATOM     32  O   UNL     1      31.886 -13.444 -20.560  0.00  0.00    -0.480 OA
ATOM     33  H   UNL     1      31.252 -13.816 -21.140  0.00  0.00    +0.295 HD
ENDBRANCH  31  32
ENDBRANCH  29  31
ENDBRANCH  22  29
ENDBRANCH  19  22
ENDBRANCH   2  20
TORSDOF 8
ENDMDL
MODEL 8
REMARK VINA RESULT:      -9.9      6.805     12.555
REMARK  Name = 448942
REMARK  8 active torsions:
REMARK  status: ('A' for Active; 'I' for Inactive)
REMARK    1  A    between atoms: C_2  and  C_20
REMARK    2  A    between atoms: C_3  and  C_6
REMARK    3  A    between atoms: C_7  and  C_13
REMARK    4  A    between atoms: N_19  and  C_22
REMARK    5  A    between atoms: C_22  and  C_23
REMARK    6  A    between atoms: C_22  and  C_29
REMARK    7  A    between atoms: C_29  and  C_31
REMARK    8  A    between atoms: C_31  and  O_32
REMARK                            x       y       z     vdW  Elec       q    Type
REMARK                         _______ _______ _______ _____ _____    ______ ____
ROOT
ATOM      1  S   UNL     1      34.959 -18.100 -24.904  0.00  0.00    -0.082 S 
ATOM      2  C   UNL     1      34.628 -16.911 -23.746  0.00  0.00    +0.083 C 
ATOM      3  C   UNL     1      35.139 -18.691 -22.410  0.00  0.00    +0.007 C 
ATOM      4  C   UNL     1      34.751 -17.321 -22.464  0.00  0.00    +0.012 C 
ATOM      5  C   UNL     1      35.287 -19.236 -23.665  0.00  0.00    +0.036 C 
ENDROOT
BRANCH   3   6
ATOM      6  C   UNL     1      35.369 -19.481 -21.230  0.00  0.00    +0.001 C 
ATOM      7  C   UNL     1      35.816 -21.011 -18.943  0.00  0.00    +0.000 C 
ATOM      8  C   UNL     1      34.312 -20.165 -20.634  0.00  0.00    +0.000 C 
ATOM      9  C   UNL     1      36.650 -19.560 -20.685  0.00  0.00    +0.000 C 
ATOM     10  C   UNL     1      34.534 -20.930 -19.489  0.00  0.00    +0.000 C 
ATOM     11  C   UNL     1      36.873 -20.325 -19.540  0.00  0.00    +0.000 C 
BRANCH   7  13
ATOM     12  N   UNL     1      36.494 -23.337 -15.462  0.00  0.00    -0.242 NA
ATOM     13  C   UNL     1      36.046 -21.803 -17.755  0.00  0.00    +0.003 C 
ATOM     14  C   UNL     1      37.316 -21.863 -17.193  0.00  0.00    +0.021 C 
ATOM     15  C   UNL     1      35.000 -22.510 -17.172  0.00  0.00    +0.021 C 
ATOM     16  C   UNL     1      37.487 -22.637 -16.056  0.00  0.00    +0.099 C 
ATOM     17  C   UNL     1      35.273 -23.255 -16.037  0.00  0.00    +0.099 C 
ENDBRANCH   7  13
ENDBRANCH   3   6
BRANCH   2  20
ATOM     18  O   UNL     1      34.295 -15.264 -25.415  0.00  0.00    -0.270 OA
ATOM     19  N   UNL     1      33.860 -14.670 -23.239  0.00  0.00    -0.298 N 
ATOM     20  C   UNL     1      34.248 -15.575 -24.223  0.00  0.00    +0.252 C 
ATOM     21  H   UNL     1      33.840 -14.967 -22.301  0.00  0.00    +0.150 HD
BRANCH  19  22
ATOM     22  C   UNL     1      33.488 -13.307 -23.551  0.00  0.00    +0.105 C 
BRANCH  22  23
ATOM     23  C   UNL     1      32.916 -12.628 -22.322  0.00  0.00    -0.004 C 
ATOM     24  C   UNL     1      32.466 -11.325 -22.423  0.00  0.00    -0.003 C 
ATOM     25  C   UNL     1      32.861 -13.327 -21.131  0.00  0.00    -0.003 C 
ATOM     26  C   UNL     1      31.940 -10.699 -21.292  0.00  0.00    -0.000 C 
ATOM     27  C   UNL     1      32.336 -12.702 -20.001  0.00  0.00    -0.000 C 
ATOM     28  C   UNL     1      31.877 -11.387 -20.081  0.00  0.00    -0.000 C 
ENDBRANCH  22  23
BRANCH  22  29
ATOM     29  C   UNL     1      34.680 -12.558 -24.171  0.00  0.00    +0.133 C 
BRANCH  29  31
ATOM     30  O   UNL     1      34.349 -10.436 -25.326  0.00  0.00    -0.250 OA
ATOM     31  C   UNL     1      34.290 -11.658 -25.324  0.00  0.00    +0.316 C 
BRANCH  31  32
ATOM     32  O   UNL     1      33.829 -12.378 -26.382  0.00  0.00    -0.480 OA
ATOM     33  H   UNL     1      33.572 -13.270 -26.264  0.00  0.00    +0.295 HD
ENDBRANCH  31  32
ENDBRANCH  29  31
ENDBRANCH  22  29
ENDBRANCH  19  22
ENDBRANCH   2  20
TORSDOF 8
ENDMDL
MODEL 9
REMARK VINA RESULT:      -9.7     11.116     17.255
REMARK  Name = 448942
REMARK  8 active torsions:
REMARK  status: ('A' for Active; 'I' for Inactive)
REMARK    1  A    between atoms: C_2  and  C_20
REMARK    2  A    between atoms: C_3  and  C_6
REMARK    3  A    between atoms: C_7  and  C_13
REMARK    4  A    between atoms: N_19  and  C_22
REMARK    5  A    between atoms: C_22  and  C_23
REMARK    6  A    between atoms: C_22  and  C_29
REMARK    7  A    between atoms: C_29  and  C_31
REMARK    8  A    between atoms: C_31  and  O_32
REMARK                            x       y       z     vdW  Elec       q    Type
REMARK                         _______ _______ _______ _____ _____    ______ ____
ROOT
ATOM      1  S   UNL     1      32.289  -8.825 -22.783  0.00  0.00    -0.082 S 
ATOM      2  C   UNL     1      33.889  -8.684 -23.315  0.00  0.00    +0.083 C 
ATOM      3  C   UNL     1      33.651 -10.954 -23.247  0.00  0.00    +0.007 C 
ATOM      4  C   UNL     1      34.519  -9.860 -23.530  0.00  0.00    +0.012 C 
ATOM      5  C   UNL     1      32.408 -10.533 -22.830  0.00  0.00    +0.036 C 
ENDROOT
BRANCH   3   6
ATOM      6  C   UNL     1      33.958 -12.355 -23.355  0.00  0.00    +0.001 C 
ATOM      7  C   UNL     1      34.552 -15.071 -23.564  0.00  0.00    +0.000 C 
ATOM      8  C   UNL     1      33.794 -13.011 -24.574  0.00  0.00    +0.000 C 
ATOM      9  C   UNL     1      34.418 -13.054 -22.240  0.00  0.00    +0.000 C 
ATOM     10  C   UNL     1      34.090 -14.370 -24.679  0.00  0.00    +0.000 C 
ATOM     11  C   UNL     1      34.715 -14.413 -22.345  0.00  0.00    +0.000 C 
BRANCH   7  13
ATOM     12  N   UNL     1      35.448 -19.204 -23.880  0.00  0.00    -0.242 NA
ATOM     13  C   UNL     1      34.858 -16.480 -23.672  0.00  0.00    +0.003 C 
ATOM     14  C   UNL     1      34.194 -17.268 -24.605  0.00  0.00    +0.021 C 
ATOM     15  C   UNL     1      35.817 -17.053 -22.843  0.00  0.00    +0.021 C 
ATOM     16  C   UNL     1      34.522 -18.613 -24.669  0.00  0.00    +0.099 C 
ATOM     17  C   UNL     1      36.072 -18.406 -22.985  0.00  0.00    +0.099 C 
ENDBRANCH   7  13
ENDBRANCH   3   6
BRANCH   2  20
ATOM     18  O   UNL     1      35.620  -7.067 -23.272  0.00  0.00    -0.270 OA
ATOM     19  N   UNL     1      33.525  -6.361 -23.895  0.00  0.00    -0.298 N 
ATOM     20  C   UNL     1      34.437  -7.332 -23.492  0.00  0.00    +0.252 C 
ATOM     21  H   UNL     1      32.590  -6.623 -24.057  0.00  0.00    +0.150 HD
BRANCH  19  22
ATOM     22  C   UNL     1      33.908  -4.978 -24.081  0.00  0.00    +0.105 C 
BRANCH  22  23
ATOM     23  C   UNL     1      34.297  -4.734 -25.526  0.00  0.00    -0.004 C 
ATOM     24  C   UNL     1      35.563  -5.095 -25.950  0.00  0.00    -0.003 C 
ATOM     25  C   UNL     1      33.379  -4.158 -26.383  0.00  0.00    -0.003 C 
ATOM     26  C   UNL     1      35.922  -4.871 -27.280  0.00  0.00    -0.000 C 
ATOM     27  C   UNL     1      33.738  -3.934 -27.712  0.00  0.00    -0.000 C 
ATOM     28  C   UNL     1      35.010  -4.289 -28.160  0.00  0.00    -0.000 C 
ENDBRANCH  22  23
BRANCH  22  29
ATOM     29  C   UNL     1      32.792  -4.045 -23.578  0.00  0.00    +0.133 C 
BRANCH  29  31
ATOM     30  O   UNL     1      30.808  -5.055 -22.583  0.00  0.00    -0.250 OA
ATOM     31  C   UNL     1      31.957  -4.651 -22.470  0.00  0.00    +0.316 C 
BRANCH  31  32
ATOM     32  O   UNL     1      32.636  -4.674 -21.292  0.00  0.00    -0.480 OA
ATOM     33  H   UNL     1      33.208  -3.968 -21.068  0.00  0.00    +0.295 HD
ENDBRANCH  31  32
ENDBRANCH  29  31
ENDBRANCH  22  29
ENDBRANCH  19  22
ENDBRANCH   2  20
TORSDOF 8
ENDMDL
