MODEL 1
REMARK VINA RESULT:     -12.8      0.000      0.000
REMARK  Name = 446399
REMARK  4 active torsions:
REMARK  status: ('A' for Active; 'I' for Inactive)
REMARK    1  A    between atoms: N_3  and  S_21
REMARK    2  A    between atoms: C_4  and  C_10
REMARK    3  A    between atoms: N_9  and  C_16
REMARK    4  A    between atoms: S_21  and  C_25
REMARK                            x       y       z     vdW  Elec       q    Type
REMARK                         _______ _______ _______ _____ _____    ______ ____
ROOT
ATOM      1  O   UNL     1      33.563 -13.738 -25.938  0.00  0.00    -0.275 OA
ATOM      2  N   UNL     1      34.042 -14.961 -24.022  0.00  0.00    -0.277 N 
ATOM      3  N   UNL     1      35.288 -17.313 -23.017  0.00  0.00    -0.152 NA
ATOM      4  C   UNL     1      33.868 -13.781 -24.743  0.00  0.00    +0.225 C 
ATOM      5  C   UNL     1      34.405 -15.048 -22.603  0.00  0.00    +0.113 C 
ATOM      6  C   UNL     1      33.792 -16.253 -24.663  0.00  0.00    +0.113 C 
ATOM      7  C   UNL     1      35.593 -15.985 -22.405  0.00  0.00    +0.117 C 
ATOM      8  C   UNL     1      34.979 -17.192 -24.474  0.00  0.00    +0.117 C 
ENDROOT
BRANCH   4  10
ATOM      9  N   UNL     1      33.328  -9.767 -23.403  0.00  0.00    -0.307 N 
ATOM     10  C   UNL     1      34.077 -12.493 -23.988  0.00  0.00    +0.080 C 
ATOM     11  C   UNL     1      32.822 -12.167 -23.182  0.00  0.00    +0.031 C 
ATOM     12  C   UNL     1      34.382 -11.357 -24.961  0.00  0.00    +0.031 C 
ATOM     13  C   UNL     1      32.952 -10.826 -22.460  0.00  0.00    +0.091 C 
ATOM     14  C   UNL     1      34.514 -10.022 -24.232  0.00  0.00    +0.091 C 
BRANCH   9  16
ATOM     15  N   UNL     1      32.435  -5.747 -22.475  0.00  0.00    -0.242 NA
ATOM     16  C   UNL     1      33.032  -8.433 -23.095  0.00  0.00    +0.051 C 
ATOM     17  C   UNL     1      31.725  -8.039 -22.771  0.00  0.00    +0.035 C 
ATOM     18  C   UNL     1      34.033  -7.450 -23.102  0.00  0.00    +0.035 C 
ATOM     19  C   UNL     1      31.483  -6.707 -22.474  0.00  0.00    +0.100 C 
ATOM     20  C   UNL     1      33.688  -6.145 -22.789  0.00  0.00    +0.100 C 
ENDBRANCH   9  16
ENDBRANCH   4  10
BRANCH   3  21
ATOM     21  S   UNL     1      36.365 -18.578 -22.600  0.00  0.00    +0.063 S 
ATOM     22  O   UNL     1      37.484 -18.023 -21.870  0.00  0.00    -0.153 OA
ATOM     23  O   UNL     1      36.572 -19.418 -23.759  0.00  0.00    -0.153 OA
BRANCH  21  25
ATOM     24 CL   UNL     1      32.612 -23.249 -16.618  0.00  0.00    -0.082 Cl
ATOM     25  C   UNL     1      35.362 -19.471 -21.454  0.00  0.00    +0.122 C 
ATOM     26  C   UNL     1      35.971 -20.244 -20.480  0.00  0.00    +0.020 C 
ATOM     27  C   UNL     1      33.986 -19.382 -21.548  0.00  0.00    +0.020 C 
ATOM     28  C   UNL     1      35.186 -20.961 -19.560  0.00  0.00    +0.001 C 
ATOM     29  C   UNL     1      33.776 -20.880 -19.644  0.00  0.00    +0.001 C 
ATOM     30  C   UNL     1      33.192 -20.086 -20.643  0.00  0.00    +0.001 C 
ATOM     31  C   UNL     1      35.772 -21.755 -18.561  0.00  0.00    +0.001 C 
ATOM     32  C   UNL     1      32.992 -21.596 -18.724  0.00  0.00    +0.011 C 
ATOM     33  C   UNL     1      34.977 -22.460 -17.656  0.00  0.00    +0.011 C 
ATOM     34  C   UNL     1      33.589 -22.381 -17.738  0.00  0.00    +0.058 C 
ENDBRANCH  21  25
ENDBRANCH   3  21
TORSDOF 4
ENDMDL
MODEL 2
REMARK VINA RESULT:     -11.0      4.517     11.378
REMARK  Name = 446399
REMARK  4 active torsions:
REMARK  status: ('A' for Active; 'I' for Inactive)
REMARK    1  A    between atoms: N_3  and  S_21
REMARK    2  A    between atoms: C_4  and  C_10
REMARK    3  A    between atoms: N_9  and  C_16
REMARK    4  A    between atoms: S_21  and  C_25
REMARK                            x       y       z     vdW  Elec       q    Type
REMARK                         _______ _______ _______ _____ _____    ______ ____
ROOT
ATOM      1  O   UNL     1      34.244 -15.718 -25.421  0.00  0.00    -0.275 OA
ATOM      2  N   UNL     1      34.415 -14.249 -23.630  0.00  0.00    -0.277 N 
ATOM      3  N   UNL     1      33.122 -12.145 -22.217  0.00  0.00    -0.152 NA
ATOM      4  C   UNL     1      34.599 -15.477 -24.264  0.00  0.00    +0.225 C 
ATOM      5  C   UNL     1      34.824 -13.930 -22.257  0.00  0.00    +0.113 C 
ATOM      6  C   UNL     1      33.828 -13.127 -24.363  0.00  0.00    +0.113 C 
ATOM      7  C   UNL     1      33.663 -13.323 -21.474  0.00  0.00    +0.117 C 
ATOM      8  C   UNL     1      32.664 -12.520 -23.589  0.00  0.00    +0.117 C 
ENDROOT
BRANCH   4  10
ATOM      9  N   UNL     1      35.152 -18.763 -21.602  0.00  0.00    -0.307 N 
ATOM     10  C   UNL     1      35.275 -16.557 -23.459  0.00  0.00    +0.080 C 
ATOM     11  C   UNL     1      34.727 -17.920 -23.877  0.00  0.00    +0.031 C 
ATOM     12  C   UNL     1      35.033 -16.331 -21.969  0.00  0.00    +0.031 C 
ATOM     13  C   UNL     1      35.323 -19.046 -23.031  0.00  0.00    +0.091 C 
ATOM     14  C   UNL     1      35.634 -17.457 -21.131  0.00  0.00    +0.091 C 
BRANCH   9  16
ATOM     15  N   UNL     1      35.183 -21.953 -18.837  0.00  0.00    -0.242 NA
ATOM     16  C   UNL     1      35.162 -19.822 -20.685  0.00  0.00    +0.051 C 
ATOM     17  C   UNL     1      33.966 -20.411 -20.247  0.00  0.00    +0.035 C 
ATOM     18  C   UNL     1      36.369 -20.325 -20.174  0.00  0.00    +0.035 C 
ATOM     19  C   UNL     1      34.030 -21.456 -19.339  0.00  0.00    +0.100 C 
ATOM     20  C   UNL     1      36.325 -21.374 -19.270  0.00  0.00    +0.100 C 
ENDBRANCH   9  16
ENDBRANCH   4  10
BRANCH   3  21
ATOM     21  S   UNL     1      32.044 -11.151 -21.331  0.00  0.00    +0.063 S 
ATOM     22  O   UNL     1      32.540 -11.003 -19.981  0.00  0.00    -0.153 OA
ATOM     23  O   UNL     1      30.689 -11.589 -21.585  0.00  0.00    -0.153 OA
BRANCH  21  25
ATOM     24 CL   UNL     1      34.386  -4.100 -25.391  0.00  0.00    -0.082 Cl
ATOM     25  C   UNL     1      32.285  -9.615 -22.167  0.00  0.00    +0.122 C 
ATOM     26  C   UNL     1      33.560  -9.259 -22.575  0.00  0.00    +0.020 C 
ATOM     27  C   UNL     1      31.197  -8.796 -22.401  0.00  0.00    +0.020 C 
ATOM     28  C   UNL     1      33.768  -8.040 -23.241  0.00  0.00    +0.001 C 
ATOM     29  C   UNL     1      32.665  -7.189 -23.489  0.00  0.00    +0.001 C 
ATOM     30  C   UNL     1      31.386  -7.581 -23.063  0.00  0.00    +0.001 C 
ATOM     31  C   UNL     1      35.048  -7.648 -23.668  0.00  0.00    +0.001 C 
ATOM     32  C   UNL     1      32.873  -5.970 -24.157  0.00  0.00    +0.011 C 
ATOM     33  C   UNL     1      35.236  -6.433 -24.329  0.00  0.00    +0.011 C 
ATOM     34  C   UNL     1      34.151  -5.596 -24.573  0.00  0.00    +0.058 C 
ENDBRANCH  21  25
ENDBRANCH   3  21
TORSDOF 4
ENDMDL
MODEL 3
REMARK VINA RESULT:     -10.7      2.093      3.266
REMARK  Name = 446399
REMARK  4 active torsions:
REMARK  status: ('A' for Active; 'I' for Inactive)
REMARK    1  A    between atoms: N_3  and  S_21
REMARK    2  A    between atoms: C_4  and  C_10
REMARK    3  A    between atoms: N_9  and  C_16
REMARK    4  A    between atoms: S_21  and  C_25
REMARK                            x       y       z     vdW  Elec       q    Type
REMARK                         _______ _______ _______ _____ _____    ______ ____
ROOT
ATOM      1  O   UNL     1      32.826 -12.151 -20.280  0.00  0.00    -0.275 OA
ATOM      2  N   UNL     1      33.839 -12.984 -22.197  0.00  0.00    -0.277 N 
ATOM      3  N   UNL     1      34.614 -15.348 -23.577  0.00  0.00    -0.152 NA
ATOM      4  C   UNL     1      33.039 -12.085 -21.493  0.00  0.00    +0.225 C 
ATOM      5  C   UNL     1      34.113 -12.934 -23.638  0.00  0.00    +0.113 C 
ATOM      6  C   UNL     1      34.543 -14.051 -21.484  0.00  0.00    +0.113 C 
ATOM      7  C   UNL     1      33.839 -14.287 -24.288  0.00  0.00    +0.117 C 
ATOM      8  C   UNL     1      34.267 -15.407 -22.125  0.00  0.00    +0.117 C 
ENDROOT
BRANCH   4  10
ATOM      9  N   UNL     1      31.970  -8.165 -22.793  0.00  0.00    -0.307 N 
ATOM     10  C   UNL     1      32.408 -10.974 -22.294  0.00  0.00    +0.080 C 
ATOM     11  C   UNL     1      33.502 -10.091 -22.889  0.00  0.00    +0.031 C 
ATOM     12  C   UNL     1      31.491 -10.140 -21.403  0.00  0.00    +0.031 C 
ATOM     13  C   UNL     1      32.912  -8.901 -23.645  0.00  0.00    +0.091 C 
ATOM     14  C   UNL     1      30.903  -8.956 -22.165  0.00  0.00    +0.091 C 
BRANCH   9  16
ATOM     15  N   UNL     1      31.149  -4.110 -23.631  0.00  0.00    -0.242 NA
ATOM     16  C   UNL     1      31.698  -6.820 -23.071  0.00  0.00    +0.051 C 
ATOM     17  C   UNL     1      31.781  -6.320 -24.380  0.00  0.00    +0.035 C 
ATOM     18  C   UNL     1      31.333  -5.929 -22.049  0.00  0.00    +0.035 C 
ATOM     19  C   UNL     1      31.502  -4.981 -24.603  0.00  0.00    +0.100 C 
ATOM     20  C   UNL     1      31.073  -4.608 -22.376  0.00  0.00    +0.100 C 
ENDBRANCH   9  16
ENDBRANCH   4  10
BRANCH   3  21
ATOM     21  S   UNL     1      34.686 -16.863 -24.374  0.00  0.00    +0.063 S 
ATOM     22  O   UNL     1      35.725 -16.818 -25.379  0.00  0.00    -0.153 OA
ATOM     23  O   UNL     1      33.342 -17.280 -24.708  0.00  0.00    -0.153 OA
BRANCH  21  25
ATOM     24 CL   UNL     1      36.257 -22.087 -17.899  0.00  0.00    -0.082 Cl
ATOM     25  C   UNL     1      35.258 -17.880 -23.050  0.00  0.00    +0.122 C 
ATOM     26  C   UNL     1      34.350 -18.658 -22.352  0.00  0.00    +0.020 C 
ATOM     27  C   UNL     1      36.604 -17.883 -22.733  0.00  0.00    +0.020 C 
ATOM     28  C   UNL     1      34.789 -19.474 -21.296  0.00  0.00    +0.001 C 
ATOM     29  C   UNL     1      36.163 -19.488 -20.958  0.00  0.00    +0.001 C 
ATOM     30  C   UNL     1      37.057 -18.687 -21.686  0.00  0.00    +0.001 C 
ATOM     31  C   UNL     1      33.894 -20.275 -20.568  0.00  0.00    +0.001 C 
ATOM     32  C   UNL     1      36.602 -20.304 -19.902  0.00  0.00    +0.011 C 
ATOM     33  C   UNL     1      34.348 -21.079 -19.522  0.00  0.00    +0.011 C 
ATOM     34  C   UNL     1      35.700 -21.093 -19.189  0.00  0.00    +0.058 C 
ENDBRANCH  21  25
ENDBRANCH   3  21
TORSDOF 4
ENDMDL
MODEL 4
REMARK VINA RESULT:     -10.5      1.673      2.183
REMARK  Name = 446399
REMARK  4 active torsions:
REMARK  status: ('A' for Active; 'I' for Inactive)
REMARK    1  A    between atoms: N_3  and  S_21
REMARK    2  A    between atoms: C_4  and  C_10
REMARK    3  A    between atoms: N_9  and  C_16
REMARK    4  A    between atoms: S_21  and  C_25
REMARK                            x       y       z     vdW  Elec       q    Type
REMARK                         _______ _______ _______ _____ _____    ______ ____
ROOT
ATOM      1  O   UNL     1      32.506 -13.384 -19.850  0.00  0.00    -0.275 OA
ATOM      2  N   UNL     1      34.145 -14.164 -21.299  0.00  0.00    -0.277 N 
ATOM      3  N   UNL     1      35.482 -16.482 -22.266  0.00  0.00    -0.152 NA
ATOM      4  C   UNL     1      33.102 -13.317 -20.928  0.00  0.00    +0.225 C 
ATOM      5  C   UNL     1      34.874 -14.111 -22.572  0.00  0.00    +0.113 C 
ATOM      6  C   UNL     1      34.642 -15.169 -20.359  0.00  0.00    +0.113 C 
ATOM      7  C   UNL     1      34.917 -15.488 -23.228  0.00  0.00    +0.117 C 
ATOM      8  C   UNL     1      34.680 -16.549 -21.007  0.00  0.00    +0.117 C 
ENDROOT
BRANCH   4  10
ATOM      9  N   UNL     1      32.780  -9.544 -22.892  0.00  0.00    -0.307 N 
ATOM     10  C   UNL     1      32.700 -12.263 -21.929  0.00  0.00    +0.080 C 
ATOM     11  C   UNL     1      33.949 -11.691 -22.594  0.00  0.00    +0.031 C 
ATOM     12  C   UNL     1      31.920 -11.150 -21.235  0.00  0.00    +0.031 C 
ATOM     13  C   UNL     1      33.600 -10.559 -23.561  0.00  0.00    +0.091 C 
ATOM     14  C   UNL     1      31.572 -10.026 -22.208  0.00  0.00    +0.091 C 
BRANCH   9  16
ATOM     15  N   UNL     1      32.711  -5.604 -24.409  0.00  0.00    -0.242 NA
ATOM     16  C   UNL     1      32.757  -8.237 -23.395  0.00  0.00    +0.051 C 
ATOM     17  C   UNL     1      31.552  -7.633 -23.787  0.00  0.00    +0.035 C 
ATOM     18  C   UNL     1      33.939  -7.490 -23.523  0.00  0.00    +0.035 C 
ATOM     19  C   UNL     1      31.583  -6.338 -24.278  0.00  0.00    +0.100 C 
ATOM     20  C   UNL     1      33.863  -6.201 -24.026  0.00  0.00    +0.100 C 
ENDBRANCH   9  16
ENDBRANCH   4  10
BRANCH   3  21
ATOM     21  S   UNL     1      35.909 -17.997 -22.943  0.00  0.00    +0.063 S 
ATOM     22  O   UNL     1      37.346 -18.152 -22.884  0.00  0.00    -0.153 OA
ATOM     23  O   UNL     1      35.189 -18.174 -24.186  0.00  0.00    -0.153 OA
BRANCH  21  25
ATOM     24 CL   UNL     1      33.647 -23.349 -16.785  0.00  0.00    -0.082 Cl
ATOM     25  C   UNL     1      35.198 -19.080 -21.744  0.00  0.00    +0.122 C 
ATOM     26  C   UNL     1      36.022 -19.707 -20.825  0.00  0.00    +0.020 C 
ATOM     27  C   UNL     1      33.831 -19.283 -21.743  0.00  0.00    +0.020 C 
ATOM     28  C   UNL     1      35.472 -20.572 -19.864  0.00  0.00    +0.001 C 
ATOM     29  C   UNL     1      34.074 -20.790 -19.849  0.00  0.00    +0.001 C 
ATOM     30  C   UNL     1      33.268 -20.139 -20.796  0.00  0.00    +0.001 C 
ATOM     31  C   UNL     1      36.279 -21.224 -18.917  0.00  0.00    +0.001 C 
ATOM     32  C   UNL     1      33.523 -21.655 -18.888  0.00  0.00    +0.011 C 
ATOM     33  C   UNL     1      35.715 -22.080 -17.970  0.00  0.00    +0.011 C 
ATOM     34  C   UNL     1      34.340 -22.295 -17.956  0.00  0.00    +0.058 C 
ENDBRANCH  21  25
ENDBRANCH   3  21
TORSDOF 4
ENDMDL
MODEL 5
REMARK VINA RESULT:     -10.3      4.488     11.332
REMARK  Name = 446399
REMARK  4 active torsions:
REMARK  status: ('A' for Active; 'I' for Inactive)
REMARK    1  A    between atoms: N_3  and  S_21
REMARK    2  A    between atoms: C_4  and  C_10
REMARK    3  A    between atoms: N_9  and  C_16
REMARK    4  A    between atoms: S_21  and  C_25
REMARK                            x       y       z     vdW  Elec       q    Type
REMARK                         _______ _______ _______ _____ _____    ______ ____
ROOT
ATOM      1  O   UNL     1      37.199 -21.267 -19.519  0.00  0.00    -0.275 OA
ATOM      2  N   UNL     1      35.540 -19.959 -20.485  0.00  0.00    -0.277 N 
ATOM      3  N   UNL     1      34.808 -18.457 -22.788  0.00  0.00    -0.152 NA
ATOM      4  C   UNL     1      36.005 -21.021 -19.711  0.00  0.00    +0.225 C 
ATOM      5  C   UNL     1      34.129 -19.640 -20.733  0.00  0.00    +0.113 C 
ATOM      6  C   UNL     1      36.487 -19.011 -21.072  0.00  0.00    +0.113 C 
ATOM      7  C   UNL     1      33.867 -19.473 -22.227  0.00  0.00    +0.117 C 
ATOM      8  C   UNL     1      36.235 -18.845 -22.566  0.00  0.00    +0.117 C 
ENDROOT
BRANCH   4  10
ATOM      9  N   UNL     1      33.020 -22.440 -17.014  0.00  0.00    -0.307 N 
ATOM     10  C   UNL     1      34.960 -21.909 -19.085  0.00  0.00    +0.080 C 
ATOM     11  C   UNL     1      33.627 -21.166 -19.033  0.00  0.00    +0.031 C 
ATOM     12  C   UNL     1      35.389 -22.312 -17.676  0.00  0.00    +0.031 C 
ATOM     13  C   UNL     1      32.551 -21.995 -18.331  0.00  0.00    +0.091 C 
ATOM     14  C   UNL     1      34.311 -23.142 -16.984  0.00  0.00    +0.091 C 
BRANCH   9  16
ATOM     15  N   UNL     1      30.199 -23.429 -14.033  0.00  0.00    -0.242 NA
ATOM     16  C   UNL     1      32.084 -22.769 -16.025  0.00  0.00    +0.051 C 
ATOM     17  C   UNL     1      30.708 -22.754 -16.298  0.00  0.00    +0.035 C 
ATOM     18  C   UNL     1      32.494 -23.121 -14.730  0.00  0.00    +0.035 C 
ATOM     19  C   UNL     1      29.822 -23.087 -15.285  0.00  0.00    +0.100 C 
ATOM     20  C   UNL     1      31.529 -23.437 -13.788  0.00  0.00    +0.100 C 
ENDBRANCH   9  16
ENDBRANCH   4  10
BRANCH   3  21
ATOM     21  S   UNL     1      34.437 -17.905 -24.366  0.00  0.00    +0.063 S 
ATOM     22  O   UNL     1      33.088 -18.306 -24.701  0.00  0.00    -0.153 OA
ATOM     23  O   UNL     1      35.546 -18.213 -25.243  0.00  0.00    -0.153 OA
BRANCH  21  25
ATOM     24 CL   UNL     1      34.004  -9.451 -24.190  0.00  0.00    -0.082 Cl
ATOM     25  C   UNL     1      34.430 -16.162 -24.088  0.00  0.00    +0.122 C 
ATOM     26  C   UNL     1      34.036 -15.315 -25.110  0.00  0.00    +0.020 C 
ATOM     27  C   UNL     1      34.817 -15.673 -22.854  0.00  0.00    +0.020 C 
ATOM     28  C   UNL     1      34.025 -13.925 -24.905  0.00  0.00    +0.001 C 
ATOM     29  C   UNL     1      34.418 -13.408 -23.647  0.00  0.00    +0.001 C 
ATOM     30  C   UNL     1      34.811 -14.295 -22.633  0.00  0.00    +0.001 C 
ATOM     31  C   UNL     1      33.632 -13.038 -25.920  0.00  0.00    +0.001 C 
ATOM     32  C   UNL     1      34.406 -12.018 -23.442  0.00  0.00    +0.011 C 
ATOM     33  C   UNL     1      33.627 -11.660 -25.698  0.00  0.00    +0.011 C 
ATOM     34  C   UNL     1      34.014 -11.151 -24.461  0.00  0.00    +0.058 C 
ENDBRANCH  21  25
ENDBRANCH   3  21
TORSDOF 4
ENDMDL
