MODEL 1
REMARK VINA RESULT:     -12.3      0.000      0.000
REMARK  Name = 44814409
REMARK  5 active torsions:
REMARK  status: ('A' for Active; 'I' for Inactive)
REMARK    1  A    between atoms: N_2  and  C_22
REMARK    2  A    between atoms: C_3  and  C_7
REMARK    3  A    between atoms: C_9  and  C_14
REMARK    4  A    between atoms: C_21  and  C_26
REMARK    5  A    between atoms: C_29  and  N_33
REMARK                            x       y       z     vdW  Elec       q    Type
REMARK                         _______ _______ _______ _____ _____    ______ ____
ROOT
ATOM      1  O   UNL     1      32.697 -21.587 -19.957  0.00  0.00    -0.267 OA
ATOM      2  N   UNL     1      33.795 -21.831 -17.892  0.00  0.00    -0.278 N 
ATOM      3  C   UNL     1      33.675 -21.439 -19.232  0.00  0.00    +0.275 C 
ATOM      4  H   UNL     1      34.656 -21.631 -17.459  0.00  0.00    +0.155 HD
ENDROOT
BRANCH   3   7
ATOM      5  F   UNL     1      38.010 -18.777 -21.459  0.00  0.00    -0.202 F 
ATOM      6  N   UNL     1      34.607 -19.859 -20.787  0.00  0.00    -0.399 NA
ATOM      7  C   UNL     1      34.862 -20.748 -19.802  0.00  0.00    +0.167 C 
ATOM      8  C   UNL     1      36.131 -21.032 -19.322  0.00  0.00    +0.092 C 
ATOM      9  C   UNL     1      35.677 -19.223 -21.313  0.00  0.00    +0.162 C 
ATOM     10  C   UNL     1      37.206 -20.357 -19.890  0.00  0.00    +0.014 C 
ATOM     11  C   UNL     1      36.983 -19.433 -20.904  0.00  0.00    +0.166 C 
BRANCH   9  14
ATOM     12  F   UNL     1      35.187 -20.040 -23.951  0.00  0.00    -0.204 F 
ATOM     13  F   UNL     1      35.527 -16.463 -20.834  0.00  0.00    -0.204 F 
ATOM     14  C   UNL     1      35.366 -18.279 -22.362  0.00  0.00    +0.087 C 
ATOM     15  C   UNL     1      35.130 -18.732 -23.660  0.00  0.00    +0.145 C 
ATOM     16  C   UNL     1      35.301 -16.915 -22.076  0.00  0.00    +0.145 C 
ATOM     17  C   UNL     1      34.829 -17.821 -24.672  0.00  0.00    +0.030 C 
ATOM     18  C   UNL     1      35.001 -16.003 -23.089  0.00  0.00    +0.030 C 
ATOM     19  C   UNL     1      34.766 -16.457 -24.387  0.00  0.00    +0.005 C 
ENDBRANCH   9  14
ENDBRANCH   3   7
BRANCH   2  22
ATOM     20  N   UNL     1      30.508 -22.797 -16.563  0.00  0.00    -0.241 NA
ATOM     21  C   UNL     1      33.205 -23.366 -16.097  0.00  0.00    -0.006 C 
ATOM     22  C   UNL     1      32.843 -22.469 -17.095  0.00  0.00    +0.066 C 
ATOM     23  C   UNL     1      32.220 -23.978 -15.330  0.00  0.00    +0.018 C 
ATOM     24  C   UNL     1      31.494 -22.221 -17.287  0.00  0.00    +0.113 C 
ATOM     25  C   UNL     1      30.898 -23.663 -15.601  0.00  0.00    +0.099 C 
BRANCH  21  26
ATOM     26  C   UNL     1      34.640 -23.689 -15.827  0.00  0.00    +0.022 C 
ATOM     27  C   UNL     1      36.280 -24.471 -14.050  0.00  0.00    -0.002 C 
ATOM     28  C   UNL     1      34.807 -24.188 -14.380  0.00  0.00    +0.004 C 
ATOM     29  C   UNL     1      36.989 -22.739 -15.761  0.00  0.00    -0.065 C 
ATOM     30  C   UNL     1      35.518 -22.452 -16.088  0.00  0.00    -0.017 C 
ATOM     31  C   UNL     1      37.149 -23.234 -14.319  0.00  0.00    -0.022 C 
ATOM     32  C   UNL     1      36.426 -24.927 -12.598  0.00  0.00    -0.000 C 
BRANCH  29  33
ATOM     33  N   UNL     1      37.786 -21.530 -15.961  0.00  0.00    +0.382 N 
ATOM     34  H   UNL     1      37.179 -20.711 -15.917  0.00  0.00    -0.089 HD
ATOM     35  H   UNL     1      38.238 -21.568 -16.875  0.00  0.00    -0.089 HD
ATOM     36  H   UNL     1      38.497 -21.466 -15.233  0.00  0.00    -0.089 HD
ENDBRANCH  29  33
ENDBRANCH  21  26
ENDBRANCH   2  22
TORSDOF 5
ENDMDL
MODEL 2
REMARK VINA RESULT:     -10.5      4.522      8.733
REMARK  Name = 44814409
REMARK  5 active torsions:
REMARK  status: ('A' for Active; 'I' for Inactive)
REMARK    1  A    between atoms: N_2  and  C_22
REMARK    2  A    between atoms: C_3  and  C_7
REMARK    3  A    between atoms: C_9  and  C_14
REMARK    4  A    between atoms: C_21  and  C_26
REMARK    5  A    between atoms: C_29  and  N_33
REMARK                            x       y       z     vdW  Elec       q    Type
REMARK                         _______ _______ _______ _____ _____    ______ ____
ROOT
ATOM      1  O   UNL     1      36.769 -21.336 -15.747  0.00  0.00    -0.267 OA
ATOM      2  N   UNL     1      35.327 -22.954 -16.660  0.00  0.00    -0.278 N 
ATOM      3  C   UNL     1      36.298 -22.468 -15.773  0.00  0.00    +0.275 C 
ATOM      4  H   UNL     1      35.062 -23.894 -16.536  0.00  0.00    +0.155 HD
ENDROOT
BRANCH   3   7
ATOM      5  F   UNL     1      38.152 -26.159 -12.061  0.00  0.00    -0.202 F 
ATOM      6  N   UNL     1      37.677 -24.344 -15.173  0.00  0.00    -0.399 NA
ATOM      7  C   UNL     1      36.768 -23.438 -14.749  0.00  0.00    +0.167 C 
ATOM      8  C   UNL     1      36.277 -23.379 -13.455  0.00  0.00    +0.092 C 
ATOM      9  C   UNL     1      38.115 -25.232 -14.253  0.00  0.00    +0.162 C 
ATOM     10  C   UNL     1      36.751 -24.310 -12.537  0.00  0.00    +0.014 C 
ATOM     11  C   UNL     1      37.687 -25.257 -12.935  0.00  0.00    +0.166 C 
BRANCH   9  14
ATOM     12  F   UNL     1      40.786 -25.200 -13.400  0.00  0.00    -0.204 F 
ATOM     13  F   UNL     1      37.441 -27.221 -16.111  0.00  0.00    -0.204 F 
ATOM     14  C   UNL     1      39.086 -26.183 -14.741  0.00  0.00    +0.087 C 
ATOM     15  C   UNL     1      40.403 -26.129 -14.289  0.00  0.00    +0.145 C 
ATOM     16  C   UNL     1      38.704 -27.156 -15.666  0.00  0.00    +0.145 C 
ATOM     17  C   UNL     1      41.341 -27.049 -14.761  0.00  0.00    +0.030 C 
ATOM     18  C   UNL     1      39.641 -28.075 -16.138  0.00  0.00    +0.030 C 
ATOM     19  C   UNL     1      40.960 -28.020 -15.686  0.00  0.00    +0.005 C 
ENDBRANCH   9  14
ENDBRANCH   3   7
BRANCH   2  22
ATOM     20  N   UNL     1      34.903 -20.945 -19.707  0.00  0.00    -0.241 NA
ATOM     21  C   UNL     1      33.306 -22.208 -17.792  0.00  0.00    -0.006 C 
ATOM     22  C   UNL     1      34.691 -22.269 -17.696  0.00  0.00    +0.066 C 
ATOM     23  C   UNL     1      32.717 -21.515 -18.844  0.00  0.00    +0.018 C 
ATOM     24  C   UNL     1      35.438 -21.628 -18.670  0.00  0.00    +0.113 C 
ATOM     25  C   UNL     1      33.553 -20.907 -19.767  0.00  0.00    +0.099 C 
BRANCH  21  26
ATOM     26  C   UNL     1      32.428 -22.875 -16.782  0.00  0.00    +0.022 C 
ATOM     27  C   UNL     1      30.056 -23.009 -15.877  0.00  0.00    -0.002 C 
ATOM     28  C   UNL     1      30.975 -22.389 -16.940  0.00  0.00    +0.004 C 
ATOM     29  C   UNL     1      32.033 -23.219 -14.301  0.00  0.00    -0.065 C 
ATOM     30  C   UNL     1      32.951 -22.596 -15.361  0.00  0.00    -0.017 C 
ATOM     31  C   UNL     1      30.589 -22.731 -14.463  0.00  0.00    -0.022 C 
ATOM     32  C   UNL     1      28.629 -22.482 -16.028  0.00  0.00    -0.000 C 
BRANCH  29  33
ATOM     33  N   UNL     1      32.522 -22.886 -12.965  0.00  0.00    +0.382 N 
ATOM     34  H   UNL     1      31.857 -23.219 -12.266  0.00  0.00    -0.089 HD
ATOM     35  H   UNL     1      32.624 -21.874 -12.882  0.00  0.00    -0.089 HD
ATOM     36  H   UNL     1      33.426 -23.332 -12.813  0.00  0.00    -0.089 HD
ENDBRANCH  29  33
ENDBRANCH  21  26
ENDBRANCH   2  22
TORSDOF 5
ENDMDL
MODEL 3
REMARK VINA RESULT:     -10.5      4.498     10.620
REMARK  Name = 44814409
REMARK  5 active torsions:
REMARK  status: ('A' for Active; 'I' for Inactive)
REMARK    1  A    between atoms: N_2  and  C_22
REMARK    2  A    between atoms: C_3  and  C_7
REMARK    3  A    between atoms: C_9  and  C_14
REMARK    4  A    between atoms: C_21  and  C_26
REMARK    5  A    between atoms: C_29  and  N_33
REMARK                            x       y       z     vdW  Elec       q    Type
REMARK                         _______ _______ _______ _____ _____    ______ ____
ROOT
ATOM      1  O   UNL     1      35.037 -14.625 -20.250  0.00  0.00    -0.267 OA
ATOM      2  N   UNL     1      33.583 -14.191 -22.047  0.00  0.00    -0.278 N 
ATOM      3  C   UNL     1      34.534 -14.927 -21.327  0.00  0.00    +0.275 C 
ATOM      4  H   UNL     1      33.287 -14.587 -22.899  0.00  0.00    +0.155 HD
ENDROOT
BRANCH   3   7
ATOM      5  F   UNL     1      36.030 -19.822 -23.483  0.00  0.00    -0.202 F 
ATOM      6  N   UNL     1      34.967 -17.283 -21.110  0.00  0.00    -0.399 NA
ATOM      7  C   UNL     1      34.940 -16.218 -21.943  0.00  0.00    +0.167 C 
ATOM      8  C   UNL     1      35.263 -16.278 -23.289  0.00  0.00    +0.092 C 
ATOM      9  C   UNL     1      35.333 -18.463 -21.657  0.00  0.00    +0.162 C 
ATOM     10  C   UNL     1      35.635 -17.511 -23.814  0.00  0.00    +0.014 C 
ATOM     11  C   UNL     1      35.673 -18.629 -22.989  0.00  0.00    +0.166 C 
BRANCH   9  14
ATOM     12  F   UNL     1      37.706 -19.389 -20.485  0.00  0.00    -0.204 F 
ATOM     13  F   UNL     1      32.992 -19.831 -20.939  0.00  0.00    -0.204 F 
ATOM     14  C   UNL     1      35.349 -19.578 -20.738  0.00  0.00    +0.087 C 
ATOM     15  C   UNL     1      36.553 -20.004 -20.179  0.00  0.00    +0.145 C 
ATOM     16  C   UNL     1      34.159 -20.228 -20.409  0.00  0.00    +0.145 C 
ATOM     17  C   UNL     1      36.568 -21.080 -19.291  0.00  0.00    +0.030 C 
ATOM     18  C   UNL     1      34.173 -21.304 -19.522  0.00  0.00    +0.030 C 
ATOM     19  C   UNL     1      35.379 -21.730 -18.964  0.00  0.00    +0.005 C 
ENDBRANCH   9  14
ENDBRANCH   3   7
BRANCH   2  22
ATOM     20  N   UNL     1      31.583 -11.730 -20.192  0.00  0.00    -0.241 NA
ATOM     21  C   UNL     1      33.227 -11.818 -22.451  0.00  0.00    -0.006 C 
ATOM     22  C   UNL     1      33.004 -12.969 -21.706  0.00  0.00    +0.066 C 
ATOM     23  C   UNL     1      32.629 -10.622 -22.069  0.00  0.00    +0.018 C 
ATOM     24  C   UNL     1      32.182 -12.874 -20.595  0.00  0.00    +0.113 C 
ATOM     25  C   UNL     1      31.823 -10.631 -20.942  0.00  0.00    +0.099 C 
BRANCH  21  26
ATOM     26  C   UNL     1      34.103 -11.836 -23.663  0.00  0.00    +0.022 C 
ATOM     27  C   UNL     1      35.473 -10.389 -25.241  0.00  0.00    -0.002 C 
ATOM     28  C   UNL     1      34.619 -10.417 -23.965  0.00  0.00    +0.004 C 
ATOM     29  C   UNL     1      34.187 -12.383 -26.137  0.00  0.00    -0.065 C 
ATOM     30  C   UNL     1      33.330 -12.409 -24.865  0.00  0.00    -0.017 C 
ATOM     31  C   UNL     1      34.696 -10.968 -26.433  0.00  0.00    -0.022 C 
ATOM     32  C   UNL     1      35.941  -8.966 -25.542  0.00  0.00    -0.000 C 
BRANCH  29  33
ATOM     33  N   UNL     1      33.406 -12.876 -27.270  0.00  0.00    +0.382 N 
ATOM     34  H   UNL     1      33.981 -12.861 -28.112  0.00  0.00    -0.089 HD
ATOM     35  H   UNL     1      32.590 -12.278 -27.406  0.00  0.00    -0.089 HD
ATOM     36  H   UNL     1      33.101 -13.831 -27.083  0.00  0.00    -0.089 HD
ENDBRANCH  29  33
ENDBRANCH  21  26
ENDBRANCH   2  22
TORSDOF 5
ENDMDL
MODEL 4
REMARK VINA RESULT:     -10.1      4.367      8.645
REMARK  Name = 44814409
REMARK  5 active torsions:
REMARK  status: ('A' for Active; 'I' for Inactive)
REMARK    1  A    between atoms: N_2  and  C_22
REMARK    2  A    between atoms: C_3  and  C_7
REMARK    3  A    between atoms: C_9  and  C_14
REMARK    4  A    between atoms: C_21  and  C_26
REMARK    5  A    between atoms: C_29  and  N_33
REMARK                            x       y       z     vdW  Elec       q    Type
REMARK                         _______ _______ _______ _____ _____    ______ ____
ROOT
ATOM      1  O   UNL     1      37.815 -20.708 -16.649  0.00  0.00    -0.267 OA
ATOM      2  N   UNL     1      36.363 -22.382 -17.436  0.00  0.00    -0.278 N 
ATOM      3  C   UNL     1      37.398 -21.861 -16.647  0.00  0.00    +0.275 C 
ATOM      4  H   UNL     1      36.157 -23.336 -17.304  0.00  0.00    +0.155 HD
ENDROOT
BRANCH   3   7
ATOM      5  F   UNL     1      39.610 -25.417 -13.000  0.00  0.00    -0.202 F 
ATOM      6  N   UNL     1      37.411 -22.942 -14.499  0.00  0.00    -0.399 NA
ATOM      7  C   UNL     1      38.021 -22.822 -15.700  0.00  0.00    +0.167 C 
ATOM      8  C   UNL     1      39.156 -23.528 -16.067  0.00  0.00    +0.092 C 
ATOM      9  C   UNL     1      37.967 -23.814 -13.628  0.00  0.00    +0.162 C 
ATOM     10  C   UNL     1      39.698 -24.414 -15.143  0.00  0.00    +0.014 C 
ATOM     11  C   UNL     1      39.098 -24.566 -13.898  0.00  0.00    +0.166 C 
BRANCH   9  14
ATOM     12  F   UNL     1      38.144 -21.803 -11.682  0.00  0.00    -0.204 F 
ATOM     13  F   UNL     1      36.393 -26.037 -12.960  0.00  0.00    -0.204 F 
ATOM     14  C   UNL     1      37.288 -23.917 -12.357  0.00  0.00    +0.087 C 
ATOM     15  C   UNL     1      37.405 -22.892 -11.420  0.00  0.00    +0.145 C 
ATOM     16  C   UNL     1      36.515 -25.042 -12.069  0.00  0.00    +0.145 C 
ATOM     17  C   UNL     1      36.748 -22.991 -10.192  0.00  0.00    +0.030 C 
ATOM     18  C   UNL     1      35.859 -25.142 -10.842  0.00  0.00    +0.030 C 
ATOM     19  C   UNL     1      35.977 -24.116  -9.904  0.00  0.00    +0.005 C 
ENDBRANCH   9  14
ENDBRANCH   3   7
BRANCH   2  22
ATOM     20  N   UNL     1      35.513 -20.219 -20.283  0.00  0.00    -0.241 NA
ATOM     21  C   UNL     1      34.203 -21.842 -18.421  0.00  0.00    -0.006 C 
ATOM     22  C   UNL     1      35.587 -21.715 -18.384  0.00  0.00    +0.066 C 
ATOM     23  C   UNL     1      33.473 -21.158 -19.387  0.00  0.00    +0.018 C 
ATOM     24  C   UNL     1      36.189 -20.900 -19.329  0.00  0.00    +0.113 C 
ATOM     25  C   UNL     1      34.170 -20.368 -20.287  0.00  0.00    +0.099 C 
BRANCH  21  26
ATOM     26  C   UNL     1      33.478 -22.703 -17.438  0.00  0.00    +0.022 C 
ATOM     27  C   UNL     1      31.244 -23.090 -16.287  0.00  0.00    -0.002 C 
ATOM     28  C   UNL     1      32.005 -22.264 -17.335  0.00  0.00    +0.004 C 
ATOM     29  C   UNL     1      33.409 -23.465 -15.021  0.00  0.00    -0.065 C 
ATOM     30  C   UNL     1      34.170 -22.637 -16.064  0.00  0.00    -0.017 C 
ATOM     31  C   UNL     1      31.945 -23.022 -14.922  0.00  0.00    -0.022 C 
ATOM     32  C   UNL     1      29.797 -22.611 -16.174  0.00  0.00    -0.000 C 
BRANCH  29  33
ATOM     33  N   UNL     1      34.056 -23.333 -13.717  0.00  0.00    +0.382 N 
ATOM     34  H   UNL     1      33.371 -23.028 -13.026  0.00  0.00    -0.089 HD
ATOM     35  H   UNL     1      34.807 -22.643 -13.778  0.00  0.00    -0.089 HD
ATOM     36  H   UNL     1      34.444 -24.233 -13.436  0.00  0.00    -0.089 HD
ENDBRANCH  29  33
ENDBRANCH  21  26
ENDBRANCH   2  22
TORSDOF 5
ENDMDL
MODEL 5
REMARK VINA RESULT:     -10.0      4.831     10.659
REMARK  Name = 44814409
REMARK  5 active torsions:
REMARK  status: ('A' for Active; 'I' for Inactive)
REMARK    1  A    between atoms: N_2  and  C_22
REMARK    2  A    between atoms: C_3  and  C_7
REMARK    3  A    between atoms: C_9  and  C_14
REMARK    4  A    between atoms: C_21  and  C_26
REMARK    5  A    between atoms: C_29  and  N_33
REMARK                            x       y       z     vdW  Elec       q    Type
REMARK                         _______ _______ _______ _____ _____    ______ ____
ROOT
ATOM      1  O   UNL     1      34.967 -13.745 -20.442  0.00  0.00    -0.267 OA
ATOM      2  N   UNL     1      33.360 -13.183 -22.065  0.00  0.00    -0.278 N 
ATOM      3  C   UNL     1      34.388 -13.953 -21.503  0.00  0.00    +0.275 C 
ATOM      4  H   UNL     1      33.008 -13.498 -22.929  0.00  0.00    +0.155 HD
ENDROOT
BRANCH   3   7
ATOM      5  F   UNL     1      35.864 -18.534 -24.274  0.00  0.00    -0.202 F 
ATOM      6  N   UNL     1      35.051 -16.264 -21.555  0.00  0.00    -0.399 NA
ATOM      7  C   UNL     1      34.780 -15.157 -22.282  0.00  0.00    +0.167 C 
ATOM      8  C   UNL     1      34.850 -15.101 -23.665  0.00  0.00    +0.092 C 
ATOM      9  C   UNL     1      35.407 -17.367 -22.251  0.00  0.00    +0.162 C 
ATOM     10  C   UNL     1      35.221 -16.256 -24.345  0.00  0.00    +0.014 C 
ATOM     11  C   UNL     1      35.506 -17.415 -23.632  0.00  0.00    +0.166 C 
BRANCH   9  14
ATOM     12  F   UNL     1      33.409 -19.206 -21.549  0.00  0.00    -0.204 F 
ATOM     13  F   UNL     1      37.981 -17.921 -21.286  0.00  0.00    -0.204 F 
ATOM     14  C   UNL     1      35.687 -18.530 -21.441  0.00  0.00    +0.087 C 
ATOM     15  C   UNL     1      34.662 -19.417 -21.117  0.00  0.00    +0.145 C 
ATOM     16  C   UNL     1      36.984 -18.765 -20.984  0.00  0.00    +0.145 C 
ATOM     17  C   UNL     1      34.933 -20.541 -20.335  0.00  0.00    +0.030 C 
ATOM     18  C   UNL     1      37.255 -19.888 -20.202  0.00  0.00    +0.030 C 
ATOM     19  C   UNL     1      36.229 -20.775 -19.877  0.00  0.00    +0.005 C 
ENDBRANCH   9  14
ENDBRANCH   3   7
BRANCH   2  22
ATOM     20  N   UNL     1      31.756 -10.913 -19.663  0.00  0.00    -0.241 NA
ATOM     21  C   UNL     1      32.621 -10.878 -22.321  0.00  0.00    -0.006 C 
ATOM     22  C   UNL     1      32.776 -12.025 -21.551  0.00  0.00    +0.066 C 
ATOM     23  C   UNL     1      32.034  -9.748 -21.763  0.00  0.00    +0.018 C 
ATOM     24  C   UNL     1      32.332 -11.992 -20.240  0.00  0.00    +0.113 C 
ATOM     25  C   UNL     1      31.622  -9.816 -20.442  0.00  0.00    +0.099 C 
BRANCH  21  26
ATOM     26  C   UNL     1      33.076 -10.832 -23.744  0.00  0.00    +0.022 C 
ATOM     27  C   UNL     1      33.524 -12.239 -25.814  0.00  0.00    -0.002 C 
ATOM     28  C   UNL     1      33.005 -12.238 -24.368  0.00  0.00    +0.004 C 
ATOM     29  C   UNL     1      35.018 -10.263 -25.271  0.00  0.00    -0.065 C 
ATOM     30  C   UNL     1      34.504 -10.265 -23.825  0.00  0.00    -0.017 C 
ATOM     31  C   UNL     1      34.947 -11.666 -25.885  0.00  0.00    -0.022 C 
ATOM     32  C   UNL     1      33.481 -13.650 -26.398  0.00  0.00    -0.000 C 
BRANCH  29  33
ATOM     33  N   UNL     1      36.396  -9.777 -25.306  0.00  0.00    +0.382 N 
ATOM     34  H   UNL     1      36.840 -10.071 -26.175  0.00  0.00    -0.089 HD
ATOM     35  H   UNL     1      36.913 -10.161 -24.514  0.00  0.00    -0.089 HD
ATOM     36  H   UNL     1      36.399  -8.758 -25.251  0.00  0.00    -0.089 HD
ENDBRANCH  29  33
ENDBRANCH  21  26
ENDBRANCH   2  22
TORSDOF 5
ENDMDL
MODEL 6
REMARK VINA RESULT:      -9.6      1.939      2.652
REMARK  Name = 44814409
REMARK  5 active torsions:
REMARK  status: ('A' for Active; 'I' for Inactive)
REMARK    1  A    between atoms: N_2  and  C_22
REMARK    2  A    between atoms: C_3  and  C_7
REMARK    3  A    between atoms: C_9  and  C_14
REMARK    4  A    between atoms: C_21  and  C_26
REMARK    5  A    between atoms: C_29  and  N_33
REMARK                            x       y       z     vdW  Elec       q    Type
REMARK                         _______ _______ _______ _____ _____    ______ ____
ROOT
ATOM      1  O   UNL     1      33.896 -23.695 -18.535  0.00  0.00    -0.267 OA
ATOM      2  N   UNL     1      33.835 -22.636 -16.436  0.00  0.00    -0.278 N 
ATOM      3  C   UNL     1      34.272 -22.827 -17.754  0.00  0.00    +0.275 C 
ATOM      4  H   UNL     1      34.246 -21.884 -15.950  0.00  0.00    +0.155 HD
ENDROOT
BRANCH   3   7
ATOM      5  F   UNL     1      37.934 -19.132 -19.698  0.00  0.00    -0.202 F 
ATOM      6  N   UNL     1      34.985 -21.238 -19.411  0.00  0.00    -0.399 NA
ATOM      7  C   UNL     1      35.278 -21.846 -18.240  0.00  0.00    +0.167 C 
ATOM      8  C   UNL     1      36.428 -21.604 -17.505  0.00  0.00    +0.092 C 
ATOM      9  C   UNL     1      35.890 -20.342 -19.864  0.00  0.00    +0.162 C 
ATOM     10  C   UNL     1      37.334 -20.676 -18.005  0.00  0.00    +0.014 C 
ATOM     11  C   UNL     1      37.068 -20.028 -19.206  0.00  0.00    +0.166 C 
BRANCH   9  14
ATOM     12  F   UNL     1      37.836 -19.273 -21.577  0.00  0.00    -0.204 F 
ATOM     13  F   UNL     1      33.232 -20.112 -20.728  0.00  0.00    -0.204 F 
ATOM     14  C   UNL     1      35.544 -19.711 -21.117  0.00  0.00    +0.087 C 
ATOM     15  C   UNL     1      36.546 -19.193 -21.937  0.00  0.00    +0.145 C 
ATOM     16  C   UNL     1      34.208 -19.620 -21.506  0.00  0.00    +0.145 C 
ATOM     17  C   UNL     1      36.211 -18.584 -23.147  0.00  0.00    +0.030 C 
ATOM     18  C   UNL     1      33.872 -19.011 -22.715  0.00  0.00    +0.030 C 
ATOM     19  C   UNL     1      34.875 -18.493 -23.535  0.00  0.00    +0.005 C 
ENDBRANCH   9  14
ENDBRANCH   3   7
BRANCH   2  22
ATOM     20  N   UNL     1      30.605 -24.153 -15.560  0.00  0.00    -0.241 NA
ATOM     21  C   UNL     1      33.214 -24.060 -14.562  0.00  0.00    -0.006 C 
ATOM     22  C   UNL     1      32.889 -23.378 -15.728  0.00  0.00    +0.066 C 
ATOM     23  C   UNL     1      32.237 -24.788 -13.893  0.00  0.00    +0.018 C 
ATOM     24  C   UNL     1      31.582 -23.456 -16.182  0.00  0.00    +0.113 C 
ATOM     25  C   UNL     1      30.959 -24.803 -14.429  0.00  0.00    +0.099 C 
BRANCH  21  26
ATOM     26  C   UNL     1      34.602 -24.027 -14.007  0.00  0.00    +0.022 C 
ATOM     27  C   UNL     1      36.872 -25.172 -14.056  0.00  0.00    -0.002 C 
ATOM     28  C   UNL     1      35.455 -25.137 -14.649  0.00  0.00    +0.004 C 
ATOM     29  C   UNL     1      35.979 -24.211 -11.885  0.00  0.00    -0.065 C 
ATOM     30  C   UNL     1      34.563 -24.180 -12.475  0.00  0.00    -0.017 C 
ATOM     31  C   UNL     1      36.822 -25.318 -12.528  0.00  0.00    -0.022 C 
ATOM     32  C   UNL     1      37.687 -26.304 -14.680  0.00  0.00    -0.000 C 
BRANCH  29  33
ATOM     33  N   UNL     1      35.909 -24.416 -10.440  0.00  0.00    +0.382 N 
ATOM     34  H   UNL     1      36.849 -24.392 -10.047  0.00  0.00    -0.089 HD
ATOM     35  H   UNL     1      35.483 -25.323 -10.246  0.00  0.00    -0.089 HD
ATOM     36  H   UNL     1      35.345 -23.679 -10.018  0.00  0.00    -0.089 HD
ENDBRANCH  29  33
ENDBRANCH  21  26
ENDBRANCH   2  22
TORSDOF 5
ENDMDL
MODEL 7
REMARK VINA RESULT:      -9.6      7.776     12.627
REMARK  Name = 44814409
REMARK  5 active torsions:
REMARK  status: ('A' for Active; 'I' for Inactive)
REMARK    1  A    between atoms: N_2  and  C_22
REMARK    2  A    between atoms: C_3  and  C_7
REMARK    3  A    between atoms: C_9  and  C_14
REMARK    4  A    between atoms: C_21  and  C_26
REMARK    5  A    between atoms: C_29  and  N_33
REMARK                            x       y       z     vdW  Elec       q    Type
REMARK                         _______ _______ _______ _____ _____    ______ ____
ROOT
ATOM      1  O   UNL     1      35.712  -9.537 -24.057  0.00  0.00    -0.267 OA
ATOM      2  N   UNL     1      33.410  -9.110 -23.831  0.00  0.00    -0.278 N 
ATOM      3  C   UNL     1      34.538  -9.884 -24.136  0.00  0.00    +0.275 C 
ATOM      4  H   UNL     1      32.538  -9.551 -23.952  0.00  0.00    +0.155 HD
ENDROOT
BRANCH   3   7
ATOM      5  F   UNL     1      33.540 -15.141 -25.622  0.00  0.00    -0.202 F 
ATOM      6  N   UNL     1      34.579 -12.246 -23.686  0.00  0.00    -0.399 NA
ATOM      7  C   UNL     1      34.256 -11.277 -24.572  0.00  0.00    +0.167 C 
ATOM      8  C   UNL     1      33.696 -11.518 -25.816  0.00  0.00    +0.092 C 
ATOM      9  C   UNL     1      34.327 -13.517 -24.069  0.00  0.00    +0.162 C 
ATOM     10  C   UNL     1      33.452 -12.840 -26.174  0.00  0.00    +0.014 C 
ATOM     11  C   UNL     1      33.770 -13.864 -25.290  0.00  0.00    +0.166 C 
BRANCH   9  14
ATOM     12  F   UNL     1      33.731 -13.233 -21.344  0.00  0.00    -0.204 F 
ATOM     13  F   UNL     1      35.659 -15.876 -24.797  0.00  0.00    -0.204 F 
ATOM     14  C   UNL     1      34.684 -14.525 -23.098  0.00  0.00    +0.087 C 
ATOM     15  C   UNL     1      34.367 -14.341 -21.753  0.00  0.00    +0.145 C 
ATOM     16  C   UNL     1      35.346 -15.683 -23.507  0.00  0.00    +0.145 C 
ATOM     17  C   UNL     1      34.712 -15.315 -20.815  0.00  0.00    +0.030 C 
ATOM     18  C   UNL     1      35.691 -16.657 -22.570  0.00  0.00    +0.030 C 
ATOM     19  C   UNL     1      35.375 -16.472 -21.224  0.00  0.00    +0.005 C 
ENDBRANCH   9  14
ENDBRANCH   3   7
BRANCH   2  22
ATOM     20  N   UNL     1      34.069  -5.498 -23.691  0.00  0.00    -0.241 NA
ATOM     21  C   UNL     1      32.651  -7.426 -22.247  0.00  0.00    -0.006 C 
ATOM     22  C   UNL     1      33.370  -7.791 -23.378  0.00  0.00    +0.066 C 
ATOM     23  C   UNL     1      32.640  -6.097 -21.835  0.00  0.00    +0.018 C 
ATOM     24  C   UNL     1      34.056  -6.799 -24.060  0.00  0.00    +0.113 C 
ATOM     25  C   UNL     1      33.358  -5.181 -22.585  0.00  0.00    +0.099 C 
BRANCH  21  26
ATOM     26  C   UNL     1      31.883  -8.436 -21.456  0.00  0.00    +0.022 C 
ATOM     27  C   UNL     1      31.759  -9.652 -19.227  0.00  0.00    -0.002 C 
ATOM     28  C   UNL     1      32.487  -8.576 -20.047  0.00  0.00    +0.004 C 
ATOM     29  C   UNL     1      31.148 -10.861 -21.372  0.00  0.00    -0.065 C 
ATOM     30  C   UNL     1      31.879  -9.789 -22.191  0.00  0.00    -0.017 C 
ATOM     31  C   UNL     1      31.755 -10.996 -19.970  0.00  0.00    -0.022 C 
ATOM     32  C   UNL     1      32.400  -9.801 -17.848  0.00  0.00    -0.000 C 
BRANCH  29  33
ATOM     33  N   UNL     1      31.214 -12.146 -22.066  0.00  0.00    +0.382 N 
ATOM     34  H   UNL     1      30.727 -12.855 -21.519  0.00  0.00    -0.089 HD
ATOM     35  H   UNL     1      32.190 -12.419 -22.184  0.00  0.00    -0.089 HD
ATOM     36  H   UNL     1      30.773 -12.060 -22.982  0.00  0.00    -0.089 HD
ENDBRANCH  29  33
ENDBRANCH  21  26
ENDBRANCH   2  22
TORSDOF 5
ENDMDL
MODEL 8
REMARK VINA RESULT:      -9.5      8.688     14.279
REMARK  Name = 44814409
REMARK  5 active torsions:
REMARK  status: ('A' for Active; 'I' for Inactive)
REMARK    1  A    between atoms: N_2  and  C_22
REMARK    2  A    between atoms: C_3  and  C_7
REMARK    3  A    between atoms: C_9  and  C_14
REMARK    4  A    between atoms: C_21  and  C_26
REMARK    5  A    between atoms: C_29  and  N_33
REMARK                            x       y       z     vdW  Elec       q    Type
REMARK                         _______ _______ _______ _____ _____    ______ ____
ROOT
ATOM      1  O   UNL     1      32.120 -10.797 -21.640  0.00  0.00    -0.267 OA
ATOM      2  N   UNL     1      33.146  -8.850 -22.467  0.00  0.00    -0.278 N 
ATOM      3  C   UNL     1      32.789 -10.205 -22.480  0.00  0.00    +0.275 C 
ATOM      4  H   UNL     1      33.690  -8.540 -23.228  0.00  0.00    +0.155 HD
ENDROOT
BRANCH   3   7
ATOM      5  F   UNL     1      34.557 -13.224 -26.793  0.00  0.00    -0.202 F 
ATOM      6  N   UNL     1      33.511 -12.288 -23.441  0.00  0.00    -0.399 NA
ATOM      7  C   UNL     1      33.261 -10.978 -23.659  0.00  0.00    +0.167 C 
ATOM      8  C   UNL     1      33.421 -10.351 -24.885  0.00  0.00    +0.092 C 
ATOM      9  C   UNL     1      33.939 -13.003 -24.505  0.00  0.00    +0.162 C 
ATOM     10  C   UNL     1      33.864 -11.120 -25.955  0.00  0.00    +0.014 C 
ATOM     11  C   UNL     1      34.130 -12.472 -25.771  0.00  0.00    +0.166 C 
BRANCH   9  14
ATOM     12  F   UNL     1      32.956 -15.042 -26.161  0.00  0.00    -0.204 F 
ATOM     13  F   UNL     1      35.448 -13.836 -22.293  0.00  0.00    -0.204 F 
ATOM     14  C   UNL     1      34.195 -14.399 -24.235  0.00  0.00    +0.087 C 
ATOM     15  C   UNL     1      33.685 -15.378 -25.086  0.00  0.00    +0.145 C 
ATOM     16  C   UNL     1      34.952 -14.766 -23.122  0.00  0.00    +0.145 C 
ATOM     17  C   UNL     1      33.933 -16.726 -24.825  0.00  0.00    +0.030 C 
ATOM     18  C   UNL     1      35.199 -16.114 -22.860  0.00  0.00    +0.030 C 
ATOM     19  C   UNL     1      34.688 -17.094 -23.712  0.00  0.00    +0.005 C 
ENDBRANCH   9  14
ENDBRANCH   3   7
BRANCH   2  22
ATOM     20  N   UNL     1      32.444  -7.361 -19.183  0.00  0.00    -0.241 NA
ATOM     21  C   UNL     1      32.580  -6.562 -21.858  0.00  0.00    -0.006 C 
ATOM     22  C   UNL     1      32.826  -7.886 -21.512  0.00  0.00    +0.066 C 
ATOM     23  C   UNL     1      32.266  -5.637 -20.869  0.00  0.00    +0.018 C 
ATOM     24  C   UNL     1      32.747  -8.231 -20.172  0.00  0.00    +0.113 C 
ATOM     25  C   UNL     1      32.212  -6.083 -19.558  0.00  0.00    +0.099 C 
BRANCH  21  26
ATOM     26  C   UNL     1      32.647  -6.109 -23.281  0.00  0.00    +0.022 C 
ATOM     27  C   UNL     1      34.223  -5.480 -25.175  0.00  0.00    -0.002 C 
ATOM     28  C   UNL     1      34.115  -6.003 -23.735  0.00  0.00    +0.004 C 
ATOM     29  C   UNL     1      32.030  -4.241 -24.881  0.00  0.00    -0.065 C 
ATOM     30  C   UNL     1      31.923  -4.759 -23.441  0.00  0.00    -0.017 C 
ATOM     31  C   UNL     1      33.493  -4.138 -25.325  0.00  0.00    -0.022 C 
ATOM     32  C   UNL     1      35.688  -5.347 -25.589  0.00  0.00    -0.000 C 
BRANCH  29  33
ATOM     33  N   UNL     1      31.386  -2.933 -24.985  0.00  0.00    +0.382 N 
ATOM     34  H   UNL     1      32.055  -2.251 -25.342  0.00  0.00    -0.089 HD
ATOM     35  H   UNL     1      31.061  -2.640 -24.063  0.00  0.00    -0.089 HD
ATOM     36  H   UNL     1      30.591  -2.994 -25.621  0.00  0.00    -0.089 HD
ENDBRANCH  29  33
ENDBRANCH  21  26
ENDBRANCH   2  22
TORSDOF 5
ENDMDL
MODEL 9
REMARK VINA RESULT:      -9.5      4.946      8.507
REMARK  Name = 44814409
REMARK  5 active torsions:
REMARK  status: ('A' for Active; 'I' for Inactive)
REMARK    1  A    between atoms: N_2  and  C_22
REMARK    2  A    between atoms: C_3  and  C_7
REMARK    3  A    between atoms: C_9  and  C_14
REMARK    4  A    between atoms: C_21  and  C_26
REMARK    5  A    between atoms: C_29  and  N_33
REMARK                            x       y       z     vdW  Elec       q    Type
REMARK                         _______ _______ _______ _____ _____    ______ ____
ROOT
ATOM      1  O   UNL     1      32.764 -24.911 -12.755  0.00  0.00    -0.267 OA
ATOM      2  N   UNL     1      33.627 -23.315 -14.251  0.00  0.00    -0.278 N 
ATOM      3  C   UNL     1      33.685 -24.226 -13.188  0.00  0.00    +0.275 C 
ATOM      4  H   UNL     1      34.468 -22.850 -14.467  0.00  0.00    +0.155 HD
ENDROOT
BRANCH   3   7
ATOM      5  F   UNL     1      38.732 -24.854 -10.956  0.00  0.00    -0.202 F 
ATOM      6  N   UNL     1      35.998 -24.861 -13.352  0.00  0.00    -0.399 NA
ATOM      7  C   UNL     1      35.020 -24.380 -12.553  0.00  0.00    +0.167 C 
ATOM      8  C   UNL     1      35.203 -24.039 -11.222  0.00  0.00    +0.092 C 
ATOM      9  C   UNL     1      37.218 -25.005 -12.787  0.00  0.00    +0.162 C 
ATOM     10  C   UNL     1      36.472 -24.202 -10.678  0.00  0.00    +0.014 C 
ATOM     11  C   UNL     1      37.505 -24.693 -11.469  0.00  0.00    +0.166 C 
BRANCH   9  14
ATOM     12  F   UNL     1      39.832 -23.988 -12.793  0.00  0.00    -0.204 F 
ATOM     13  F   UNL     1      36.703 -27.081 -14.601  0.00  0.00    -0.204 F 
ATOM     14  C   UNL     1      38.238 -25.520 -13.671  0.00  0.00    +0.087 C 
ATOM     15  C   UNL     1      39.525 -24.983 -13.639  0.00  0.00    +0.145 C 
ATOM     16  C   UNL     1      37.936 -26.555 -14.557  0.00  0.00    +0.145 C 
ATOM     17  C   UNL     1      40.510 -25.482 -14.492  0.00  0.00    +0.030 C 
ATOM     18  C   UNL     1      38.920 -27.053 -15.410  0.00  0.00    +0.030 C 
ATOM     19  C   UNL     1      40.207 -26.515 -15.378  0.00  0.00    +0.005 C 
ENDBRANCH   9  14
ENDBRANCH   3   7
BRANCH   2  22
ATOM     20  N   UNL     1      30.145 -22.589 -15.173  0.00  0.00    -0.241 NA
ATOM     21  C   UNL     1      32.650 -22.736 -16.404  0.00  0.00    -0.006 C 
ATOM     22  C   UNL     1      32.526 -22.988 -15.043  0.00  0.00    +0.066 C 
ATOM     23  C   UNL     1      31.523 -22.412 -17.151  0.00  0.00    +0.018 C 
ATOM     24  C   UNL     1      31.263 -22.902 -14.480  0.00  0.00    +0.113 C 
ATOM     25  C   UNL     1      30.305 -22.351 -16.494  0.00  0.00    +0.099 C 
BRANCH  21  26
ATOM     26  C   UNL     1      33.978 -22.807 -17.088  0.00  0.00    +0.022 C 
ATOM     27  C   UNL     1      36.477 -22.450 -16.784  0.00  0.00    -0.002 C 
ATOM     28  C   UNL     1      35.102 -22.447 -16.099  0.00  0.00    +0.004 C 
ATOM     29  C   UNL     1      35.369 -21.877 -18.992  0.00  0.00    -0.065 C 
ATOM     30  C   UNL     1      33.996 -21.868 -18.308  0.00  0.00    -0.017 C 
ATOM     31  C   UNL     1      36.483 -21.516 -18.003  0.00  0.00    -0.022 C 
ATOM     32  C   UNL     1      37.571 -22.052 -15.794  0.00  0.00    -0.000 C 
BRANCH  29  33
ATOM     33  N   UNL     1      35.371 -20.932 -20.108  0.00  0.00    +0.382 N 
ATOM     34  H   UNL     1      36.106 -21.186 -20.768  0.00  0.00    -0.089 HD
ATOM     35  H   UNL     1      35.542 -19.990 -19.755  0.00  0.00    -0.089 HD
ATOM     36  H   UNL     1      34.467 -20.959 -20.579  0.00  0.00    -0.089 HD
ENDBRANCH  29  33
ENDBRANCH  21  26
ENDBRANCH   2  22
TORSDOF 5
ENDMDL
