MODEL 1
REMARK VINA RESULT:     -11.3      0.000      0.000
REMARK  Name = 11691242
REMARK  5 active torsions:
REMARK  status: ('A' for Active; 'I' for Inactive)
REMARK    1  A    between atoms: N_1  and  C_25
REMARK    2  A    between atoms: C_5  and  N_11
REMARK    3  A    between atoms: N_12  and  C_17
REMARK    4  A    between atoms: C_18  and  O_23
REMARK    5  A    between atoms: C_25  and  C_28
REMARK                            x       y       z     vdW  Elec       q    Type
REMARK                         _______ _______ _______ _____ _____    ______ ____
ROOT
ATOM      1  N   UNL     1      35.393 -16.391 -22.323  0.00  0.00    -0.282 N 
ATOM      2  C   UNL     1      34.764 -15.580 -23.240  0.00  0.00    +0.053 C 
ATOM      3  C   UNL     1      34.206 -14.514 -22.530  0.00  0.00    +0.028 C 
ATOM      4  C   UNL     1      35.253 -15.877 -21.063  0.00  0.00    +0.066 C 
ATOM      5  C   UNL     1      33.496 -13.524 -23.238  0.00  0.00    +0.053 C 
ATOM      6  C   UNL     1      34.522 -14.716 -21.157  0.00  0.00    +0.019 C 
ATOM      7  C   UNL     1      34.647 -15.705 -24.628  0.00  0.00    +0.015 C 
ATOM      8  C   UNL     1      33.370 -13.637 -24.628  0.00  0.00    +0.015 C 
ATOM      9  C   UNL     1      33.938 -14.711 -25.311  0.00  0.00    +0.003 C 
ENDROOT
BRANCH   5  11
ATOM     10  O   UNL     1      33.954 -10.593 -23.584  0.00  0.00    -0.252 OA
ATOM     11  N   UNL     1      32.918 -12.439 -22.579  0.00  0.00    -0.268 N 
ATOM     12  N   UNL     1      32.364 -10.304 -21.894  0.00  0.00    -0.266 N 
ATOM     13  C   UNL     1      33.161 -11.057 -22.770  0.00  0.00    +0.308 C 
ATOM     14  H   UNL     1      32.253 -12.663 -21.888  0.00  0.00    +0.156 HD
ATOM     15  H   UNL     1      31.774 -10.818 -21.296  0.00  0.00    +0.157 HD
BRANCH  12  17
ATOM     16 BR   UNL     1      31.662  -5.685 -24.309  0.00  0.00    -0.049 Br
ATOM     17  C   UNL     1      32.303  -8.896 -21.764  0.00  0.00    +0.086 C 
ATOM     18  C   UNL     1      32.491  -8.307 -20.523  0.00  0.00    +0.152 C 
ATOM     19  C   UNL     1      32.055  -8.133 -22.893  0.00  0.00    +0.024 C 
ATOM     20  C   UNL     1      32.427  -6.919 -20.410  0.00  0.00    +0.039 C 
ATOM     21  C   UNL     1      31.992  -6.744 -22.780  0.00  0.00    +0.036 C 
ATOM     22  C   UNL     1      32.178  -6.137 -21.538  0.00  0.00    +0.010 C 
BRANCH  18  23
ATOM     23  O   UNL     1      32.736  -9.053 -19.409  0.00  0.00    -0.470 OA
ATOM     24  C   UNL     1      31.665  -9.856 -18.918  0.00  0.00    +0.253 C 
ENDBRANCH  18  23
ENDBRANCH  12  17
ENDBRANCH   5  11
BRANCH   1  25
ATOM     25  C   UNL     1      36.101 -17.616 -22.631  0.00  0.00    +0.122 C 
BRANCH  25  28
ATOM     26  N   UNL     1      35.350 -20.642 -19.691  0.00  0.00    -0.230 NA
ATOM     27  N   UNL     1      33.031 -20.573 -20.233  0.00  0.00    -0.343 N 
ATOM     28  C   UNL     1      35.837 -18.677 -21.598  0.00  0.00    +0.002 C 
ATOM     29  C   UNL     1      34.545 -19.131 -21.397  0.00  0.00    +0.031 C 
ATOM     30  C   UNL     1      36.889 -19.190 -20.861  0.00  0.00    +0.018 C 
ATOM     31  C   UNL     1      34.355 -20.110 -20.436  0.00  0.00    +0.125 C 
ATOM     32  C   UNL     1      36.594 -20.167 -19.924  0.00  0.00    +0.100 C 
ATOM     33  H   UNL     1      32.851 -21.269 -19.561  0.00  0.00    +0.144 HD
ATOM     34  H   UNL     1      32.292 -20.200 -20.766  0.00  0.00    +0.144 HD
ENDBRANCH  25  28
ENDBRANCH   1  25
TORSDOF 5
ENDMDL
MODEL 2
REMARK VINA RESULT:     -11.0      5.971      9.960
REMARK  Name = 11691242
REMARK  5 active torsions:
REMARK  status: ('A' for Active; 'I' for Inactive)
REMARK    1  A    between atoms: N_1  and  C_25
REMARK    2  A    between atoms: C_5  and  N_11
REMARK    3  A    between atoms: N_12  and  C_17
REMARK    4  A    between atoms: C_18  and  O_23
REMARK    5  A    between atoms: C_25  and  C_28
REMARK                            x       y       z     vdW  Elec       q    Type
REMARK                         _______ _______ _______ _____ _____    ______ ____
ROOT
ATOM      1  N   UNL     1      36.210 -22.816 -15.494  0.00  0.00    -0.282 N 
ATOM      2  C   UNL     1      35.316 -22.710 -16.535  0.00  0.00    +0.053 C 
ATOM      3  C   UNL     1      35.866 -21.819 -17.460  0.00  0.00    +0.028 C 
ATOM      4  C   UNL     1      37.303 -22.026 -15.728  0.00  0.00    +0.066 C 
ATOM      5  C   UNL     1      35.144 -21.528 -18.634  0.00  0.00    +0.053 C 
ATOM      6  C   UNL     1      37.120 -21.395 -16.936  0.00  0.00    +0.019 C 
ATOM      7  C   UNL     1      34.075 -23.326 -16.727  0.00  0.00    +0.015 C 
ATOM      8  C   UNL     1      33.901 -22.138 -18.840  0.00  0.00    +0.015 C 
ATOM      9  C   UNL     1      33.376 -23.023 -17.901  0.00  0.00    +0.003 C 
ENDROOT
BRANCH   5  11
ATOM     10  O   UNL     1      33.711 -19.743 -20.553  0.00  0.00    -0.252 OA
ATOM     11  N   UNL     1      35.647 -20.646 -19.591  0.00  0.00    -0.268 N 
ATOM     12  N   UNL     1      35.833 -19.083 -21.281  0.00  0.00    -0.266 N 
ATOM     13  C   UNL     1      34.935 -19.812 -20.486  0.00  0.00    +0.308 C 
ATOM     14  H   UNL     1      36.629 -20.595 -19.652  0.00  0.00    +0.156 HD
ATOM     15  H   UNL     1      36.789 -19.245 -21.112  0.00  0.00    +0.157 HD
BRANCH  12  17
ATOM     16 BR   UNL     1      34.770 -14.068 -22.462  0.00  0.00    -0.049 Br
ATOM     17  C   UNL     1      35.534 -18.142 -22.295  0.00  0.00    +0.086 C 
ATOM     18  C   UNL     1      35.439 -18.554 -23.616  0.00  0.00    +0.152 C 
ATOM     19  C   UNL     1      35.340 -16.817 -21.939  0.00  0.00    +0.024 C 
ATOM     20  C   UNL     1      35.143 -17.616 -24.604  0.00  0.00    +0.039 C 
ATOM     21  C   UNL     1      35.044 -15.879 -22.928  0.00  0.00    +0.036 C 
ATOM     22  C   UNL     1      34.946 -16.278 -24.260  0.00  0.00    +0.010 C 
BRANCH  18  23
ATOM     23  O   UNL     1      35.627 -19.856 -23.971  0.00  0.00    -0.470 OA
ATOM     24  C   UNL     1      34.935 -20.318 -25.130  0.00  0.00    +0.253 C 
ENDBRANCH  18  23
ENDBRANCH  12  17
ENDBRANCH   5  11
BRANCH   1  25
ATOM     25  C   UNL     1      36.034 -23.636 -14.315  0.00  0.00    +0.122 C 
BRANCH  25  28
ATOM     26  N   UNL     1      39.420 -26.178 -13.656  0.00  0.00    -0.230 NA
ATOM     27  N   UNL     1      38.997 -27.258 -15.737  0.00  0.00    -0.343 N 
ATOM     28  C   UNL     1      37.222 -24.530 -14.084  0.00  0.00    +0.002 C 
ATOM     29  C   UNL     1      37.555 -25.485 -15.027  0.00  0.00    +0.031 C 
ATOM     30  C   UNL     1      37.970 -24.385 -12.929  0.00  0.00    +0.018 C 
ATOM     31  C   UNL     1      38.658 -26.281 -14.768  0.00  0.00    +0.125 C 
ATOM     32  C   UNL     1      39.055 -25.231 -12.763  0.00  0.00    +0.100 C 
ATOM     33  H   UNL     1      39.774 -27.844 -15.593  0.00  0.00    +0.144 HD
ATOM     34  H   UNL     1      38.455 -27.348 -16.555  0.00  0.00    +0.144 HD
ENDBRANCH  25  28
ENDBRANCH   1  25
TORSDOF 5
ENDMDL
MODEL 3
REMARK VINA RESULT:     -10.8      6.818     11.811
REMARK  Name = 11691242
REMARK  5 active torsions:
REMARK  status: ('A' for Active; 'I' for Inactive)
REMARK    1  A    between atoms: N_1  and  C_25
REMARK    2  A    between atoms: C_5  and  N_11
REMARK    3  A    between atoms: N_12  and  C_17
REMARK    4  A    between atoms: C_18  and  O_23
REMARK    5  A    between atoms: C_25  and  C_28
REMARK                            x       y       z     vdW  Elec       q    Type
REMARK                         _______ _______ _______ _____ _____    ______ ____
ROOT
ATOM      1  N   UNL     1      36.131 -18.414 -22.705  0.00  0.00    -0.282 N 
ATOM      2  C   UNL     1      35.350 -19.142 -21.836  0.00  0.00    +0.053 C 
ATOM      3  C   UNL     1      36.166 -19.515 -20.765  0.00  0.00    +0.028 C 
ATOM      4  C   UNL     1      37.408 -18.314 -22.223  0.00  0.00    +0.066 C 
ATOM      5  C   UNL     1      35.608 -20.278 -19.720  0.00  0.00    +0.053 C 
ATOM      6  C   UNL     1      37.462 -18.986 -21.024  0.00  0.00    +0.019 C 
ATOM      7  C   UNL     1      33.999 -19.495 -21.913  0.00  0.00    +0.015 C 
ATOM      8  C   UNL     1      34.257 -20.639 -19.785  0.00  0.00    +0.015 C 
ATOM      9  C   UNL     1      33.467 -20.252 -20.865  0.00  0.00    +0.003 C 
ENDROOT
BRANCH   5  11
ATOM     10  O   UNL     1      35.288 -22.615 -17.888  0.00  0.00    -0.252 OA
ATOM     11  N   UNL     1      36.379 -20.677 -18.627  0.00  0.00    -0.268 N 
ATOM     12  N   UNL     1      37.202 -21.825 -16.800  0.00  0.00    -0.266 N 
ATOM     13  C   UNL     1      36.196 -21.796 -17.779  0.00  0.00    +0.308 C 
ATOM     14  H   UNL     1      37.153 -20.106 -18.418  0.00  0.00    +0.156 HD
ATOM     15  H   UNL     1      37.863 -21.098 -16.839  0.00  0.00    +0.157 HD
BRANCH  12  17
ATOM     16 BR   UNL     1      40.375 -25.401 -14.606  0.00  0.00    -0.049 Br
ATOM     17  C   UNL     1      37.382 -22.772 -15.764  0.00  0.00    +0.086 C 
ATOM     18  C   UNL     1      36.379 -22.976 -14.830  0.00  0.00    +0.152 C 
ATOM     19  C   UNL     1      38.572 -23.481 -15.710  0.00  0.00    +0.024 C 
ATOM     20  C   UNL     1      36.571 -23.912 -13.815  0.00  0.00    +0.039 C 
ATOM     21  C   UNL     1      38.763 -24.418 -14.694  0.00  0.00    +0.036 C 
ATOM     22  C   UNL     1      37.763 -24.634 -13.747  0.00  0.00    +0.010 C 
BRANCH  18  23
ATOM     23  O   UNL     1      35.207 -22.282 -14.880  0.00  0.00    -0.470 OA
ATOM     24  C   UNL     1      34.004 -23.028 -14.703  0.00  0.00    +0.253 C 
ENDBRANCH  18  23
ENDBRANCH  12  17
ENDBRANCH   5  11
BRANCH   1  25
ATOM     25  C   UNL     1      35.683 -17.835 -23.954  0.00  0.00    +0.122 C 
BRANCH  25  28
ATOM     26  N   UNL     1      33.956 -13.960 -23.349  0.00  0.00    -0.230 NA
ATOM     27  N   UNL     1      33.038 -14.042 -25.546  0.00  0.00    -0.343 N 
ATOM     28  C   UNL     1      35.077 -16.474 -23.743  0.00  0.00    +0.002 C 
ATOM     29  C   UNL     1      34.335 -15.890 -24.754  0.00  0.00    +0.031 C 
ATOM     30  C   UNL     1      35.267 -15.821 -22.538  0.00  0.00    +0.018 C 
ATOM     31  C   UNL     1      33.798 -14.637 -24.509  0.00  0.00    +0.125 C 
ATOM     32  C   UNL     1      34.688 -14.571 -22.392  0.00  0.00    +0.100 C 
ATOM     33  H   UNL     1      32.637 -13.153 -25.415  0.00  0.00    +0.144 HD
ATOM     34  H   UNL     1      32.910 -14.520 -26.398  0.00  0.00    +0.144 HD
ENDBRANCH  25  28
ENDBRANCH   1  25
TORSDOF 5
ENDMDL
MODEL 4
REMARK VINA RESULT:     -10.7      3.939     10.428
REMARK  Name = 11691242
REMARK  5 active torsions:
REMARK  status: ('A' for Active; 'I' for Inactive)
REMARK    1  A    between atoms: N_1  and  C_25
REMARK    2  A    between atoms: C_5  and  N_11
REMARK    3  A    between atoms: N_12  and  C_17
REMARK    4  A    between atoms: C_18  and  O_23
REMARK    5  A    between atoms: C_25  and  C_28
REMARK                            x       y       z     vdW  Elec       q    Type
REMARK                         _______ _______ _______ _____ _____    ______ ____
ROOT
ATOM      1  N   UNL     1      32.676  -8.822 -21.938  0.00  0.00    -0.282 N 
ATOM      2  C   UNL     1      33.610  -9.114 -22.906  0.00  0.00    +0.053 C 
ATOM      3  C   UNL     1      33.417 -10.448 -23.274  0.00  0.00    +0.028 C 
ATOM      4  C   UNL     1      31.902  -9.922 -21.681  0.00  0.00    +0.066 C 
ATOM      5  C   UNL     1      34.252 -11.007 -24.261  0.00  0.00    +0.053 C 
ATOM      6  C   UNL     1      32.337 -10.945 -22.491  0.00  0.00    +0.019 C 
ATOM      7  C   UNL     1      34.600  -8.309 -23.479  0.00  0.00    +0.015 C 
ATOM      8  C   UNL     1      35.248 -10.213 -24.843  0.00  0.00    +0.015 C 
ATOM      9  C   UNL     1      35.417  -8.885 -24.457  0.00  0.00    +0.003 C 
ENDROOT
BRANCH   5  11
ATOM     10  O   UNL     1      35.020 -13.541 -22.878  0.00  0.00    -0.252 OA
ATOM     11  N   UNL     1      34.103 -12.335 -24.665  0.00  0.00    -0.268 N 
ATOM     12  N   UNL     1      34.147 -14.642 -24.748  0.00  0.00    -0.266 N 
ATOM     13  C   UNL     1      34.481 -13.515 -23.980  0.00  0.00    +0.308 C 
ATOM     14  H   UNL     1      33.679 -12.469 -25.544  0.00  0.00    +0.156 HD
ATOM     15  H   UNL     1      33.717 -14.463 -25.614  0.00  0.00    +0.157 HD
BRANCH  12  17
ATOM     16 BR   UNL     1      36.886 -18.141 -21.931  0.00  0.00    -0.049 Br
ATOM     17  C   UNL     1      34.353 -16.005 -24.428  0.00  0.00    +0.086 C 
ATOM     18  C   UNL     1      33.579 -16.983 -25.034  0.00  0.00    +0.152 C 
ATOM     19  C   UNL     1      35.334 -16.333 -23.506  0.00  0.00    +0.024 C 
ATOM     20  C   UNL     1      33.793 -18.322 -24.709  0.00  0.00    +0.039 C 
ATOM     21  C   UNL     1      35.548 -17.672 -23.181  0.00  0.00    +0.036 C 
ATOM     22  C   UNL     1      34.777 -18.667 -23.782  0.00  0.00    +0.010 C 
BRANCH  18  23
ATOM     23  O   UNL     1      32.614 -16.666 -25.942  0.00  0.00    -0.470 OA
ATOM     24  C   UNL     1      31.625 -17.659 -26.211  0.00  0.00    +0.253 C 
ENDBRANCH  18  23
ENDBRANCH  12  17
ENDBRANCH   5  11
BRANCH   1  25
ATOM     25  C   UNL     1      32.524  -7.545 -21.274  0.00  0.00    +0.122 C 
BRANCH  25  28
ATOM     26  N   UNL     1      31.274  -4.498 -24.017  0.00  0.00    -0.230 NA
ATOM     27  N   UNL     1      31.983  -2.833 -22.468  0.00  0.00    -0.343 N 
ATOM     28  C   UNL     1      32.084  -6.475 -22.236  0.00  0.00    +0.002 C 
ATOM     29  C   UNL     1      32.240  -5.143 -21.897  0.00  0.00    +0.031 C 
ATOM     30  C   UNL     1      31.530  -6.835 -23.451  0.00  0.00    +0.018 C 
ATOM     31  C   UNL     1      31.821  -4.196 -22.818  0.00  0.00    +0.125 C 
ATOM     32  C   UNL     1      31.142  -5.813 -24.303  0.00  0.00    +0.100 C 
ATOM     33  H   UNL     1      31.700  -2.128 -23.092  0.00  0.00    +0.144 HD
ATOM     34  H   UNL     1      32.381  -2.592 -21.600  0.00  0.00    +0.144 HD
ENDBRANCH  25  28
ENDBRANCH   1  25
TORSDOF 5
ENDMDL
MODEL 5
REMARK VINA RESULT:     -10.7      3.967     10.531
REMARK  Name = 11691242
REMARK  5 active torsions:
REMARK  status: ('A' for Active; 'I' for Inactive)
REMARK    1  A    between atoms: N_1  and  C_25
REMARK    2  A    between atoms: C_5  and  N_11
REMARK    3  A    between atoms: N_12  and  C_17
REMARK    4  A    between atoms: C_18  and  O_23
REMARK    5  A    between atoms: C_25  and  C_28
REMARK                            x       y       z     vdW  Elec       q    Type
REMARK                         _______ _______ _______ _____ _____    ______ ____
ROOT
ATOM      1  N   UNL     1      34.794  -7.884 -23.497  0.00  0.00    -0.282 N 
ATOM      2  C   UNL     1      33.900  -8.828 -23.046  0.00  0.00    +0.053 C 
ATOM      3  C   UNL     1      34.206 -10.027 -23.694  0.00  0.00    +0.028 C 
ATOM      4  C   UNL     1      35.651  -8.441 -24.407  0.00  0.00    +0.066 C 
ATOM      5  C   UNL     1      33.433 -11.170 -23.410  0.00  0.00    +0.053 C 
ATOM      6  C   UNL     1      35.313  -9.767 -24.551  0.00  0.00    +0.019 C 
ATOM      7  C   UNL     1      32.856  -8.716 -22.122  0.00  0.00    +0.015 C 
ATOM      8  C   UNL     1      32.385 -11.072 -22.487  0.00  0.00    +0.015 C 
ATOM      9  C   UNL     1      32.102  -9.863 -21.854  0.00  0.00    +0.003 C 
ENDROOT
BRANCH   5  11
ATOM     10  O   UNL     1      33.920 -13.867 -22.223  0.00  0.00    -0.252 OA
ATOM     11  N   UNL     1      33.696 -12.392 -24.030  0.00  0.00    -0.268 N 
ATOM     12  N   UNL     1      34.149 -14.621 -24.425  0.00  0.00    -0.266 N 
ATOM     13  C   UNL     1      33.922 -13.655 -23.432  0.00  0.00    +0.308 C 
ATOM     14  H   UNL     1      33.728 -12.374 -25.014  0.00  0.00    +0.156 HD
ATOM     15  H   UNL     1      34.119 -14.300 -25.355  0.00  0.00    +0.157 HD
BRANCH  12  17
ATOM     16 BR   UNL     1      37.042 -18.282 -21.997  0.00  0.00    -0.049 Br
ATOM     17  C   UNL     1      34.414 -16.001 -24.254  0.00  0.00    +0.086 C 
ATOM     18  C   UNL     1      33.681 -16.940 -24.963  0.00  0.00    +0.152 C 
ATOM     19  C   UNL     1      35.410 -16.383 -23.370  0.00  0.00    +0.024 C 
ATOM     20  C   UNL     1      33.952 -18.296 -24.784  0.00  0.00    +0.039 C 
ATOM     21  C   UNL     1      35.682 -17.740 -23.192  0.00  0.00    +0.036 C 
ATOM     22  C   UNL     1      34.953 -18.696 -23.898  0.00  0.00    +0.010 C 
BRANCH  18  23
ATOM     23  O   UNL     1      32.700 -16.569 -25.834  0.00  0.00    -0.470 OA
ATOM     24  C   UNL     1      31.730 -17.557 -26.177  0.00  0.00    +0.253 C 
ENDBRANCH  18  23
ENDBRANCH  12  17
ENDBRANCH   5  11
BRANCH   1  25
ATOM     25  C   UNL     1      34.832  -6.497 -23.085  0.00  0.00    +0.122 C 
BRANCH  25  28
ATOM     26  N   UNL     1      31.180  -4.473 -24.052  0.00  0.00    -0.230 NA
ATOM     27  N   UNL     1      30.874  -3.954 -21.748  0.00  0.00    -0.343 N 
ATOM     28  C   UNL     1      33.549  -5.787 -23.423  0.00  0.00    +0.002 C 
ATOM     29  C   UNL     1      32.805  -5.199 -22.417  0.00  0.00    +0.031 C 
ATOM     30  C   UNL     1      33.128  -5.729 -24.740  0.00  0.00    +0.018 C 
ATOM     31  C   UNL     1      31.633  -4.556 -22.781  0.00  0.00    +0.125 C 
ATOM     32  C   UNL     1      31.942  -5.063 -25.001  0.00  0.00    +0.100 C 
ATOM     33  H   UNL     1      30.035  -3.487 -21.962  0.00  0.00    +0.144 HD
ATOM     34  H   UNL     1      31.187  -4.002 -20.815  0.00  0.00    +0.144 HD
ENDBRANCH  25  28
ENDBRANCH   1  25
TORSDOF 5
ENDMDL
MODEL 6
REMARK VINA RESULT:     -10.7      4.347     10.758
REMARK  Name = 11691242
REMARK  5 active torsions:
REMARK  status: ('A' for Active; 'I' for Inactive)
REMARK    1  A    between atoms: N_1  and  C_25
REMARK    2  A    between atoms: C_5  and  N_11
REMARK    3  A    between atoms: N_12  and  C_17
REMARK    4  A    between atoms: C_18  and  O_23
REMARK    5  A    between atoms: C_25  and  C_28
REMARK                            x       y       z     vdW  Elec       q    Type
REMARK                         _______ _______ _______ _____ _____    ______ ____
ROOT
ATOM      1  N   UNL     1      34.857  -7.995 -23.666  0.00  0.00    -0.282 N 
ATOM      2  C   UNL     1      33.959  -8.943 -23.230  0.00  0.00    +0.053 C 
ATOM      3  C   UNL     1      34.319 -10.155 -23.824  0.00  0.00    +0.028 C 
ATOM      4  C   UNL     1      35.770  -8.564 -24.513  0.00  0.00    +0.066 C 
ATOM      5  C   UNL     1      33.553 -11.303 -23.542  0.00  0.00    +0.053 C 
ATOM      6  C   UNL     1      35.463  -9.900 -24.632  0.00  0.00    +0.019 C 
ATOM      7  C   UNL     1      32.867  -8.822 -22.364  0.00  0.00    +0.015 C 
ATOM      8  C   UNL     1      32.457 -11.197 -22.678  0.00  0.00    +0.015 C 
ATOM      9  C   UNL     1      32.121  -9.975 -22.098  0.00  0.00    +0.003 C 
ENDROOT
BRANCH   5  11
ATOM     10  O   UNL     1      33.853 -13.988 -22.268  0.00  0.00    -0.252 OA
ATOM     11  N   UNL     1      33.869 -12.538 -24.109  0.00  0.00    -0.268 N 
ATOM     12  N   UNL     1      34.331 -14.780 -24.416  0.00  0.00    -0.266 N 
ATOM     13  C   UNL     1      34.003 -13.795 -23.471  0.00  0.00    +0.308 C 
ATOM     14  H   UNL     1      34.019 -12.536 -25.082  0.00  0.00    +0.156 HD
ATOM     15  H   UNL     1      34.418 -14.474 -25.347  0.00  0.00    +0.157 HD
BRANCH  12  17
ATOM     16 BR   UNL     1      37.102 -18.441 -21.849  0.00  0.00    -0.049 Br
ATOM     17  C   UNL     1      34.552 -16.160 -24.194  0.00  0.00    +0.086 C 
ATOM     18  C   UNL     1      33.791 -17.101 -24.872  0.00  0.00    +0.152 C 
ATOM     19  C   UNL     1      35.534 -16.542 -23.294  0.00  0.00    +0.024 C 
ATOM     20  C   UNL     1      34.020 -18.457 -24.643  0.00  0.00    +0.039 C 
ATOM     21  C   UNL     1      35.763 -17.899 -23.066  0.00  0.00    +0.036 C 
ATOM     22  C   UNL     1      35.005 -18.857 -23.740  0.00  0.00    +0.010 C 
BRANCH  18  23
ATOM     23  O   UNL     1      32.825 -16.730 -25.759  0.00  0.00    -0.470 OA
ATOM     24  C   UNL     1      31.813 -17.692 -26.054  0.00  0.00    +0.253 C 
ENDBRANCH  18  23
ENDBRANCH  12  17
ENDBRANCH   5  11
BRANCH   1  25
ATOM     25  C   UNL     1      34.849  -6.596 -23.296  0.00  0.00    +0.122 C 
BRANCH  25  28
ATOM     26  N   UNL     1      33.276  -4.155 -26.448  0.00  0.00    -0.230 NA
ATOM     27  N   UNL     1      35.442  -4.060 -27.436  0.00  0.00    -0.343 N 
ATOM     28  C   UNL     1      34.298  -5.738 -24.403  0.00  0.00    +0.002 C 
ATOM     29  C   UNL     1      35.137  -5.296 -25.410  0.00  0.00    +0.031 C 
ATOM     30  C   UNL     1      32.956  -5.402 -24.402  0.00  0.00    +0.018 C 
ATOM     31  C   UNL     1      34.580  -4.510 -26.406  0.00  0.00    +0.125 C 
ATOM     32  C   UNL     1      32.497  -4.611 -25.442  0.00  0.00    +0.100 C 
ATOM     33  H   UNL     1      35.088  -3.500 -28.164  0.00  0.00    +0.144 HD
ATOM     34  H   UNL     1      36.395  -4.309 -27.424  0.00  0.00    +0.144 HD
ENDBRANCH  25  28
ENDBRANCH   1  25
TORSDOF 5
ENDMDL
MODEL 7
REMARK VINA RESULT:     -10.5      6.930     12.396
REMARK  Name = 11691242
REMARK  5 active torsions:
REMARK  status: ('A' for Active; 'I' for Inactive)
REMARK    1  A    between atoms: N_1  and  C_25
REMARK    2  A    between atoms: C_5  and  N_11
REMARK    3  A    between atoms: N_12  and  C_17
REMARK    4  A    between atoms: C_18  and  O_23
REMARK    5  A    between atoms: C_25  and  C_28
REMARK                            x       y       z     vdW  Elec       q    Type
REMARK                         _______ _______ _______ _____ _____    ______ ____
ROOT
ATOM      1  N   UNL     1      36.074 -18.725 -21.734  0.00  0.00    -0.282 N 
ATOM      2  C   UNL     1      35.328 -19.588 -20.965  0.00  0.00    +0.053 C 
ATOM      3  C   UNL     1      36.188 -20.133 -20.008  0.00  0.00    +0.028 C 
ATOM      4  C   UNL     1      37.372 -18.705 -21.299  0.00  0.00    +0.066 C 
ATOM      5  C   UNL     1      35.671 -21.061 -19.082  0.00  0.00    +0.053 C 
ATOM      6  C   UNL     1      37.474 -19.567 -20.232  0.00  0.00    +0.019 C 
ATOM      7  C   UNL     1      33.973 -19.926 -21.042  0.00  0.00    +0.015 C 
ATOM      8  C   UNL     1      34.317 -21.408 -19.147  0.00  0.00    +0.015 C 
ATOM      9  C   UNL     1      33.482 -20.848 -20.112  0.00  0.00    +0.003 C 
ENDROOT
BRANCH   5  11
ATOM     10  O   UNL     1      34.946 -22.439 -16.533  0.00  0.00    -0.252 OA
ATOM     11  N   UNL     1      36.486 -21.636 -18.106  0.00  0.00    -0.268 N 
ATOM     12  N   UNL     1      37.245 -22.716 -16.211  0.00  0.00    -0.266 N 
ATOM     13  C   UNL     1      36.104 -22.283 -16.906  0.00  0.00    +0.308 C 
ATOM     14  H   UNL     1      37.455 -21.585 -18.273  0.00  0.00    +0.156 HD
ATOM     15  H   UNL     1      38.110 -22.518 -16.636  0.00  0.00    +0.157 HD
BRANCH  12  17
ATOM     16 BR   UNL     1      34.723 -24.055 -11.793  0.00  0.00    -0.049 Br
ATOM     17  C   UNL     1      37.304 -23.402 -14.975  0.00  0.00    +0.086 C 
ATOM     18  C   UNL     1      38.463 -24.067 -14.606  0.00  0.00    +0.152 C 
ATOM     19  C   UNL     1      36.188 -23.391 -14.153  0.00  0.00    +0.024 C 
ATOM     20  C   UNL     1      38.506 -24.739 -13.386  0.00  0.00    +0.039 C 
ATOM     21  C   UNL     1      36.232 -24.063 -12.931  0.00  0.00    +0.036 C 
ATOM     22  C   UNL     1      37.390 -24.738 -12.548  0.00  0.00    +0.010 C 
BRANCH  18  23
ATOM     23  O   UNL     1      39.563 -24.080 -15.410  0.00  0.00    -0.470 OA
ATOM     24  C   UNL     1      40.563 -25.056 -15.125  0.00  0.00    +0.253 C 
ENDBRANCH  18  23
ENDBRANCH  12  17
ENDBRANCH   5  11
BRANCH   1  25
ATOM     25  C   UNL     1      35.576 -17.946 -22.848  0.00  0.00    +0.122 C 
BRANCH  25  28
ATOM     26  N   UNL     1      34.563 -13.960 -21.643  0.00  0.00    -0.230 NA
ATOM     27  N   UNL     1      34.523 -13.294 -23.930  0.00  0.00    -0.343 N 
ATOM     28  C   UNL     1      35.222 -16.547 -22.426  0.00  0.00    +0.002 C 
ATOM     29  C   UNL     1      35.038 -15.567 -23.385  0.00  0.00    +0.031 C 
ATOM     30  C   UNL     1      35.081 -16.254 -21.081  0.00  0.00    +0.018 C 
ATOM     31  C   UNL     1      34.711 -14.295 -22.945  0.00  0.00    +0.125 C 
ATOM     32  C   UNL     1      34.753 -14.951 -20.743  0.00  0.00    +0.100 C 
ATOM     33  H   UNL     1      34.289 -12.377 -23.661  0.00  0.00    +0.144 HD
ATOM     34  H   UNL     1      34.625 -13.518 -24.884  0.00  0.00    +0.144 HD
ENDBRANCH  25  28
ENDBRANCH   1  25
TORSDOF 5
ENDMDL
MODEL 8
REMARK VINA RESULT:     -10.3      1.818      2.401
REMARK  Name = 11691242
REMARK  5 active torsions:
REMARK  status: ('A' for Active; 'I' for Inactive)
REMARK    1  A    between atoms: N_1  and  C_25
REMARK    2  A    between atoms: C_5  and  N_11
REMARK    3  A    between atoms: N_12  and  C_17
REMARK    4  A    between atoms: C_18  and  O_23
REMARK    5  A    between atoms: C_25  and  C_28
REMARK                            x       y       z     vdW  Elec       q    Type
REMARK                         _______ _______ _______ _____ _____    ______ ____
ROOT
ATOM      1  N   UNL     1      35.148 -16.935 -22.984  0.00  0.00    -0.282 N 
ATOM      2  C   UNL     1      34.476 -16.091 -23.839  0.00  0.00    +0.053 C 
ATOM      3  C   UNL     1      34.456 -14.829 -23.240  0.00  0.00    +0.028 C 
ATOM      4  C   UNL     1      35.552 -16.253 -21.868  0.00  0.00    +0.066 C 
ATOM      5  C   UNL     1      33.821 -13.768 -23.914  0.00  0.00    +0.053 C 
ATOM      6  C   UNL     1      35.138 -14.947 -21.996  0.00  0.00    +0.019 C 
ATOM      7  C   UNL     1      33.891 -16.344 -25.085  0.00  0.00    +0.015 C 
ATOM      8  C   UNL     1      33.230 -14.007 -25.161  0.00  0.00    +0.015 C 
ATOM      9  C   UNL     1      33.267 -15.276 -25.736  0.00  0.00    +0.003 C 
ENDROOT
BRANCH   5  11
ATOM     10  O   UNL     1      34.051 -11.092 -25.221  0.00  0.00    -0.252 OA
ATOM     11  N   UNL     1      33.771 -12.488 -23.360  0.00  0.00    -0.268 N 
ATOM     12  N   UNL     1      33.779 -10.196 -23.078  0.00  0.00    -0.266 N 
ATOM     13  C   UNL     1      33.884 -11.237 -24.014  0.00  0.00    +0.308 C 
ATOM     14  H   UNL     1      33.640 -12.449 -22.385  0.00  0.00    +0.156 HD
ATOM     15  H   UNL     1      33.647 -10.468 -22.142  0.00  0.00    +0.157 HD
BRANCH  12  17
ATOM     16 BR   UNL     1      31.253  -5.585 -22.899  0.00  0.00    -0.049 Br
ATOM     17  C   UNL     1      33.839  -8.802 -23.316  0.00  0.00    +0.086 C 
ATOM     18  C   UNL     1      34.999  -8.235 -23.819  0.00  0.00    +0.152 C 
ATOM     19  C   UNL     1      32.723  -8.030 -23.037  0.00  0.00    +0.024 C 
ATOM     20  C   UNL     1      35.044  -6.860 -24.048  0.00  0.00    +0.039 C 
ATOM     21  C   UNL     1      32.767  -6.655 -23.266  0.00  0.00    +0.036 C 
ATOM     22  C   UNL     1      33.928  -6.070 -23.772  0.00  0.00    +0.010 C 
BRANCH  18  23
ATOM     23  O   UNL     1      36.099  -8.990 -24.096  0.00  0.00    -0.470 OA
ATOM     24  C   UNL     1      36.377  -9.250 -25.471  0.00  0.00    +0.253 C 
ENDBRANCH  18  23
ENDBRANCH  12  17
ENDBRANCH   5  11
BRANCH   1  25
ATOM     25  C   UNL     1      35.396 -18.342 -23.214  0.00  0.00    +0.122 C 
BRANCH  25  28
ATOM     26  N   UNL     1      35.100 -20.601 -19.585  0.00  0.00    -0.230 NA
ATOM     27  N   UNL     1      32.733 -20.685 -19.847  0.00  0.00    -0.343 N 
ATOM     28  C   UNL     1      35.291 -19.134 -21.940  0.00  0.00    +0.002 C 
ATOM     29  C   UNL     1      34.049 -19.541 -21.486  0.00  0.00    +0.031 C 
ATOM     30  C   UNL     1      36.439 -19.449 -21.235  0.00  0.00    +0.018 C 
ATOM     31  C   UNL     1      34.007 -20.269 -20.308  0.00  0.00    +0.125 C 
ATOM     32  C   UNL     1      36.290 -20.181 -20.068  0.00  0.00    +0.100 C 
ATOM     33  H   UNL     1      32.657 -21.205 -19.015  0.00  0.00    +0.144 HD
ATOM     34  H   UNL     1      31.925 -20.454 -20.360  0.00  0.00    +0.144 HD
ENDBRANCH  25  28
ENDBRANCH   1  25
TORSDOF 5
ENDMDL
MODEL 9
REMARK VINA RESULT:     -10.2      6.965     11.787
REMARK  Name = 11691242
REMARK  5 active torsions:
REMARK  status: ('A' for Active; 'I' for Inactive)
REMARK    1  A    between atoms: N_1  and  C_25
REMARK    2  A    between atoms: C_5  and  N_11
REMARK    3  A    between atoms: N_12  and  C_17
REMARK    4  A    between atoms: C_18  and  O_23
REMARK    5  A    between atoms: C_25  and  C_28
REMARK                            x       y       z     vdW  Elec       q    Type
REMARK                         _______ _______ _______ _____ _____    ______ ____
ROOT
ATOM      1  N   UNL     1      35.158 -19.137 -21.764  0.00  0.00    -0.282 N 
ATOM      2  C   UNL     1      35.414 -19.977 -20.705  0.00  0.00    +0.053 C 
ATOM      3  C   UNL     1      34.182 -20.449 -20.247  0.00  0.00    +0.028 C 
ATOM      4  C   UNL     1      33.810 -19.060 -21.991  0.00  0.00    +0.066 C 
ATOM      5  C   UNL     1      34.159 -21.338 -19.155  0.00  0.00    +0.053 C 
ATOM      6  C   UNL     1      33.179 -19.860 -21.068  0.00  0.00    +0.019 C 
ATOM      7  C   UNL     1      36.630 -20.353 -20.123  0.00  0.00    +0.015 C 
ATOM      8  C   UNL     1      35.367 -21.722 -18.562  0.00  0.00    +0.015 C 
ATOM      9  C   UNL     1      36.583 -21.237 -19.040  0.00  0.00    +0.003 C 
ENDROOT
BRANCH   5  11
ATOM     10  O   UNL     1      33.557 -22.677 -16.553  0.00  0.00    -0.252 OA
ATOM     11  N   UNL     1      32.955 -21.839 -18.657  0.00  0.00    -0.268 N 
ATOM     12  N   UNL     1      31.351 -22.820 -17.316  0.00  0.00    -0.266 N 
ATOM     13  C   UNL     1      32.707 -22.470 -17.414  0.00  0.00    +0.308 C 
ATOM     14  H   UNL     1      32.174 -21.741 -19.249  0.00  0.00    +0.156 HD
ATOM     15  H   UNL     1      30.788 -22.589 -18.090  0.00  0.00    +0.157 HD
BRANCH  12  17
ATOM     16 BR   UNL     1      31.820 -25.125 -12.611  0.00  0.00    -0.049 Br
ATOM     17  C   UNL     1      30.693 -23.465 -16.242  0.00  0.00    +0.086 C 
ATOM     18  C   UNL     1      29.321 -23.659 -16.286  0.00  0.00    +0.152 C 
ATOM     19  C   UNL     1      31.446 -23.892 -15.160  0.00  0.00    +0.024 C 
ATOM     20  C   UNL     1      28.687 -24.295 -15.220  0.00  0.00    +0.039 C 
ATOM     21  C   UNL     1      30.811 -24.529 -14.094  0.00  0.00    +0.036 C 
ATOM     22  C   UNL     1      29.432 -24.731 -14.124  0.00  0.00    +0.010 C 
BRANCH  18  23
ATOM     23  O   UNL     1      28.577 -23.242 -17.349  0.00  0.00    -0.470 OA
ATOM     24  C   UNL     1      27.493 -22.357 -17.073  0.00  0.00    +0.253 C 
ENDBRANCH  18  23
ENDBRANCH  12  17
ENDBRANCH   5  11
BRANCH   1  25
ATOM     25  C   UNL     1      36.156 -18.426 -22.535  0.00  0.00    +0.122 C 
BRANCH  25  28
ATOM     26  N   UNL     1      34.652 -14.681 -23.976  0.00  0.00    -0.230 NA
ATOM     27  N   UNL     1      34.680 -13.829 -21.751  0.00  0.00    -0.343 N 
ATOM     28  C   UNL     1      35.627 -17.111 -23.040  0.00  0.00    +0.002 C 
ATOM     29  C   UNL     1      35.398 -16.077 -22.150  0.00  0.00    +0.031 C 
ATOM     30  C   UNL     1      35.376 -16.950 -24.390  0.00  0.00    +0.018 C 
ATOM     31  C   UNL     1      34.913 -14.887 -22.665  0.00  0.00    +0.125 C 
ATOM     32  C   UNL     1      34.891 -15.720 -24.806  0.00  0.00    +0.100 C 
ATOM     33  H   UNL     1      34.336 -12.966 -22.074  0.00  0.00    +0.144 HD
ATOM     34  H   UNL     1      34.865 -13.959 -20.792  0.00  0.00    +0.144 HD
ENDBRANCH  25  28
ENDBRANCH   1  25
TORSDOF 5
ENDMDL
