MODEL 1
REMARK VINA RESULT:     -12.0      0.000      0.000
REMARK  Name = 59568713
REMARK  8 active torsions:
REMARK  status: ('A' for Active; 'I' for Inactive)
REMARK    1  A    between atoms: N_1  and  C_9
REMARK    2  A    between atoms: N_2  and  C_24
REMARK    3  A    between atoms: C_9  and  C_10
REMARK    4  A    between atoms: C_10  and  C_13
REMARK    5  A    between atoms: C_10  and  O_22
REMARK    6  A    between atoms: C_24  and  C_25
REMARK    7  A    between atoms: C_25  and  C_28
REMARK    8  A    between atoms: C_25  and  O_37
REMARK                            x       y       z     vdW  Elec       q    Type
REMARK                         _______ _______ _______ _____ _____    ______ ____
ROOT
ATOM      1  N   UNL     1      34.036 -13.079 -22.624  0.00  0.00    +0.386 N 
ATOM      2  N   UNL     1      34.836 -15.803 -22.077  0.00  0.00    +0.386 N 
ATOM      3  C   UNL     1      35.307 -15.095 -23.274  0.00  0.00    -0.101 C 
ATOM      4  C   UNL     1      34.576 -14.853 -20.990  0.00  0.00    -0.101 C 
ATOM      5  C   UNL     1      34.296 -14.029 -23.711  0.00  0.00    -0.101 C 
ATOM      6  C   UNL     1      33.566 -13.786 -21.426  0.00  0.00    -0.101 C 
ATOM      7  H   UNL     1      34.909 -12.605 -22.395  0.00  0.00    -0.080 HD
ATOM      8  H   UNL     1      33.960 -16.275 -22.307  0.00  0.00    -0.080 HD
ENDROOT
BRANCH   1   9
ATOM      9  C   UNL     1      33.069 -12.065 -23.041  0.00  0.00    -0.043 C 
BRANCH   9  10
ATOM     10  C   UNL     1      32.417 -11.399 -21.822  0.00  0.00    +0.112 C 
BRANCH  10  13
ATOM     11  O   UNL     1      32.507  -5.468 -20.625  0.00  0.00    -0.440 OA
ATOM     12  O   UNL     1      32.949  -4.895 -22.823  0.00  0.00    -0.245 OA
ATOM     13  C   UNL     1      32.512  -9.891 -21.899  0.00  0.00    -0.002 C 
ATOM     14  C   UNL     1      32.339  -9.107 -20.753  0.00  0.00    -0.024 C 
ATOM     15  C   UNL     1      32.436  -7.733 -20.880  0.00  0.00    +0.023 C 
ATOM     16  C   UNL     1      32.777  -9.295 -23.143  0.00  0.00    -0.002 C 
ATOM     17  C   UNL     1      32.695  -7.161 -22.109  0.00  0.00    +0.075 C 
ATOM     18  C   UNL     1      32.871  -7.907 -23.259  0.00  0.00    +0.006 C 
ATOM     19  C   UNL     1      32.300  -6.680 -19.857  0.00  0.00    +0.235 C 
ATOM     20  C   UNL     1      32.057  -9.726 -19.427  0.00  0.00    +0.031 C 
ATOM     21  C   UNL     1      32.742  -5.715 -21.951  0.00  0.00    +0.341 C 
ENDBRANCH  10  13
BRANCH  10  22
ATOM     22  O   UNL     1      31.038 -11.756 -21.743  0.00  0.00    -0.382 OA
ATOM     23  H   UNL     1      30.947 -12.717 -21.823  0.00  0.00    +0.211 HD
ENDBRANCH  10  22
ENDBRANCH   9  10
ENDBRANCH   1   9
BRANCH   2  24
ATOM     24  C   UNL     1      35.800 -16.818 -21.661  0.00  0.00    -0.043 C 
BRANCH  24  25
ATOM     25  C   UNL     1      35.503 -18.163 -22.336  0.00  0.00    +0.112 C 
BRANCH  25  28
ATOM     26  O   UNL     1      35.018 -22.378 -18.021  0.00  0.00    -0.440 OA
ATOM     27  O   UNL     1      32.714 -22.500 -18.213  0.00  0.00    -0.245 OA
ATOM     28  C   UNL     1      35.008 -19.187 -21.338  0.00  0.00    -0.002 C 
ATOM     29  C   UNL     1      35.906 -19.867 -20.509  0.00  0.00    -0.024 C 
ATOM     30  C   UNL     1      35.400 -20.793 -19.616  0.00  0.00    +0.023 C 
ATOM     31  C   UNL     1      33.627 -19.442 -21.263  0.00  0.00    -0.002 C 
ATOM     32  C   UNL     1      34.043 -21.034 -19.552  0.00  0.00    +0.075 C 
ATOM     33  C   UNL     1      33.129 -20.380 -20.358  0.00  0.00    +0.006 C 
ATOM     34  C   UNL     1      36.103 -21.641 -18.638  0.00  0.00    +0.235 C 
ATOM     35  C   UNL     1      37.372 -19.607 -20.579  0.00  0.00    +0.031 C 
ATOM     36  C   UNL     1      33.793 -22.045 -18.537  0.00  0.00    +0.341 C 
ENDBRANCH  25  28
BRANCH  25  37
ATOM     37  O   UNL     1      34.503 -18.001 -23.342  0.00  0.00    -0.382 OA
ATOM     38  H   UNL     1      33.842 -17.358 -23.039  0.00  0.00    +0.211 HD
ENDBRANCH  25  37
ENDBRANCH  24  25
ENDBRANCH   2  24
TORSDOF 8
ENDMDL
MODEL 2
REMARK VINA RESULT:     -12.0      0.023     11.639
REMARK  Name = 59568713
REMARK  8 active torsions:
REMARK  status: ('A' for Active; 'I' for Inactive)
REMARK    1  A    between atoms: N_1  and  C_9
REMARK    2  A    between atoms: N_2  and  C_24
REMARK    3  A    between atoms: C_9  and  C_10
REMARK    4  A    between atoms: C_10  and  C_13
REMARK    5  A    between atoms: C_10  and  O_22
REMARK    6  A    between atoms: C_24  and  C_25
REMARK    7  A    between atoms: C_25  and  C_28
REMARK    8  A    between atoms: C_25  and  O_37
REMARK                            x       y       z     vdW  Elec       q    Type
REMARK                         _______ _______ _______ _____ _____    ______ ____
ROOT
ATOM      1  N   UNL     1      34.834 -15.810 -22.086  0.00  0.00    +0.386 N 
ATOM      2  N   UNL     1      34.027 -13.086 -22.623  0.00  0.00    +0.386 N 
ATOM      3  C   UNL     1      34.279 -14.036 -23.714  0.00  0.00    -0.101 C 
ATOM      4  C   UNL     1      33.567 -13.794 -21.424  0.00  0.00    -0.101 C 
ATOM      5  C   UNL     1      35.294 -15.101 -23.286  0.00  0.00    -0.101 C 
ATOM      6  C   UNL     1      34.581 -14.861 -20.996  0.00  0.00    -0.101 C 
ATOM      7  H   UNL     1      33.959 -16.284 -22.309  0.00  0.00    -0.080 HD
ATOM      8  H   UNL     1      34.904 -12.613 -22.400  0.00  0.00    -0.080 HD
ENDROOT
BRANCH   1   9
ATOM      9  C   UNL     1      35.805 -16.823 -21.678  0.00  0.00    -0.043 C 
BRANCH   9  10
ATOM     10  C   UNL     1      35.504 -18.170 -22.348  0.00  0.00    +0.112 C 
BRANCH  10  13
ATOM     11  O   UNL     1      35.023 -22.367 -18.016  0.00  0.00    -0.440 OA
ATOM     12  O   UNL     1      32.720 -22.491 -18.206  0.00  0.00    -0.245 OA
ATOM     13  C   UNL     1      35.010 -19.190 -21.346  0.00  0.00    -0.002 C 
ATOM     14  C   UNL     1      35.909 -19.865 -20.514  0.00  0.00    -0.024 C 
ATOM     15  C   UNL     1      35.404 -20.788 -19.617  0.00  0.00    +0.023 C 
ATOM     16  C   UNL     1      33.631 -19.445 -21.269  0.00  0.00    -0.002 C 
ATOM     17  C   UNL     1      34.047 -21.030 -19.552  0.00  0.00    +0.075 C 
ATOM     18  C   UNL     1      33.132 -20.380 -20.360  0.00  0.00    +0.006 C 
ATOM     19  C   UNL     1      36.108 -21.632 -18.634  0.00  0.00    +0.235 C 
ATOM     20  C   UNL     1      37.376 -19.604 -20.586  0.00  0.00    +0.031 C 
ATOM     21  C   UNL     1      33.798 -22.036 -18.532  0.00  0.00    +0.341 C 
ENDBRANCH  10  13
BRANCH  10  22
ATOM     22  O   UNL     1      34.502 -18.009 -23.352  0.00  0.00    -0.382 OA
ATOM     23  H   UNL     1      33.654 -17.800 -22.932  0.00  0.00    +0.211 HD
ENDBRANCH  10  22
ENDBRANCH   9  10
ENDBRANCH   1   9
BRANCH   2  24
ATOM     24  C   UNL     1      33.059 -12.072 -23.031  0.00  0.00    -0.043 C 
BRANCH  24  25
ATOM     25  C   UNL     1      32.412 -11.412 -21.807  0.00  0.00    +0.112 C 
BRANCH  25  28
ATOM     26  O   UNL     1      32.479  -5.483 -20.593  0.00  0.00    -0.440 OA
ATOM     27  O   UNL     1      32.919  -4.903 -22.790  0.00  0.00    -0.245 OA
ATOM     28  C   UNL     1      32.501  -9.903 -21.879  0.00  0.00    -0.002 C 
ATOM     29  C   UNL     1      32.325  -9.123 -20.732  0.00  0.00    -0.024 C 
ATOM     30  C   UNL     1      32.416  -7.748 -20.855  0.00  0.00    +0.023 C 
ATOM     31  C   UNL     1      32.764  -9.301 -23.123  0.00  0.00    -0.002 C 
ATOM     32  C   UNL     1      32.674  -7.171 -22.081  0.00  0.00    +0.075 C 
ATOM     33  C   UNL     1      32.853  -7.913 -23.234  0.00  0.00    +0.006 C 
ATOM     34  C   UNL     1      32.277  -6.699 -19.830  0.00  0.00    +0.235 C 
ATOM     35  C   UNL     1      32.045  -9.747 -19.408  0.00  0.00    +0.031 C 
ATOM     36  C   UNL     1      32.715  -5.726 -21.921  0.00  0.00    +0.341 C 
ENDBRANCH  25  28
BRANCH  25  37
ATOM     37  O   UNL     1      31.033 -11.773 -21.722  0.00  0.00    -0.382 OA
ATOM     38  H   UNL     1      30.581 -11.518 -22.542  0.00  0.00    +0.211 HD
ENDBRANCH  25  37
ENDBRANCH  24  25
ENDBRANCH   2  24
TORSDOF 8
ENDMDL
MODEL 3
REMARK VINA RESULT:     -11.5      2.833     12.049
REMARK  Name = 59568713
REMARK  8 active torsions:
REMARK  status: ('A' for Active; 'I' for Inactive)
REMARK    1  A    between atoms: N_1  and  C_9
REMARK    2  A    between atoms: N_2  and  C_24
REMARK    3  A    between atoms: C_9  and  C_10
REMARK    4  A    between atoms: C_10  and  C_13
REMARK    5  A    between atoms: C_10  and  O_22
REMARK    6  A    between atoms: C_24  and  C_25
REMARK    7  A    between atoms: C_25  and  C_28
REMARK    8  A    between atoms: C_25  and  O_37
REMARK                            x       y       z     vdW  Elec       q    Type
REMARK                         _______ _______ _______ _____ _____    ______ ____
ROOT
ATOM      1  N   UNL     1      32.829 -11.852 -22.035  0.00  0.00    +0.386 N 
ATOM      2  N   UNL     1      31.820  -9.397 -20.888  0.00  0.00    +0.386 N 
ATOM      3  C   UNL     1      31.962 -10.614 -20.080  0.00  0.00    -0.101 C 
ATOM      4  C   UNL     1      32.812  -9.381 -21.969  0.00  0.00    -0.101 C 
ATOM      5  C   UNL     1      31.837 -11.867 -20.953  0.00  0.00    -0.101 C 
ATOM      6  C   UNL     1      32.688 -10.635 -22.843  0.00  0.00    -0.101 C 
ATOM      7  H   UNL     1      33.759 -11.854 -21.618  0.00  0.00    -0.080 HD
ATOM      8  H   UNL     1      30.889  -9.396 -21.307  0.00  0.00    -0.080 HD
ENDROOT
BRANCH   1   9
ATOM      9  C   UNL     1      32.705 -13.046 -22.869  0.00  0.00    -0.043 C 
BRANCH   9  10
ATOM     10  C   UNL     1      34.012 -13.321 -23.625  0.00  0.00    +0.112 C 
BRANCH  10  13
ATOM     11  O   UNL     1      35.811 -18.858 -21.977  0.00  0.00    -0.440 OA
ATOM     12  O   UNL     1      35.452 -19.747 -24.083  0.00  0.00    -0.245 OA
ATOM     13  C   UNL     1      34.380 -14.787 -23.579  0.00  0.00    -0.002 C 
ATOM     14  C   UNL     1      34.846 -15.368 -22.394  0.00  0.00    -0.024 C 
ATOM     15  C   UNL     1      35.170 -16.713 -22.408  0.00  0.00    +0.023 C 
ATOM     16  C   UNL     1      34.246 -15.553 -24.749  0.00  0.00    -0.002 C 
ATOM     17  C   UNL     1      35.034 -17.453 -23.565  0.00  0.00    +0.075 C 
ATOM     18  C   UNL     1      34.577 -16.909 -24.751  0.00  0.00    +0.006 C 
ATOM     19  C   UNL     1      35.675 -17.572 -21.323  0.00  0.00    +0.235 C 
ATOM     20  C   UNL     1      34.993 -14.567 -21.145  0.00  0.00    +0.031 C 
ATOM     21  C   UNL     1      35.442 -18.822 -23.295  0.00  0.00    +0.341 C 
ENDBRANCH  10  13
BRANCH  10  22
ATOM     22  O   UNL     1      33.881 -12.936 -24.993  0.00  0.00    -0.382 OA
ATOM     23  H   UNL     1      34.130 -13.680 -25.564  0.00  0.00    +0.211 HD
ENDBRANCH  10  22
ENDBRANCH   9  10
ENDBRANCH   1   9
BRANCH   2  24
ATOM     24  C   UNL     1      31.941  -8.203 -20.055  0.00  0.00    -0.043 C 
BRANCH  24  25
ATOM     25  C   UNL     1      33.124  -7.339 -20.509  0.00  0.00    +0.112 C 
BRANCH  25  28
ATOM     26  O   UNL     1      32.544  -3.212 -24.898  0.00  0.00    -0.440 OA
ATOM     27  O   UNL     1      30.638  -2.291 -23.962  0.00  0.00    -0.245 OA
ATOM     28  C   UNL     1      32.671  -6.204 -21.402  0.00  0.00    -0.002 C 
ATOM     29  C   UNL     1      33.384  -5.881 -22.561  0.00  0.00    -0.024 C 
ATOM     30  C   UNL     1      32.926  -4.834 -23.340  0.00  0.00    +0.023 C 
ATOM     31  C   UNL     1      31.521  -5.480 -21.041  0.00  0.00    -0.002 C 
ATOM     32  C   UNL     1      31.796  -4.133 -22.975  0.00  0.00    +0.075 C 
ATOM     33  C   UNL     1      31.070  -4.426 -21.836  0.00  0.00    +0.006 C 
ATOM     34  C   UNL     1      33.470  -4.285 -24.594  0.00  0.00    +0.235 C 
ATOM     35  C   UNL     1      34.606  -6.639 -22.954  0.00  0.00    +0.031 C 
ATOM     36  C   UNL     1      31.547  -3.096 -23.964  0.00  0.00    +0.341 C 
ENDBRANCH  25  28
BRANCH  25  37
ATOM     37  O   UNL     1      33.789  -6.777 -19.377  0.00  0.00    -0.382 OA
ATOM     38  H   UNL     1      33.143  -6.612 -18.673  0.00  0.00    +0.211 HD
ENDBRANCH  25  37
ENDBRANCH  24  25
ENDBRANCH   2  24
TORSDOF 8
ENDMDL
MODEL 4
REMARK VINA RESULT:     -11.5      2.827      4.979
REMARK  Name = 59568713
REMARK  8 active torsions:
REMARK  status: ('A' for Active; 'I' for Inactive)
REMARK    1  A    between atoms: N_1  and  C_9
REMARK    2  A    between atoms: N_2  and  C_24
REMARK    3  A    between atoms: C_9  and  C_10
REMARK    4  A    between atoms: C_10  and  C_13
REMARK    5  A    between atoms: C_10  and  O_22
REMARK    6  A    between atoms: C_24  and  C_25
REMARK    7  A    between atoms: C_25  and  C_28
REMARK    8  A    between atoms: C_25  and  O_37
REMARK                            x       y       z     vdW  Elec       q    Type
REMARK                         _______ _______ _______ _____ _____    ______ ____
ROOT
ATOM      1  N   UNL     1      31.818  -9.384 -20.896  0.00  0.00    +0.386 N 
ATOM      2  N   UNL     1      32.834 -11.842 -22.030  0.00  0.00    +0.386 N 
ATOM      3  C   UNL     1      31.828 -11.854 -20.960  0.00  0.00    -0.101 C 
ATOM      4  C   UNL     1      32.706 -10.625 -22.840  0.00  0.00    -0.101 C 
ATOM      5  C   UNL     1      31.946 -10.601 -20.086  0.00  0.00    -0.101 C 
ATOM      6  C   UNL     1      32.823  -9.372 -21.965  0.00  0.00    -0.101 C 
ATOM      7  H   UNL     1      30.893  -9.379 -21.324  0.00  0.00    -0.080 HD
ATOM      8  H   UNL     1      33.760 -11.845 -21.600  0.00  0.00    -0.080 HD
ENDROOT
BRANCH   1   9
ATOM      9  C   UNL     1      31.934  -8.190 -20.060  0.00  0.00    -0.043 C 
BRANCH   9  10
ATOM     10  C   UNL     1      33.117  -7.323 -20.511  0.00  0.00    +0.112 C 
BRANCH  10  13
ATOM     11  O   UNL     1      32.527  -3.180 -24.883  0.00  0.00    -0.440 OA
ATOM     12  O   UNL     1      30.628  -2.258 -23.935  0.00  0.00    -0.245 OA
ATOM     13  C   UNL     1      32.663  -6.184 -21.398  0.00  0.00    -0.002 C 
ATOM     14  C   UNL     1      33.371  -5.860 -22.559  0.00  0.00    -0.024 C 
ATOM     15  C   UNL     1      32.913  -4.809 -23.333  0.00  0.00    +0.023 C 
ATOM     16  C   UNL     1      31.517  -5.460 -21.030  0.00  0.00    -0.002 C 
ATOM     17  C   UNL     1      31.786  -4.105 -22.959  0.00  0.00    +0.075 C 
ATOM     18  C   UNL     1      31.064  -4.401 -21.817  0.00  0.00    +0.006 C 
ATOM     19  C   UNL     1      33.452  -4.257 -24.588  0.00  0.00    +0.235 C 
ATOM     20  C   UNL     1      34.589  -6.620 -22.961  0.00  0.00    +0.031 C 
ATOM     21  C   UNL     1      31.535  -3.065 -23.945  0.00  0.00    +0.341 C 
ENDBRANCH  10  13
BRANCH  10  22
ATOM     22  O   UNL     1      33.783  -6.768 -19.377  0.00  0.00    -0.382 OA
ATOM     23  H   UNL     1      33.521  -5.840 -19.270  0.00  0.00    +0.211 HD
ENDBRANCH  10  22
ENDBRANCH   9  10
ENDBRANCH   1   9
BRANCH   2  24
ATOM     24  C   UNL     1      32.720 -13.036 -22.864  0.00  0.00    -0.043 C 
BRANCH  24  25
ATOM     25  C   UNL     1      34.035 -13.312 -23.603  0.00  0.00    +0.112 C 
BRANCH  25  28
ATOM     26  O   UNL     1      35.791 -18.872 -21.981  0.00  0.00    -0.440 OA
ATOM     27  O   UNL     1      35.436 -19.745 -24.095  0.00  0.00    -0.245 OA
ATOM     28  C   UNL     1      34.394 -14.782 -23.564  0.00  0.00    -0.002 C 
ATOM     29  C   UNL     1      34.851 -15.373 -22.382  0.00  0.00    -0.024 C 
ATOM     30  C   UNL     1      35.165 -16.720 -22.403  0.00  0.00    +0.023 C 
ATOM     31  C   UNL     1      34.262 -15.540 -24.741  0.00  0.00    -0.002 C 
ATOM     32  C   UNL     1      35.031 -17.451 -23.564  0.00  0.00    +0.075 C 
ATOM     33  C   UNL     1      34.583 -16.897 -24.749  0.00  0.00    +0.006 C 
ATOM     34  C   UNL     1      35.661 -17.589 -21.321  0.00  0.00    +0.235 C 
ATOM     35  C   UNL     1      34.997 -14.581 -21.128  0.00  0.00    +0.031 C 
ATOM     36  C   UNL     1      35.429 -18.826 -23.302  0.00  0.00    +0.341 C 
ENDBRANCH  25  28
BRANCH  25  37
ATOM     37  O   UNL     1      33.927 -12.916 -24.970  0.00  0.00    -0.382 OA
ATOM     38  H   UNL     1      33.526 -12.034 -25.020  0.00  0.00    +0.211 HD
ENDBRANCH  25  37
ENDBRANCH  24  25
ENDBRANCH   2  24
TORSDOF 8
ENDMDL
MODEL 5
REMARK VINA RESULT:     -11.5      1.166     11.681
REMARK  Name = 59568713
REMARK  8 active torsions:
REMARK  status: ('A' for Active; 'I' for Inactive)
REMARK    1  A    between atoms: N_1  and  C_9
REMARK    2  A    between atoms: N_2  and  C_24
REMARK    3  A    between atoms: C_9  and  C_10
REMARK    4  A    between atoms: C_10  and  C_13
REMARK    5  A    between atoms: C_10  and  O_22
REMARK    6  A    between atoms: C_24  and  C_25
REMARK    7  A    between atoms: C_25  and  C_28
REMARK    8  A    between atoms: C_25  and  O_37
REMARK                            x       y       z     vdW  Elec       q    Type
REMARK                         _______ _______ _______ _____ _____    ______ ____
ROOT
ATOM      1  N   UNL     1      34.856 -15.891 -22.180  0.00  0.00    +0.386 N 
ATOM      2  N   UNL     1      34.102 -13.185 -22.867  0.00  0.00    +0.386 N 
ATOM      3  C   UNL     1      34.237 -14.223 -23.896  0.00  0.00    -0.101 C 
ATOM      4  C   UNL     1      33.711 -13.782 -21.584  0.00  0.00    -0.101 C 
ATOM      5  C   UNL     1      35.245 -15.292 -23.463  0.00  0.00    -0.101 C 
ATOM      6  C   UNL     1      34.720 -14.853 -21.151  0.00  0.00    -0.101 C 
ATOM      7  H   UNL     1      33.951 -16.345 -22.300  0.00  0.00    -0.080 HD
ATOM      8  H   UNL     1      35.008 -12.732 -22.747  0.00  0.00    -0.080 HD
ENDROOT
BRANCH   1   9
ATOM      9  C   UNL     1      35.821 -16.907 -21.768  0.00  0.00    -0.043 C 
BRANCH   9  10
ATOM     10  C   UNL     1      35.492 -18.263 -22.406  0.00  0.00    +0.112 C 
BRANCH  10  13
ATOM     11  O   UNL     1      34.982 -22.344 -17.967  0.00  0.00    -0.440 OA
ATOM     12  O   UNL     1      32.678 -22.456 -18.155  0.00  0.00    -0.245 OA
ATOM     13  C   UNL     1      34.991 -19.253 -21.378  0.00  0.00    -0.002 C 
ATOM     14  C   UNL     1      35.886 -19.913 -20.529  0.00  0.00    -0.024 C 
ATOM     15  C   UNL     1      35.374 -20.809 -19.609  0.00  0.00    +0.023 C 
ATOM     16  C   UNL     1      33.610 -19.497 -21.295  0.00  0.00    -0.002 C 
ATOM     17  C   UNL     1      34.015 -21.039 -19.538  0.00  0.00    +0.075 C 
ATOM     18  C   UNL     1      33.105 -20.404 -20.362  0.00  0.00    +0.006 C 
ATOM     19  C   UNL     1      36.072 -21.632 -18.605  0.00  0.00    +0.235 C 
ATOM     20  C   UNL     1      37.354 -19.665 -20.608  0.00  0.00    +0.031 C 
ATOM     21  C   UNL     1      33.760 -22.018 -18.492  0.00  0.00    +0.341 C 
ENDBRANCH  10  13
BRANCH  10  22
ATOM     22  O   UNL     1      34.485 -18.107 -23.405  0.00  0.00    -0.382 OA
ATOM     23  H   UNL     1      34.164 -18.980 -23.680  0.00  0.00    +0.211 HD
ENDBRANCH  10  22
ENDBRANCH   9  10
ENDBRANCH   1   9
BRANCH   2  24
ATOM     24  C   UNL     1      33.139 -12.167 -23.279  0.00  0.00    -0.043 C 
BRANCH  24  25
ATOM     25  C   UNL     1      33.852 -10.968 -23.917  0.00  0.00    +0.112 C 
BRANCH  25  28
ATOM     26  O   UNL     1      33.161  -5.176 -22.302  0.00  0.00    -0.440 OA
ATOM     27  O   UNL     1      31.295  -5.622 -21.007  0.00  0.00    -0.245 OA
ATOM     28  C   UNL     1      33.379  -9.660 -23.320  0.00  0.00    -0.002 C 
ATOM     29  C   UNL     1      34.056  -8.466 -23.591  0.00  0.00    -0.024 C 
ATOM     30  C   UNL     1      33.581  -7.300 -23.019  0.00  0.00    +0.023 C 
ATOM     31  C   UNL     1      32.248  -9.670 -22.485  0.00  0.00    -0.002 C 
ATOM     32  C   UNL     1      32.470  -7.324 -22.202  0.00  0.00    +0.075 C 
ATOM     33  C   UNL     1      31.780  -8.487 -21.913  0.00  0.00    +0.006 C 
ATOM     34  C   UNL     1      34.088  -5.922 -23.131  0.00  0.00    +0.235 C 
ATOM     35  C   UNL     1      35.257  -8.442 -24.474  0.00  0.00    +0.031 C 
ATOM     36  C   UNL     1      32.197  -5.972 -21.741  0.00  0.00    +0.341 C 
ENDBRANCH  25  28
BRANCH  25  37
ATOM     37  O   UNL     1      35.262 -11.066 -23.714  0.00  0.00    -0.382 OA
ATOM     38  H   UNL     1      35.724 -10.813 -24.529  0.00  0.00    +0.211 HD
ENDBRANCH  25  37
ENDBRANCH  24  25
ENDBRANCH   2  24
TORSDOF 8
ENDMDL
MODEL 6
REMARK VINA RESULT:     -11.0      1.455      2.080
REMARK  Name = 59568713
REMARK  8 active torsions:
REMARK  status: ('A' for Active; 'I' for Inactive)
REMARK    1  A    between atoms: N_1  and  C_9
REMARK    2  A    between atoms: N_2  and  C_24
REMARK    3  A    between atoms: C_9  and  C_10
REMARK    4  A    between atoms: C_10  and  C_13
REMARK    5  A    between atoms: C_10  and  O_22
REMARK    6  A    between atoms: C_24  and  C_25
REMARK    7  A    between atoms: C_25  and  C_28
REMARK    8  A    between atoms: C_25  and  O_37
REMARK                            x       y       z     vdW  Elec       q    Type
REMARK                         _______ _______ _______ _____ _____    ______ ____
ROOT
ATOM      1  N   UNL     1      34.113 -13.305 -23.314  0.00  0.00    +0.386 N 
ATOM      2  N   UNL     1      34.493 -16.171 -23.358  0.00  0.00    +0.386 N 
ATOM      3  C   UNL     1      34.319 -15.406 -24.598  0.00  0.00    -0.101 C 
ATOM      4  C   UNL     1      35.115 -15.336 -22.324  0.00  0.00    -0.101 C 
ATOM      5  C   UNL     1      33.491 -14.141 -24.348  0.00  0.00    -0.101 C 
ATOM      6  C   UNL     1      34.288 -14.070 -22.073  0.00  0.00    -0.101 C 
ATOM      7  H   UNL     1      35.032 -13.016 -23.645  0.00  0.00    -0.080 HD
ATOM      8  H   UNL     1      33.572 -16.459 -23.026  0.00  0.00    -0.080 HD
ENDROOT
BRANCH   1   9
ATOM      9  C   UNL     1      33.319 -12.102 -23.073  0.00  0.00    -0.043 C 
BRANCH   9  10
ATOM     10  C   UNL     1      33.839 -10.929 -23.915  0.00  0.00    +0.112 C 
BRANCH  10  13
ATOM     11  O   UNL     1      33.177  -5.088 -22.478  0.00  0.00    -0.440 OA
ATOM     12  O   UNL     1      31.281  -5.478 -21.209  0.00  0.00    -0.245 OA
ATOM     13  C   UNL     1      33.368  -9.600 -23.364  0.00  0.00    -0.002 C 
ATOM     14  C   UNL     1      34.063  -8.422 -23.656  0.00  0.00    -0.024 C 
ATOM     15  C   UNL     1      33.589  -7.235 -23.126  0.00  0.00    +0.023 C 
ATOM     16  C   UNL     1      32.221  -9.576 -22.554  0.00  0.00    -0.002 C 
ATOM     17  C   UNL     1      32.461  -7.226 -22.331  0.00  0.00    +0.075 C 
ATOM     18  C   UNL     1      31.753  -8.373 -22.024  0.00  0.00    +0.006 C 
ATOM     19  C   UNL     1      34.112  -5.864 -23.267  0.00  0.00    +0.235 C 
ATOM     20  C   UNL     1      35.282  -8.434 -24.515  0.00  0.00    +0.031 C 
ATOM     21  C   UNL     1      32.194  -5.858 -21.915  0.00  0.00    +0.341 C 
ENDBRANCH  10  13
BRANCH  10  22
ATOM     22  O   UNL     1      35.266 -10.925 -23.930  0.00  0.00    -0.382 OA
ATOM     23  H   UNL     1      35.582 -11.329 -24.752  0.00  0.00    +0.211 HD
ENDBRANCH  10  22
ENDBRANCH   9  10
ENDBRANCH   1   9
BRANCH   2  24
ATOM     24  C   UNL     1      35.284 -17.376 -23.597  0.00  0.00    -0.043 C 
BRANCH  24  25
ATOM     25  C   UNL     1      36.159 -17.705 -22.381  0.00  0.00    +0.112 C 
BRANCH  25  28
ATOM     26  O   UNL     1      35.114 -22.166 -18.427  0.00  0.00    -0.440 OA
ATOM     27  O   UNL     1      32.882 -22.343 -19.014  0.00  0.00    -0.245 OA
ATOM     28  C   UNL     1      35.542 -18.797 -21.534  0.00  0.00    -0.002 C 
ATOM     29  C   UNL     1      36.313 -19.496 -20.599  0.00  0.00    -0.024 C 
ATOM     30  C   UNL     1      35.698 -20.484 -19.852  0.00  0.00    +0.023 C 
ATOM     31  C   UNL     1      34.179 -19.096 -21.708  0.00  0.00    -0.002 C 
ATOM     32  C   UNL     1      34.360 -20.767 -20.033  0.00  0.00    +0.075 C 
ATOM     33  C   UNL     1      33.571 -20.096 -20.948  0.00  0.00    +0.006 C 
ATOM     34  C   UNL     1      36.258 -21.365 -18.812  0.00  0.00    +0.235 C 
ATOM     35  C   UNL     1      37.759 -19.190 -20.406  0.00  0.00    +0.031 C 
ATOM     36  C   UNL     1      33.981 -21.840 -19.127  0.00  0.00    +0.341 C 
ENDBRANCH  25  28
BRANCH  25  37
ATOM     37  O   UNL     1      37.449 -18.145 -22.805  0.00  0.00    -0.382 OA
ATOM     38  H   UNL     1      38.095 -17.436 -22.660  0.00  0.00    +0.211 HD
ENDBRANCH  25  37
ENDBRANCH  24  25
ENDBRANCH   2  24
TORSDOF 8
ENDMDL
MODEL 7
REMARK VINA RESULT:     -10.9      2.017     11.374
REMARK  Name = 59568713
REMARK  8 active torsions:
REMARK  status: ('A' for Active; 'I' for Inactive)
REMARK    1  A    between atoms: N_1  and  C_9
REMARK    2  A    between atoms: N_2  and  C_24
REMARK    3  A    between atoms: C_9  and  C_10
REMARK    4  A    between atoms: C_10  and  C_13
REMARK    5  A    between atoms: C_10  and  O_22
REMARK    6  A    between atoms: C_24  and  C_25
REMARK    7  A    between atoms: C_25  and  C_28
REMARK    8  A    between atoms: C_25  and  O_37
REMARK                            x       y       z     vdW  Elec       q    Type
REMARK                         _______ _______ _______ _____ _____    ______ ____
ROOT
ATOM      1  N   UNL     1      35.199 -18.459 -22.352  0.00  0.00    +0.386 N 
ATOM      2  N   UNL     1      35.734 -15.843 -23.462  0.00  0.00    +0.386 N 
ATOM      3  C   UNL     1      35.184 -16.925 -24.288  0.00  0.00    -0.101 C 
ATOM      4  C   UNL     1      35.322 -16.007 -22.063  0.00  0.00    -0.101 C 
ATOM      5  C   UNL     1      35.612 -18.294 -23.751  0.00  0.00    -0.101 C 
ATOM      6  C   UNL     1      35.749 -17.378 -21.525  0.00  0.00    -0.101 C 
ATOM      7  H   UNL     1      34.182 -18.411 -22.309  0.00  0.00    -0.080 HD
ATOM      8  H   UNL     1      36.753 -15.893 -23.504  0.00  0.00    -0.080 HD
ENDROOT
BRANCH   1   9
ATOM      9  C   UNL     1      35.612 -19.764 -21.840  0.00  0.00    -0.043 C 
BRANCH   9  10
ATOM     10  C   UNL     1      34.556 -20.333 -20.882  0.00  0.00    +0.112 C 
BRANCH  10  13
ATOM     11  O   UNL     1      35.678 -23.078 -15.607  0.00  0.00    -0.440 OA
ATOM     12  O   UNL     1      37.898 -22.423 -15.586  0.00  0.00    -0.245 OA
ATOM     13  C   UNL     1      35.189 -20.880 -19.621  0.00  0.00    -0.002 C 
ATOM     14  C   UNL     1      34.437 -21.635 -18.716  0.00  0.00    -0.024 C 
ATOM     15  C   UNL     1      35.065 -22.111 -17.579  0.00  0.00    +0.023 C 
ATOM     16  C   UNL     1      36.548 -20.614 -19.380  0.00  0.00    -0.002 C 
ATOM     17  C   UNL     1      36.400 -21.841 -17.354  0.00  0.00    +0.075 C 
ATOM     18  C   UNL     1      37.171 -21.098 -18.229  0.00  0.00    +0.006 C 
ATOM     19  C   UNL     1      34.526 -22.920 -16.472  0.00  0.00    +0.235 C 
ATOM     20  C   UNL     1      32.995 -21.925 -18.960  0.00  0.00    +0.031 C 
ATOM     21  C   UNL     1      36.796 -22.456 -16.097  0.00  0.00    +0.341 C 
ENDBRANCH  10  13
BRANCH  10  22
ATOM     22  O   UNL     1      33.628 -19.315 -20.509  0.00  0.00    -0.382 OA
ATOM     23  H   UNL     1      32.881 -19.317 -21.126  0.00  0.00    +0.211 HD
ENDBRANCH  10  22
ENDBRANCH   9  10
ENDBRANCH   1   9
BRANCH   2  24
ATOM     24  C   UNL     1      35.325 -14.538 -23.974  0.00  0.00    -0.043 C 
BRANCH  24  25
ATOM     25  C   UNL     1      33.854 -14.258 -23.642  0.00  0.00    +0.112 C 
BRANCH  25  28
ATOM     26  O   UNL     1      32.135  -8.790 -21.699  0.00  0.00    -0.440 OA
ATOM     27  O   UNL     1      33.044  -7.707 -23.531  0.00  0.00    -0.245 OA
ATOM     28  C   UNL     1      33.595 -12.776 -23.479  0.00  0.00    -0.002 C 
ATOM     29  C   UNL     1      32.908 -12.290 -22.362  0.00  0.00    -0.024 C 
ATOM     30  C   UNL     1      32.698 -10.927 -22.265  0.00  0.00    +0.023 C 
ATOM     31  C   UNL     1      34.056 -11.898 -24.476  0.00  0.00    -0.002 C 
ATOM     32  C   UNL     1      33.157 -10.076 -23.249  0.00  0.00    +0.075 C 
ATOM     33  C   UNL     1      33.837 -10.524 -24.366  0.00  0.00    +0.006 C 
ATOM     34  C   UNL     1      32.017 -10.151 -21.214  0.00  0.00    +0.235 C 
ATOM     35  C   UNL     1      32.413 -13.210 -21.299  0.00  0.00    +0.031 C 
ATOM     36  C   UNL     1      32.800  -8.712 -22.895  0.00  0.00    +0.341 C 
ENDBRANCH  25  28
BRANCH  25  37
ATOM     37  O   UNL     1      33.010 -14.746 -24.684  0.00  0.00    -0.382 OA
ATOM     38  H   UNL     1      32.721 -15.647 -24.470  0.00  0.00    +0.211 HD
ENDBRANCH  25  37
ENDBRANCH  24  25
ENDBRANCH   2  24
TORSDOF 8
ENDMDL
MODEL 8
REMARK VINA RESULT:     -10.8      1.663     11.081
REMARK  Name = 59568713
REMARK  8 active torsions:
REMARK  status: ('A' for Active; 'I' for Inactive)
REMARK    1  A    between atoms: N_1  and  C_9
REMARK    2  A    between atoms: N_2  and  C_24
REMARK    3  A    between atoms: C_9  and  C_10
REMARK    4  A    between atoms: C_10  and  C_13
REMARK    5  A    between atoms: C_10  and  O_22
REMARK    6  A    between atoms: C_24  and  C_25
REMARK    7  A    between atoms: C_25  and  C_28
REMARK    8  A    between atoms: C_25  and  O_37
REMARK                            x       y       z     vdW  Elec       q    Type
REMARK                         _______ _______ _______ _____ _____    ______ ____
ROOT
ATOM      1  N   UNL     1      34.877 -17.812 -22.800  0.00  0.00    +0.386 N 
ATOM      2  N   UNL     1      35.319 -15.002 -23.316  0.00  0.00    +0.386 N 
ATOM      3  C   UNL     1      34.823 -15.901 -24.365  0.00  0.00    -0.101 C 
ATOM      4  C   UNL     1      34.896 -15.475 -21.993  0.00  0.00    -0.101 C 
ATOM      5  C   UNL     1      35.300 -17.337 -24.123  0.00  0.00    -0.101 C 
ATOM      6  C   UNL     1      35.372 -16.912 -21.751  0.00  0.00    -0.101 C 
ATOM      7  H   UNL     1      33.858 -17.812 -22.768  0.00  0.00    -0.080 HD
ATOM      8  H   UNL     1      36.339 -15.003 -23.347  0.00  0.00    -0.080 HD
ENDROOT
BRANCH   1   9
ATOM      9  C   UNL     1      35.336 -19.180 -22.569  0.00  0.00    -0.043 C 
BRANCH   9  10
ATOM     10  C   UNL     1      35.958 -19.319 -21.173  0.00  0.00    +0.112 C 
BRANCH  10  13
ATOM     11  O   UNL     1      33.842 -23.055 -16.909  0.00  0.00    -0.440 OA
ATOM     12  O   UNL     1      31.638 -22.746 -17.545  0.00  0.00    -0.245 OA
ATOM     13  C   UNL     1      35.091 -20.158 -20.260  0.00  0.00    -0.002 C 
ATOM     14  C   UNL     1      35.664 -20.937 -19.250  0.00  0.00    -0.024 C 
ATOM     15  C   UNL     1      34.825 -21.686 -18.446  0.00  0.00    +0.023 C 
ATOM     16  C   UNL     1      33.699 -20.138 -20.449  0.00  0.00    -0.002 C 
ATOM     17  C   UNL     1      33.459 -21.658 -18.643  0.00  0.00    +0.075 C 
ATOM     18  C   UNL     1      32.862 -20.898 -19.631  0.00  0.00    +0.006 C 
ATOM     19  C   UNL     1      35.148 -22.583 -17.322  0.00  0.00    +0.235 C 
ATOM     20  C   UNL     1      37.140 -20.967 -19.039  0.00  0.00    +0.031 C 
ATOM     21  C   UNL     1      32.827 -22.529 -17.665  0.00  0.00    +0.341 C 
ENDBRANCH  10  13
BRANCH  10  22
ATOM     22  O   UNL     1      37.241 -19.938 -21.263  0.00  0.00    -0.382 OA
ATOM     23  H   UNL     1      37.875 -19.449 -20.716  0.00  0.00    +0.211 HD
ENDBRANCH  10  22
ENDBRANCH   9  10
ENDBRANCH   1   9
BRANCH   2  24
ATOM     24  C   UNL     1      34.863 -13.633 -23.548  0.00  0.00    -0.043 C 
BRANCH  24  25
ATOM     25  C   UNL     1      33.360 -13.504 -23.267  0.00  0.00    +0.112 C 
BRANCH  25  28
ATOM     26  O   UNL     1      31.572  -8.919 -19.743  0.00  0.00    -0.440 OA
ATOM     27  O   UNL     1      32.085  -7.320 -21.336  0.00  0.00    -0.245 OA
ATOM     28  C   UNL     1      33.020 -12.147 -22.689  0.00  0.00    -0.002 C 
ATOM     29  C   UNL     1      32.490 -12.034 -21.399  0.00  0.00    -0.024 C 
ATOM     30  C   UNL     1      32.196 -10.771 -20.920  0.00  0.00    +0.023 C 
ATOM     31  C   UNL     1      33.244 -11.003 -23.475  0.00  0.00    -0.002 C 
ATOM     32  C   UNL     1      32.421  -9.657 -21.702  0.00  0.00    +0.075 C 
ATOM     33  C   UNL     1      32.942  -9.734 -22.981  0.00  0.00    +0.006 C 
ATOM     34  C   UNL     1      31.639 -10.362 -19.619  0.00  0.00    +0.235 C 
ATOM     35  C   UNL     1      32.246 -13.239 -20.555  0.00  0.00    +0.031 C 
ATOM     36  C   UNL     1      32.025  -8.472 -20.957  0.00  0.00    +0.341 C 
ENDBRANCH  25  28
BRANCH  25  37
ATOM     37  O   UNL     1      32.616 -13.674 -24.473  0.00  0.00    -0.382 OA
ATOM     38  H   UNL     1      32.505 -12.814 -24.908  0.00  0.00    +0.211 HD
ENDBRANCH  25  37
ENDBRANCH  24  25
ENDBRANCH   2  24
TORSDOF 8
ENDMDL
MODEL 9
REMARK VINA RESULT:     -10.8      1.967      3.428
REMARK  Name = 59568713
REMARK  8 active torsions:
REMARK  status: ('A' for Active; 'I' for Inactive)
REMARK    1  A    between atoms: N_1  and  C_9
REMARK    2  A    between atoms: N_2  and  C_24
REMARK    3  A    between atoms: C_9  and  C_10
REMARK    4  A    between atoms: C_10  and  C_13
REMARK    5  A    between atoms: C_10  and  O_22
REMARK    6  A    between atoms: C_24  and  C_25
REMARK    7  A    between atoms: C_25  and  C_28
REMARK    8  A    between atoms: C_25  and  O_37
REMARK                            x       y       z     vdW  Elec       q    Type
REMARK                         _______ _______ _______ _____ _____    ______ ____
ROOT
ATOM      1  N   UNL     1      35.673 -15.773 -23.311  0.00  0.00    +0.386 N 
ATOM      2  N   UNL     1      35.111 -18.425 -22.305  0.00  0.00    +0.386 N 
ATOM      3  C   UNL     1      35.487 -18.205 -23.707  0.00  0.00    -0.101 C 
ATOM      4  C   UNL     1      35.710 -17.396 -21.447  0.00  0.00    -0.101 C 
ATOM      5  C   UNL     1      35.075 -16.803 -24.169  0.00  0.00    -0.101 C 
ATOM      6  C   UNL     1      35.299 -15.993 -21.909  0.00  0.00    -0.101 C 
ATOM      7  H   UNL     1      36.688 -15.841 -23.387  0.00  0.00    -0.080 HD
ATOM      8  H   UNL     1      34.096 -18.355 -22.229  0.00  0.00    -0.080 HD
ENDROOT
BRANCH   1   9
ATOM      9  C   UNL     1      35.276 -14.437 -23.750  0.00  0.00    -0.043 C 
BRANCH   9  10
ATOM     10  C   UNL     1      33.784 -14.198 -23.489  0.00  0.00    +0.112 C 
BRANCH  10  13
ATOM     11  O   UNL     1      31.936  -8.818 -21.422  0.00  0.00    -0.440 OA
ATOM     12  O   UNL     1      32.782  -7.677 -23.250  0.00  0.00    -0.245 OA
ATOM     13  C   UNL     1      33.483 -12.727 -23.296  0.00  0.00    -0.002 C 
ATOM     14  C   UNL     1      32.802 -12.282 -22.159  0.00  0.00    -0.024 C 
ATOM     15  C   UNL     1      32.553 -10.927 -22.034  0.00  0.00    +0.023 C 
ATOM     16  C   UNL     1      33.902 -11.820 -24.284  0.00  0.00    -0.002 C 
ATOM     17  C   UNL     1      32.969 -10.047 -23.012  0.00  0.00    +0.075 C 
ATOM     18  C   UNL     1      33.644 -10.455 -24.147  0.00  0.00    +0.006 C 
ATOM     19  C   UNL     1      31.867 -10.190 -20.958  0.00  0.00    +0.235 C 
ATOM     20  C   UNL     1      32.352 -13.234 -21.104  0.00  0.00    +0.031 C 
ATOM     21  C   UNL     1      32.578  -8.700 -22.627  0.00  0.00    +0.341 C 
ENDBRANCH  10  13
BRANCH  10  22
ATOM     22  O   UNL     1      33.007 -14.672 -24.588  0.00  0.00    -0.382 OA
ATOM     23  H   UNL     1      32.318 -14.024 -24.801  0.00  0.00    +0.211 HD
ENDBRANCH  10  22
ENDBRANCH   9  10
ENDBRANCH   1   9
BRANCH   2  24
ATOM     24  C   UNL     1      35.505 -19.761 -21.865  0.00  0.00    -0.043 C 
BRANCH  24  25
ATOM     25  C   UNL     1      34.475 -20.340 -20.888  0.00  0.00    +0.112 C 
BRANCH  25  28
ATOM     26  O   UNL     1      35.720 -23.061 -15.627  0.00  0.00    -0.440 OA
ATOM     27  O   UNL     1      37.941 -22.413 -15.666  0.00  0.00    -0.245 OA
ATOM     28  C   UNL     1      35.138 -20.883 -19.640  0.00  0.00    -0.002 C 
ATOM     29  C   UNL     1      34.406 -21.630 -18.712  0.00  0.00    -0.024 C 
ATOM     30  C   UNL     1      35.061 -22.102 -17.589  0.00  0.00    +0.023 C 
ATOM     31  C   UNL     1      36.503 -20.619 -19.434  0.00  0.00    -0.002 C 
ATOM     32  C   UNL     1      36.401 -21.836 -17.398  0.00  0.00    +0.075 C 
ATOM     33  C   UNL     1      37.153 -21.100 -18.296  0.00  0.00    +0.006 C 
ATOM     34  C   UNL     1      34.547 -22.903 -16.465  0.00  0.00    +0.235 C 
ATOM     35  C   UNL     1      32.958 -21.916 -18.918  0.00  0.00    +0.031 C 
ATOM     36  C   UNL     1      36.828 -22.445 -16.148  0.00  0.00    +0.341 C 
ENDBRANCH  25  28
BRANCH  25  37
ATOM     37  O   UNL     1      33.545 -19.331 -20.495  0.00  0.00    -0.382 OA
ATOM     38  H   UNL     1      33.073 -19.619 -19.698  0.00  0.00    +0.211 HD
ENDBRANCH  25  37
ENDBRANCH  24  25
ENDBRANCH   2  24
TORSDOF 8
ENDMDL
