MODEL 1
REMARK VINA RESULT:     -12.2      0.000      0.000
REMARK  Name = 45268539
REMARK  6 active torsions:
REMARK  status: ('A' for Active; 'I' for Inactive)
REMARK    1  A    between atoms: N_2  and  C_22
REMARK    2  A    between atoms: N_3  and  C_7
REMARK    3  A    between atoms: N_3  and  O_12
REMARK    4  A    between atoms: C_8  and  C_14
REMARK    5  A    between atoms: C_15  and  C_16
REMARK    6  A    between atoms: C_22  and  C_26
REMARK                            x       y       z     vdW  Elec       q    Type
REMARK                         _______ _______ _______ _____ _____    ______ ____
ROOT
ATOM      1  O   UNL     1      32.148 -23.574 -16.813  0.00  0.00    -0.273 OA
ATOM      2  N   UNL     1      34.312 -23.071 -15.967  0.00  0.00    -0.253 N 
ATOM      3  C   UNL     1      35.419 -22.386 -16.505  0.00  0.00    +0.052 C 
ATOM      4  C   UNL     1      35.135 -21.934 -17.793  0.00  0.00    +0.018 C 
ATOM      5  C   UNL     1      33.262 -23.098 -16.870  0.00  0.00    +0.252 C 
ATOM      6  C   UNL     1      33.777 -22.357 -18.080  0.00  0.00    +0.202 C 
ATOM      7  C   UNL     1      36.040 -21.231 -18.559  0.00  0.00    -0.001 C 
ATOM      8  C   UNL     1      36.653 -22.140 -15.931  0.00  0.00    +0.015 C 
ATOM      9  C   UNL     1      37.287 -20.977 -17.987  0.00  0.00    -0.000 C 
ATOM     10  C   UNL     1      37.591 -21.427 -16.687  0.00  0.00    +0.001 C 
ENDROOT
BRANCH   7  11
ATOM     11  C   UNL     1      35.750 -20.759 -19.901  0.00  0.00    -0.000 C 
ATOM     12  C   UNL     1      35.908 -19.483 -20.334  0.00  0.00    -0.000 C 
BRANCH  12  13
ATOM     13  C   UNL     1      35.631 -19.008 -21.701  0.00  0.00    -0.000 C 
ATOM     14  C   UNL     1      35.236 -19.912 -22.687  0.00  0.00    -0.000 C 
ATOM     15  C   UNL     1      35.761 -17.654 -22.008  0.00  0.00    -0.000 C 
ATOM     16  C   UNL     1      34.973 -19.461 -23.981  0.00  0.00    +0.000 C 
ATOM     17  C   UNL     1      35.498 -17.203 -23.301  0.00  0.00    +0.000 C 
ATOM     18  C   UNL     1      35.105 -18.107 -24.289  0.00  0.00    +0.000 C 
ENDBRANCH  12  13
ENDBRANCH   7  11
BRANCH   6  19
ATOM     19  N   UNL     1      33.086 -22.169 -19.147  0.00  0.00    -0.075 NA
BRANCH  19  20
ATOM     20  O   UNL     1      32.487 -20.908 -19.072  0.00  0.00    -0.294 OA
ATOM     21  H   UNL     1      31.752 -20.705 -19.617  0.00  0.00    +0.238 HD
ENDBRANCH  19  20
ENDBRANCH   6  19
BRANCH   2  22
ATOM     22  C   UNL     1      34.303 -23.655 -14.648  0.00  0.00    +0.128 C 
BRANCH  22  26
ATOM     23  F   UNL     1      37.198 -27.285 -16.094  0.00  0.00    -0.204 F 
ATOM     24  O   UNL     1      35.931 -23.430 -12.385  0.00  0.00    -0.448 OA
ATOM     25  O   UNL     1      37.490 -24.399 -10.838  0.00  0.00    -0.311 OA
ATOM     26  C   UNL     1      35.490 -24.544 -14.419  0.00  0.00    +0.034 C 
ATOM     27  C   UNL     1      36.286 -24.408 -13.281  0.00  0.00    +0.138 C 
ATOM     28  C   UNL     1      37.380 -25.256 -13.073  0.00  0.00    +0.043 C 
ATOM     29  C   UNL     1      35.800 -25.519 -15.367  0.00  0.00    +0.030 C 
ATOM     30  C   UNL     1      38.222 -25.096 -11.844  0.00  0.00    +0.176 C 
ATOM     31  C   UNL     1      37.690 -26.223 -14.035  0.00  0.00    +0.031 C 
ATOM     32  C   UNL     1      36.900 -26.355 -15.178  0.00  0.00    +0.140 C 
ATOM     33  C   UNL     1      36.922 -23.207 -11.376  0.00  0.00    +0.361 C 
ENDBRANCH  22  26
ENDBRANCH   2  22
TORSDOF 6
ENDMDL
MODEL 2
REMARK VINA RESULT:     -11.0      2.506      3.455
REMARK  Name = 45268539
REMARK  6 active torsions:
REMARK  status: ('A' for Active; 'I' for Inactive)
REMARK    1  A    between atoms: N_2  and  C_22
REMARK    2  A    between atoms: N_3  and  C_7
REMARK    3  A    between atoms: N_3  and  O_12
REMARK    4  A    between atoms: C_8  and  C_14
REMARK    5  A    between atoms: C_15  and  C_16
REMARK    6  A    between atoms: C_22  and  C_26
REMARK                            x       y       z     vdW  Elec       q    Type
REMARK                         _______ _______ _______ _____ _____    ______ ____
ROOT
ATOM      1  O   UNL     1      37.825 -22.604 -15.594  0.00  0.00    -0.273 OA
ATOM      2  N   UNL     1      35.515 -23.136 -15.777  0.00  0.00    -0.253 N 
ATOM      3  C   UNL     1      34.519 -22.788 -16.710  0.00  0.00    +0.052 C 
ATOM      4  C   UNL     1      35.049 -21.964 -17.704  0.00  0.00    +0.018 C 
ATOM      5  C   UNL     1      36.730 -22.563 -16.114  0.00  0.00    +0.252 C 
ATOM      6  C   UNL     1      36.451 -21.786 -17.378  0.00  0.00    +0.202 C 
ATOM      7  C   UNL     1      34.297 -21.469 -18.748  0.00  0.00    -0.001 C 
ATOM      8  C   UNL     1      33.185 -23.150 -16.736  0.00  0.00    +0.015 C 
ATOM      9  C   UNL     1      32.949 -21.831 -18.782  0.00  0.00    -0.000 C 
ATOM     10  C   UNL     1      32.399 -22.662 -17.786  0.00  0.00    +0.001 C 
ENDROOT
BRANCH   7  11
ATOM     11  C   UNL     1      34.842 -20.610 -19.784  0.00  0.00    -0.000 C 
ATOM     12  C   UNL     1      34.110 -19.928 -20.701  0.00  0.00    -0.000 C 
BRANCH  12  13
ATOM     13  C   UNL     1      34.662 -19.043 -21.741  0.00  0.00    -0.000 C 
ATOM     14  C   UNL     1      35.560 -18.033 -21.394  0.00  0.00    -0.000 C 
ATOM     15  C   UNL     1      34.288 -19.215 -23.074  0.00  0.00    -0.000 C 
ATOM     16  C   UNL     1      36.082 -17.195 -22.379  0.00  0.00    +0.000 C 
ATOM     17  C   UNL     1      34.810 -18.377 -24.059  0.00  0.00    +0.000 C 
ATOM     18  C   UNL     1      35.706 -17.366 -23.711  0.00  0.00    +0.000 C 
ENDBRANCH  12  13
ENDBRANCH   7  11
BRANCH   6  19
ATOM     19  N   UNL     1      37.342 -21.104 -18.006  0.00  0.00    -0.075 NA
BRANCH  19  20
ATOM     20  O   UNL     1      37.685 -19.997 -17.226  0.00  0.00    -0.294 OA
ATOM     21  H   UNL     1      38.533 -19.606 -17.314  0.00  0.00    +0.238 HD
ENDBRANCH  19  20
ENDBRANCH   6  19
BRANCH   2  22
ATOM     22  C   UNL     1      35.271 -23.981 -14.634  0.00  0.00    +0.128 C 
BRANCH  22  26
ATOM     23  F   UNL     1      37.584 -22.295 -10.702  0.00  0.00    -0.204 F 
ATOM     24  O   UNL     1      37.400 -25.765 -14.962  0.00  0.00    -0.448 OA
ATOM     25  O   UNL     1      39.694 -26.360 -14.583  0.00  0.00    -0.311 OA
ATOM     26  C   UNL     1      36.445 -24.015 -13.699  0.00  0.00    +0.034 C 
ATOM     27  C   UNL     1      37.492 -24.918 -13.886  0.00  0.00    +0.138 C 
ATOM     28  C   UNL     1      38.588 -24.926 -13.014  0.00  0.00    +0.043 C 
ATOM     29  C   UNL     1      36.479 -23.129 -12.623  0.00  0.00    +0.030 C 
ATOM     30  C   UNL     1      39.704 -25.902 -13.232  0.00  0.00    +0.176 C 
ATOM     31  C   UNL     1      38.608 -24.042 -11.931  0.00  0.00    +0.031 C 
ATOM     32  C   UNL     1      37.557 -23.144 -11.738  0.00  0.00    +0.140 C 
ATOM     33  C   UNL     1      38.388 -26.801 -14.947  0.00  0.00    +0.361 C 
ENDBRANCH  22  26
ENDBRANCH   2  22
TORSDOF 6
ENDMDL
MODEL 3
REMARK VINA RESULT:     -10.9      1.876      2.637
REMARK  Name = 45268539
REMARK  6 active torsions:
REMARK  status: ('A' for Active; 'I' for Inactive)
REMARK    1  A    between atoms: N_2  and  C_22
REMARK    2  A    between atoms: N_3  and  C_7
REMARK    3  A    between atoms: N_3  and  O_12
REMARK    4  A    between atoms: C_8  and  C_14
REMARK    5  A    between atoms: C_15  and  C_16
REMARK    6  A    between atoms: C_22  and  C_26
REMARK                            x       y       z     vdW  Elec       q    Type
REMARK                         _______ _______ _______ _____ _____    ______ ____
ROOT
ATOM      1  O   UNL     1      37.776 -22.441 -15.716  0.00  0.00    -0.273 OA
ATOM      2  N   UNL     1      35.481 -23.022 -15.938  0.00  0.00    -0.253 N 
ATOM      3  C   UNL     1      34.493 -22.691 -16.886  0.00  0.00    +0.052 C 
ATOM      4  C   UNL     1      35.020 -21.852 -17.867  0.00  0.00    +0.018 C 
ATOM      5  C   UNL     1      36.689 -22.421 -16.254  0.00  0.00    +0.252 C 
ATOM      6  C   UNL     1      36.412 -21.645 -17.519  0.00  0.00    +0.202 C 
ATOM      7  C   UNL     1      34.274 -21.370 -18.922  0.00  0.00    -0.001 C 
ATOM      8  C   UNL     1      33.168 -23.082 -16.933  0.00  0.00    +0.015 C 
ATOM      9  C   UNL     1      32.936 -21.760 -18.978  0.00  0.00    -0.000 C 
ATOM     10  C   UNL     1      32.388 -22.607 -17.994  0.00  0.00    +0.001 C 
ENDROOT
BRANCH   7  11
ATOM     11  C   UNL     1      34.817 -20.495 -19.946  0.00  0.00    -0.000 C 
ATOM     12  C   UNL     1      34.087 -19.840 -20.883  0.00  0.00    -0.000 C 
BRANCH  12  13
ATOM     13  C   UNL     1      34.635 -18.938 -21.912  0.00  0.00    -0.000 C 
ATOM     14  C   UNL     1      35.501 -17.908 -21.546  0.00  0.00    -0.000 C 
ATOM     15  C   UNL     1      34.290 -19.117 -23.251  0.00  0.00    -0.000 C 
ATOM     16  C   UNL     1      36.020 -17.054 -22.520  0.00  0.00    +0.000 C 
ATOM     17  C   UNL     1      34.809 -18.264 -24.225  0.00  0.00    +0.000 C 
ATOM     18  C   UNL     1      35.673 -17.232 -23.859  0.00  0.00    +0.000 C 
ENDBRANCH  12  13
ENDBRANCH   7  11
BRANCH   6  19
ATOM     19  N   UNL     1      37.298 -20.942 -18.130  0.00  0.00    -0.075 NA
BRANCH  19  20
ATOM     20  O   UNL     1      37.716 -19.916 -17.278  0.00  0.00    -0.294 OA
ATOM     21  H   UNL     1      37.089 -19.315 -16.926  0.00  0.00    +0.238 HD
ENDBRANCH  19  20
ENDBRANCH   6  19
BRANCH   2  22
ATOM     22  C   UNL     1      35.238 -23.876 -14.802  0.00  0.00    +0.128 C 
BRANCH  22  26
ATOM     23  F   UNL     1      38.604 -27.346 -15.331  0.00  0.00    -0.204 F 
ATOM     24  O   UNL     1      36.647 -23.035 -12.537  0.00  0.00    -0.448 OA
ATOM     25  O   UNL     1      38.170 -23.500 -10.741  0.00  0.00    -0.311 OA
ATOM     26  C   UNL     1      36.489 -24.559 -14.332  0.00  0.00    +0.034 C 
ATOM     27  C   UNL     1      37.173 -24.115 -13.200  0.00  0.00    +0.138 C 
ATOM     28  C   UNL     1      38.330 -24.773 -12.765  0.00  0.00    +0.043 C 
ATOM     29  C   UNL     1      36.975 -25.652 -15.050  0.00  0.00    +0.030 C 
ATOM     30  C   UNL     1      39.050 -24.284 -11.546  0.00  0.00    +0.176 C 
ATOM     31  C   UNL     1      38.816 -25.861 -13.498  0.00  0.00    +0.031 C 
ATOM     32  C   UNL     1      38.138 -26.300 -14.636  0.00  0.00    +0.140 C 
ATOM     33  C   UNL     1      37.525 -22.508 -11.537  0.00  0.00    +0.361 C 
ENDBRANCH  22  26
ENDBRANCH   2  22
TORSDOF 6
ENDMDL
MODEL 4
REMARK VINA RESULT:     -10.7      7.542     13.420
REMARK  Name = 45268539
REMARK  6 active torsions:
REMARK  status: ('A' for Active; 'I' for Inactive)
REMARK    1  A    between atoms: N_2  and  C_22
REMARK    2  A    between atoms: N_3  and  C_7
REMARK    3  A    between atoms: N_3  and  O_12
REMARK    4  A    between atoms: C_8  and  C_14
REMARK    5  A    between atoms: C_15  and  C_16
REMARK    6  A    between atoms: C_22  and  C_26
REMARK                            x       y       z     vdW  Elec       q    Type
REMARK                         _______ _______ _______ _____ _____    ______ ____
ROOT
ATOM      1  O   UNL     1      32.850 -12.005 -20.680  0.00  0.00    -0.273 OA
ATOM      2  N   UNL     1      33.209 -12.502 -22.976  0.00  0.00    -0.253 N 
ATOM      3  C   UNL     1      33.800 -13.593 -23.643  0.00  0.00    +0.052 C 
ATOM      4  C   UNL     1      34.248 -14.542 -22.723  0.00  0.00    +0.018 C 
ATOM      5  C   UNL     1      33.242 -12.685 -21.604  0.00  0.00    +0.252 C 
ATOM      6  C   UNL     1      33.921 -14.020 -21.411  0.00  0.00    +0.202 C 
ATOM      7  C   UNL     1      34.869 -15.715 -23.097  0.00  0.00    -0.001 C 
ATOM      8  C   UNL     1      33.967 -13.797 -25.000  0.00  0.00    +0.015 C 
ATOM      9  C   UNL     1      35.041 -15.929 -24.466  0.00  0.00    -0.000 C 
ATOM     10  C   UNL     1      34.595 -14.981 -25.407  0.00  0.00    +0.001 C 
ENDROOT
BRANCH   7  11
ATOM     11  C   UNL     1      35.339 -16.705 -22.145  0.00  0.00    -0.000 C 
ATOM     12  C   UNL     1      35.011 -18.021 -22.158  0.00  0.00    -0.000 C 
BRANCH  12  13
ATOM     13  C   UNL     1      35.501 -19.030 -21.202  0.00  0.00    -0.000 C 
ATOM     14  C   UNL     1      34.617 -19.961 -20.657  0.00  0.00    -0.000 C 
ATOM     15  C   UNL     1      36.849 -19.055 -20.845  0.00  0.00    -0.000 C 
ATOM     16  C   UNL     1      35.081 -20.916 -19.752  0.00  0.00    +0.000 C 
ATOM     17  C   UNL     1      37.312 -20.009 -19.940  0.00  0.00    +0.000 C 
ATOM     18  C   UNL     1      36.429 -20.940 -19.393  0.00  0.00    +0.000 C 
ENDBRANCH  12  13
ENDBRANCH   7  11
BRANCH   6  19
ATOM     19  N   UNL     1      34.142 -14.546 -20.258  0.00  0.00    -0.075 NA
BRANCH  19  20
ATOM     20  O   UNL     1      32.927 -14.641 -19.574  0.00  0.00    -0.294 OA
ATOM     21  H   UNL     1      32.118 -14.586 -20.045  0.00  0.00    +0.238 HD
ENDBRANCH  19  20
ENDBRANCH   6  19
BRANCH   2  22
ATOM     22  C   UNL     1      32.651 -11.361 -23.660  0.00  0.00    +0.128 C 
BRANCH  22  26
ATOM     23  F   UNL     1      36.705  -9.607 -25.694  0.00  0.00    -0.204 F 
ATOM     24  O   UNL     1      32.440  -8.931 -22.292  0.00  0.00    -0.448 OA
ATOM     25  O   UNL     1      33.459  -6.950 -21.399  0.00  0.00    -0.311 OA
ATOM     26  C   UNL     1      33.654 -10.256 -23.822  0.00  0.00    +0.034 C 
ATOM     27  C   UNL     1      33.522  -9.053 -23.128  0.00  0.00    +0.138 C 
ATOM     28  C   UNL     1      34.475  -8.038 -23.277  0.00  0.00    +0.043 C 
ATOM     29  C   UNL     1      34.732 -10.441 -24.687  0.00  0.00    +0.030 C 
ATOM     30  C   UNL     1      34.318  -6.754 -22.522  0.00  0.00    +0.176 C 
ATOM     31  C   UNL     1      35.546  -8.228 -24.156  0.00  0.00    +0.031 C 
ATOM     32  C   UNL     1      35.675  -9.428 -24.858  0.00  0.00    +0.140 C 
ATOM     33  C   UNL     1      32.256  -7.598 -21.804  0.00  0.00    +0.361 C 
ENDBRANCH  22  26
ENDBRANCH   2  22
TORSDOF 6
ENDMDL
MODEL 5
REMARK VINA RESULT:     -10.5      1.935      2.440
REMARK  Name = 45268539
REMARK  6 active torsions:
REMARK  status: ('A' for Active; 'I' for Inactive)
REMARK    1  A    between atoms: N_2  and  C_22
REMARK    2  A    between atoms: N_3  and  C_7
REMARK    3  A    between atoms: N_3  and  O_12
REMARK    4  A    between atoms: C_8  and  C_14
REMARK    5  A    between atoms: C_15  and  C_16
REMARK    6  A    between atoms: C_22  and  C_26
REMARK                            x       y       z     vdW  Elec       q    Type
REMARK                         _______ _______ _______ _____ _____    ______ ____
ROOT
ATOM      1  O   UNL     1      32.150 -23.972 -16.015  0.00  0.00    -0.273 OA
ATOM      2  N   UNL     1      34.434 -23.758 -15.392  0.00  0.00    -0.253 N 
ATOM      3  C   UNL     1      35.527 -23.078 -15.963  0.00  0.00    +0.052 C 
ATOM      4  C   UNL     1      35.135 -22.415 -17.126  0.00  0.00    +0.018 C 
ATOM      5  C   UNL     1      33.288 -23.572 -16.146  0.00  0.00    +0.252 C 
ATOM      6  C   UNL     1      33.722 -22.692 -17.293  0.00  0.00    +0.202 C 
ATOM      7  C   UNL     1      36.004 -21.667 -17.893  0.00  0.00    -0.001 C 
ATOM      8  C   UNL     1      36.836 -23.010 -15.523  0.00  0.00    +0.015 C 
ATOM      9  C   UNL     1      37.327 -21.593 -17.455  0.00  0.00    -0.000 C 
ATOM     10  C   UNL     1      37.739 -22.258 -16.284  0.00  0.00    +0.001 C 
ENDROOT
BRANCH   7  11
ATOM     11  C   UNL     1      35.602 -20.976 -19.104  0.00  0.00    -0.000 C 
ATOM     12  C   UNL     1      36.402 -20.174 -19.850  0.00  0.00    -0.000 C 
BRANCH  12  13
ATOM     13  C   UNL     1      36.000 -19.486 -21.090  0.00  0.00    -0.000 C 
ATOM     14  C   UNL     1      34.737 -19.714 -21.636  0.00  0.00    -0.000 C 
ATOM     15  C   UNL     1      36.882 -18.605 -21.716  0.00  0.00    -0.000 C 
ATOM     16  C   UNL     1      34.356 -19.063 -22.809  0.00  0.00    +0.000 C 
ATOM     17  C   UNL     1      36.501 -17.954 -22.889  0.00  0.00    +0.000 C 
ATOM     18  C   UNL     1      35.238 -18.183 -23.436  0.00  0.00    +0.000 C 
ENDBRANCH  12  13
ENDBRANCH   7  11
BRANCH   6  19
ATOM     19  N   UNL     1      32.929 -22.294 -18.224  0.00  0.00    -0.075 NA
BRANCH  19  20
ATOM     20  O   UNL     1      31.741 -21.851 -17.636  0.00  0.00    -0.294 OA
ATOM     21  H   UNL     1      31.121 -21.364 -18.143  0.00  0.00    +0.238 HD
ENDBRANCH  19  20
ENDBRANCH   6  19
BRANCH   2  22
ATOM     22  C   UNL     1      34.528 -24.536 -14.180  0.00  0.00    +0.128 C 
BRANCH  22  26
ATOM     23  F   UNL     1      37.196 -22.170 -10.874  0.00  0.00    -0.204 F 
ATOM     24  O   UNL     1      36.809 -26.051 -14.749  0.00  0.00    -0.448 OA
ATOM     25  O   UNL     1      39.197 -26.299 -14.746  0.00  0.00    -0.311 OA
ATOM     26  C   UNL     1      35.834 -24.321 -13.473  0.00  0.00    +0.034 C 
ATOM     27  C   UNL     1      36.956 -25.094 -13.776  0.00  0.00    +0.138 C 
ATOM     28  C   UNL     1      38.172 -24.870 -13.119  0.00  0.00    +0.043 C 
ATOM     29  C   UNL     1      35.919 -23.332 -12.493  0.00  0.00    +0.030 C 
ATOM     30  C   UNL     1      39.366 -25.708 -13.458  0.00  0.00    +0.176 C 
ATOM     31  C   UNL     1      38.244 -23.884 -12.129  0.00  0.00    +0.031 C 
ATOM     32  C   UNL     1      37.121 -23.117 -11.819  0.00  0.00    +0.140 C 
ATOM     33  C   UNL     1      37.927 -26.941 -14.832  0.00  0.00    +0.361 C 
ENDBRANCH  22  26
ENDBRANCH   2  22
TORSDOF 6
ENDMDL
MODEL 6
REMARK VINA RESULT:     -10.4      3.842      9.140
REMARK  Name = 45268539
REMARK  6 active torsions:
REMARK  status: ('A' for Active; 'I' for Inactive)
REMARK    1  A    between atoms: N_2  and  C_22
REMARK    2  A    between atoms: N_3  and  C_7
REMARK    3  A    between atoms: N_3  and  O_12
REMARK    4  A    between atoms: C_8  and  C_14
REMARK    5  A    between atoms: C_15  and  C_16
REMARK    6  A    between atoms: C_22  and  C_26
REMARK                            x       y       z     vdW  Elec       q    Type
REMARK                         _______ _______ _______ _____ _____    ______ ____
ROOT
ATOM      1  O   UNL     1      33.671 -20.152 -21.106  0.00  0.00    -0.273 OA
ATOM      2  N   UNL     1      35.729 -20.235 -19.919  0.00  0.00    -0.253 N 
ATOM      3  C   UNL     1      36.142 -20.917 -18.758  0.00  0.00    +0.052 C 
ATOM      4  C   UNL     1      35.095 -21.682 -18.243  0.00  0.00    +0.018 C 
ATOM      5  C   UNL     1      34.406 -20.520 -20.214  0.00  0.00    +0.252 C 
ATOM      6  C   UNL     1      33.965 -21.469 -19.126  0.00  0.00    +0.202 C 
ATOM      7  C   UNL     1      35.218 -22.454 -17.107  0.00  0.00    -0.001 C 
ATOM      8  C   UNL     1      37.375 -20.904 -18.133  0.00  0.00    +0.015 C 
ATOM      9  C   UNL     1      36.460 -22.446 -16.471  0.00  0.00    -0.000 C 
ATOM     10  C   UNL     1      37.527 -21.680 -16.978  0.00  0.00    +0.001 C 
ENDROOT
BRANCH   7  11
ATOM     11  C   UNL     1      34.131 -23.250 -16.565  0.00  0.00    -0.000 C 
ATOM     12  C   UNL     1      33.240 -22.828 -15.634  0.00  0.00    -0.000 C 
BRANCH  12  13
ATOM     13  C   UNL     1      32.126 -23.630 -15.096  0.00  0.00    -0.000 C 
ATOM     14  C   UNL     1      32.278 -24.311 -13.889  0.00  0.00    -0.000 C 
ATOM     15  C   UNL     1      30.921 -23.706 -15.794  0.00  0.00    -0.000 C 
ATOM     16  C   UNL     1      31.223 -25.071 -13.380  0.00  0.00    +0.000 C 
ATOM     17  C   UNL     1      29.868 -24.464 -15.285  0.00  0.00    +0.000 C 
ATOM     18  C   UNL     1      30.019 -25.148 -14.078  0.00  0.00    +0.000 C 
ENDBRANCH  12  13
ENDBRANCH   7  11
BRANCH   6  19
ATOM     19  N   UNL     1      32.781 -21.965 -19.052  0.00  0.00    -0.075 NA
BRANCH  19  20
ATOM     20  O   UNL     1      31.957 -21.048 -18.394  0.00  0.00    -0.294 OA
ATOM     21  H   UNL     1      31.735 -20.237 -18.807  0.00  0.00    +0.238 HD
ENDBRANCH  19  20
ENDBRANCH   6  19
BRANCH   2  22
ATOM     22  C   UNL     1      36.592 -19.365 -20.678  0.00  0.00    +0.128 C 
BRANCH  22  26
ATOM     23  F   UNL     1      35.124 -20.457 -25.183  0.00  0.00    -0.204 F 
ATOM     24  O   UNL     1      35.688 -16.761 -21.153  0.00  0.00    -0.448 OA
ATOM     25  O   UNL     1      35.129 -14.998 -22.683  0.00  0.00    -0.311 OA
ATOM     26  C   UNL     1      35.972 -18.953 -21.981  0.00  0.00    +0.034 C 
ATOM     27  C   UNL     1      35.527 -17.647 -22.189  0.00  0.00    +0.138 C 
ATOM     28  C   UNL     1      34.965 -17.274 -23.416  0.00  0.00    +0.043 C 
ATOM     29  C   UNL     1      35.835 -19.900 -22.995  0.00  0.00    +0.030 C 
ATOM     30  C   UNL     1      34.495 -15.867 -23.622  0.00  0.00    +0.176 C 
ATOM     31  C   UNL     1      34.822 -18.233 -24.424  0.00  0.00    +0.031 C 
ATOM     32  C   UNL     1      35.258 -19.543 -24.214  0.00  0.00    +0.140 C 
ATOM     33  C   UNL     1      35.003 -15.522 -21.363  0.00  0.00    +0.361 C 
ENDBRANCH  22  26
ENDBRANCH   2  22
TORSDOF 6
ENDMDL
MODEL 7
REMARK VINA RESULT:     -10.3      8.157     13.771
REMARK  Name = 45268539
REMARK  6 active torsions:
REMARK  status: ('A' for Active; 'I' for Inactive)
REMARK    1  A    between atoms: N_2  and  C_22
REMARK    2  A    between atoms: N_3  and  C_7
REMARK    3  A    between atoms: N_3  and  O_12
REMARK    4  A    between atoms: C_8  and  C_14
REMARK    5  A    between atoms: C_15  and  C_16
REMARK    6  A    between atoms: C_22  and  C_26
REMARK                            x       y       z     vdW  Elec       q    Type
REMARK                         _______ _______ _______ _____ _____    ______ ____
ROOT
ATOM      1  O   UNL     1      31.803 -11.697 -19.974  0.00  0.00    -0.273 OA
ATOM      2  N   UNL     1      32.481 -11.669 -22.252  0.00  0.00    -0.253 N 
ATOM      3  C   UNL     1      33.272 -12.536 -23.031  0.00  0.00    +0.052 C 
ATOM      4  C   UNL     1      33.721 -13.610 -22.262  0.00  0.00    +0.018 C 
ATOM      5  C   UNL     1      32.377 -12.130 -20.951  0.00  0.00    +0.252 C 
ATOM      6  C   UNL     1      33.184 -13.406 -20.930  0.00  0.00    +0.202 C 
ATOM      7  C   UNL     1      34.516 -14.615 -22.769  0.00  0.00    -0.001 C 
ATOM      8  C   UNL     1      33.616 -12.436 -24.366  0.00  0.00    +0.015 C 
ATOM      9  C   UNL     1      34.868 -14.522 -24.116  0.00  0.00    -0.000 C 
ATOM     10  C   UNL     1      34.424 -13.444 -24.906  0.00  0.00    +0.001 C 
ENDROOT
BRANCH   7  11
ATOM     11  C   UNL     1      34.988 -15.734 -21.973  0.00  0.00    -0.000 C 
ATOM     12  C   UNL     1      35.142 -17.004 -22.422  0.00  0.00    -0.000 C 
BRANCH  12  13
ATOM     13  C   UNL     1      35.637 -18.137 -21.619  0.00  0.00    -0.000 C 
ATOM     14  C   UNL     1      36.986 -18.208 -21.271  0.00  0.00    -0.000 C 
ATOM     15  C   UNL     1      34.756 -19.137 -21.206  0.00  0.00    -0.000 C 
ATOM     16  C   UNL     1      37.454 -19.280 -20.511  0.00  0.00    +0.000 C 
ATOM     17  C   UNL     1      35.225 -20.208 -20.447  0.00  0.00    +0.000 C 
ATOM     18  C   UNL     1      36.574 -20.281 -20.099  0.00  0.00    +0.000 C 
ENDBRANCH  12  13
ENDBRANCH   7  11
BRANCH   6  19
ATOM     19  N   UNL     1      33.332 -14.138 -19.883  0.00  0.00    -0.075 NA
BRANCH  19  20
ATOM     20  O   UNL     1      32.071 -14.573 -19.464  0.00  0.00    -0.294 OA
ATOM     21  H   UNL     1      31.945 -14.864 -18.582  0.00  0.00    +0.238 HD
ENDBRANCH  19  20
ENDBRANCH   6  19
BRANCH   2  22
ATOM     22  C   UNL     1      31.874 -10.467 -22.770  0.00  0.00    +0.128 C 
BRANCH  22  26
ATOM     23  F   UNL     1      32.130  -6.944 -19.429  0.00  0.00    -0.204 F 
ATOM     24  O   UNL     1      34.082  -9.278 -24.007  0.00  0.00    -0.448 OA
ATOM     25  O   UNL     1      35.452  -7.349 -24.413  0.00  0.00    -0.311 OA
ATOM     26  C   UNL     1      32.528  -9.228 -22.232  0.00  0.00    +0.034 C 
ATOM     27  C   UNL     1      33.631  -8.658 -22.869  0.00  0.00    +0.138 C 
ATOM     28  C   UNL     1      34.219  -7.492 -22.363  0.00  0.00    +0.043 C 
ATOM     29  C   UNL     1      32.022  -8.646 -21.070  0.00  0.00    +0.030 C 
ATOM     30  C   UNL     1      35.401  -6.893 -23.061  0.00  0.00    +0.176 C 
ATOM     31  C   UNL     1      33.713  -6.922 -21.191  0.00  0.00    +0.031 C 
ATOM     32  C   UNL     1      32.615  -7.497 -20.548  0.00  0.00    +0.140 C 
ATOM     33  C   UNL     1      35.342  -8.769 -24.460  0.00  0.00    +0.361 C 
ENDBRANCH  22  26
ENDBRANCH   2  22
TORSDOF 6
ENDMDL
MODEL 8
REMARK VINA RESULT:     -10.1      9.780     15.440
REMARK  Name = 45268539
REMARK  6 active torsions:
REMARK  status: ('A' for Active; 'I' for Inactive)
REMARK    1  A    between atoms: N_2  and  C_22
REMARK    2  A    between atoms: N_3  and  C_7
REMARK    3  A    between atoms: N_3  and  O_12
REMARK    4  A    between atoms: C_8  and  C_14
REMARK    5  A    between atoms: C_15  and  C_16
REMARK    6  A    between atoms: C_22  and  C_26
REMARK                            x       y       z     vdW  Elec       q    Type
REMARK                         _______ _______ _______ _____ _____    ______ ____
ROOT
ATOM      1  O   UNL     1      30.438 -10.776 -20.612  0.00  0.00    -0.273 OA
ATOM      2  N   UNL     1      31.590  -9.890 -22.493  0.00  0.00    -0.253 N 
ATOM      3  C   UNL     1      32.673 -10.356 -23.264  0.00  0.00    +0.052 C 
ATOM      4  C   UNL     1      33.120 -11.587 -22.784  0.00  0.00    +0.018 C 
ATOM      5  C   UNL     1      31.281 -10.786 -21.484  0.00  0.00    +0.252 C 
ATOM      6  C   UNL     1      32.273 -11.912 -21.652  0.00  0.00    +0.202 C 
ATOM      7  C   UNL     1      34.171 -12.276 -23.350  0.00  0.00    -0.001 C 
ATOM      8  C   UNL     1      33.283  -9.764 -24.355  0.00  0.00    +0.015 C 
ATOM      9  C   UNL     1      34.792 -11.686 -24.451  0.00  0.00    -0.000 C 
ATOM     10  C   UNL     1      34.353 -10.443 -24.948  0.00  0.00    +0.001 C 
ENDROOT
BRANCH   7  11
ATOM     11  C   UNL     1      34.642 -13.556 -22.854  0.00  0.00    -0.000 C 
ATOM     12  C   UNL     1      34.578 -14.730 -23.531  0.00  0.00    -0.000 C 
BRANCH  12  13
ATOM     13  C   UNL     1      35.071 -16.027 -23.034  0.00  0.00    -0.000 C 
ATOM     14  C   UNL     1      35.300 -16.211 -21.671  0.00  0.00    -0.000 C 
ATOM     15  C   UNL     1      35.308 -17.071 -23.928  0.00  0.00    -0.000 C 
ATOM     16  C   UNL     1      35.767 -17.439 -21.201  0.00  0.00    +0.000 C 
ATOM     17  C   UNL     1      35.775 -18.299 -23.459  0.00  0.00    +0.000 C 
ATOM     18  C   UNL     1      36.005 -18.482 -22.095  0.00  0.00    +0.000 C 
ENDBRANCH  12  13
ENDBRANCH   7  11
BRANCH   6  19
ATOM     19  N   UNL     1      32.310 -12.948 -20.892  0.00  0.00    -0.075 NA
BRANCH  19  20
ATOM     20  O   UNL     1      32.455 -12.522 -19.569  0.00  0.00    -0.294 OA
ATOM     21  H   UNL     1      32.604 -13.149 -18.888  0.00  0.00    +0.238 HD
ENDBRANCH  19  20
ENDBRANCH   6  19
BRANCH   2  22
ATOM     22  C   UNL     1      30.913  -8.642 -22.747  0.00  0.00    +0.128 C 
BRANCH  22  26
ATOM     23  F   UNL     1      33.281  -6.544 -19.055  0.00  0.00    -0.204 F 
ATOM     24  O   UNL     1      31.403  -6.313 -24.216  0.00  0.00    -0.448 OA
ATOM     25  O   UNL     1      31.883  -3.962 -24.291  0.00  0.00    -0.311 OA
ATOM     26  C   UNL     1      31.657  -7.471 -22.175  0.00  0.00    +0.034 C 
ATOM     27  C   UNL     1      31.889  -6.322 -22.932  0.00  0.00    +0.138 C 
ATOM     28  C   UNL     1      32.571  -5.232 -22.379  0.00  0.00    +0.043 C 
ATOM     29  C   UNL     1      32.128  -7.543 -20.864  0.00  0.00    +0.030 C 
ATOM     30  C   UNL     1      32.809  -4.006 -23.206  0.00  0.00    +0.176 C 
ATOM     31  C   UNL     1      33.049  -5.317 -21.067  0.00  0.00    +0.031 C 
ATOM     32  C   UNL     1      32.826  -6.469 -20.312  0.00  0.00    +0.140 C 
ATOM     33  C   UNL     1      31.880  -5.206 -24.988  0.00  0.00    +0.361 C 
ENDBRANCH  22  26
ENDBRANCH   2  22
TORSDOF 6
ENDMDL
MODEL 9
REMARK VINA RESULT:     -10.1      5.963     10.313
REMARK  Name = 45268539
REMARK  6 active torsions:
REMARK  status: ('A' for Active; 'I' for Inactive)
REMARK    1  A    between atoms: N_2  and  C_22
REMARK    2  A    between atoms: N_3  and  C_7
REMARK    3  A    between atoms: N_3  and  O_12
REMARK    4  A    between atoms: C_8  and  C_14
REMARK    5  A    between atoms: C_15  and  C_16
REMARK    6  A    between atoms: C_22  and  C_26
REMARK                            x       y       z     vdW  Elec       q    Type
REMARK                         _______ _______ _______ _____ _____    ______ ____
ROOT
ATOM      1  O   UNL     1      35.098 -16.021 -20.865  0.00  0.00    -0.273 OA
ATOM      2  N   UNL     1      34.477 -16.212 -23.152  0.00  0.00    -0.253 N 
ATOM      3  C   UNL     1      34.115 -15.268 -24.132  0.00  0.00    +0.052 C 
ATOM      4  C   UNL     1      34.143 -13.978 -23.601  0.00  0.00    +0.018 C 
ATOM      5  C   UNL     1      34.756 -15.590 -21.946  0.00  0.00    +0.252 C 
ATOM      6  C   UNL     1      34.544 -14.120 -22.214  0.00  0.00    +0.202 C 
ATOM      7  C   UNL     1      33.833 -12.855 -24.338  0.00  0.00    -0.001 C 
ATOM      8  C   UNL     1      33.765 -15.475 -25.453  0.00  0.00    +0.015 C 
ATOM      9  C   UNL     1      33.479 -13.056 -25.673  0.00  0.00    -0.000 C 
ATOM     10  C   UNL     1      33.445 -14.352 -26.225  0.00  0.00    +0.001 C 
ENDROOT
BRANCH   7  11
ATOM     11  C   UNL     1      33.859 -11.511 -23.791  0.00  0.00    -0.000 C 
ATOM     12  C   UNL     1      34.344 -10.416 -24.427  0.00  0.00    -0.000 C 
BRANCH  12  13
ATOM     13  C   UNL     1      34.355  -9.048 -23.878  0.00  0.00    -0.000 C 
ATOM     14  C   UNL     1      33.254  -8.574 -23.164  0.00  0.00    -0.000 C 
ATOM     15  C   UNL     1      35.467  -8.228 -24.070  0.00  0.00    -0.000 C 
ATOM     16  C   UNL     1      33.264  -7.279 -22.645  0.00  0.00    +0.000 C 
ATOM     17  C   UNL     1      35.477  -6.934 -23.551  0.00  0.00    +0.000 C 
ATOM     18  C   UNL     1      34.376  -6.459 -22.839  0.00  0.00    +0.000 C 
ENDBRANCH  12  13
ENDBRANCH   7  11
BRANCH   6  19
ATOM     19  N   UNL     1      34.705 -13.204 -21.326  0.00  0.00    -0.075 NA
BRANCH  19  20
ATOM     20  O   UNL     1      33.596 -13.212 -20.475  0.00  0.00    -0.294 OA
ATOM     21  H   UNL     1      33.644 -12.790 -19.639  0.00  0.00    +0.238 HD
ENDBRANCH  19  20
ENDBRANCH   6  19
BRANCH   2  22
ATOM     22  C   UNL     1      34.539 -17.631 -23.402  0.00  0.00    +0.128 C 
BRANCH  22  26
ATOM     23  F   UNL     1      39.058 -18.402 -21.780  0.00  0.00    -0.204 F 
ATOM     24  O   UNL     1      33.674 -19.466 -21.477  0.00  0.00    -0.448 OA
ATOM     25  O   UNL     1      34.117 -21.327 -20.027  0.00  0.00    -0.311 OA
ATOM     26  C   UNL     1      35.487 -18.326 -22.467  0.00  0.00    +0.034 C 
ATOM     27  C   UNL     1      35.026 -19.235 -21.515  0.00  0.00    +0.138 C 
ATOM     28  C   UNL     1      35.925 -19.887 -20.661  0.00  0.00    +0.043 C 
ATOM     29  C   UNL     1      36.851 -18.047 -22.555  0.00  0.00    +0.030 C 
ATOM     30  C   UNL     1      35.412 -20.862 -19.646  0.00  0.00    +0.176 C 
ATOM     31  C   UNL     1      37.289 -19.593 -20.749  0.00  0.00    +0.031 C 
ATOM     32  C   UNL     1      37.750 -18.676 -21.695  0.00  0.00    +0.140 C 
ATOM     33  C   UNL     1      33.267 -20.225 -20.333  0.00  0.00    +0.361 C 
ENDBRANCH  22  26
ENDBRANCH   2  22
TORSDOF 6
ENDMDL
