MODEL 1
REMARK VINA RESULT:     -12.5      0.000      0.000
REMARK  Name = 5287728
REMARK  9 active torsions:
REMARK  status: ('A' for Active; 'I' for Inactive)
REMARK    1  A    between atoms: S_1  and  N_4
REMARK    2  A    between atoms: S_1  and  N_22
REMARK    3  A    between atoms: C_5  and  N_10
REMARK    4  A    between atoms: N_10  and  C_13
REMARK    5  A    between atoms: C_13  and  C_14
REMARK    6  A    between atoms: C_15  and  O_20
REMARK    7  A    between atoms: N_22  and  C_24
REMARK    8  A    between atoms: C_27  and  O_30
REMARK    9  A    between atoms: O_30  and  C_32
REMARK                            x       y       z     vdW  Elec       q    Type
REMARK                         _______ _______ _______ _____ _____    ______ ____
ROOT
ATOM      1  S   UNL     1      36.321 -18.561 -21.077  0.00  0.00    +0.113 S 
ATOM      2  O   UNL     1      35.792 -17.276 -20.658  0.00  0.00    -0.138 OA
ATOM      3  O   UNL     1      37.750 -18.814 -21.019  0.00  0.00    -0.138 OA
ENDROOT
BRANCH   1   4
ATOM      4  N   UNL     1      35.515 -19.785 -20.186  0.00  0.00    -0.143 NA
ATOM      5  C   UNL     1      34.216 -22.213 -19.253  0.00  0.00    -0.059 C 
ATOM      6  C   UNL     1      33.420 -20.955 -19.614  0.00  0.00    -0.002 C 
ATOM      7  C   UNL     1      35.637 -21.836 -18.820  0.00  0.00    -0.002 C 
ATOM      8  C   UNL     1      34.148 -20.131 -20.674  0.00  0.00    +0.095 C 
ATOM      9  C   UNL     1      36.331 -20.999 -19.890  0.00  0.00    +0.095 C 
BRANCH   5  10
ATOM     10  N   UNL     1      33.542 -22.942 -18.181  0.00  0.00    +0.388 N 
ATOM     11  H   UNL     1      34.200 -23.097 -17.417  0.00  0.00    -0.084 HD
ATOM     12  H   UNL     1      33.209 -23.833 -18.549  0.00  0.00    -0.084 HD
BRANCH  10  13
ATOM     13  C   UNL     1      32.402 -22.187 -17.682  0.00  0.00    -0.051 C 
BRANCH  13  14
ATOM     14  C   UNL     1      31.962 -22.667 -16.325  0.00  0.00    -0.010 C 
ATOM     15  C   UNL     1      30.613 -22.710 -15.999  0.00  0.00    +0.128 C 
ATOM     16  C   UNL     1      32.929 -23.064 -15.410  0.00  0.00    -0.003 C 
ATOM     17  C   UNL     1      30.223 -23.157 -14.737  0.00  0.00    +0.036 C 
ATOM     18  C   UNL     1      32.539 -23.510 -14.147  0.00  0.00    -0.000 C 
ATOM     19  C   UNL     1      31.187 -23.557 -13.811  0.00  0.00    +0.003 C 
BRANCH  15  20
ATOM     20  O   UNL     1      29.659 -22.323 -16.892  0.00  0.00    -0.506 OA
ATOM     21  H   UNL     1      28.834 -22.766 -16.918  0.00  0.00    +0.292 HD
ENDBRANCH  15  20
ENDBRANCH  13  14
ENDBRANCH  10  13
ENDBRANCH   5  10
ENDBRANCH   1   4
BRANCH   1  22
ATOM     22  N   UNL     1      35.727 -18.878 -22.666  0.00  0.00    -0.205 N 
ATOM     23  H   UNL     1      35.776 -19.776 -23.066  0.00  0.00    +0.175 HD
BRANCH  22  24
ATOM     24  C   UNL     1      35.156 -17.765 -23.380  0.00  0.00    +0.069 C 
ATOM     25  C   UNL     1      35.446 -16.468 -22.974  0.00  0.00    +0.053 C 
ATOM     26  C   UNL     1      34.322 -18.002 -24.465  0.00  0.00    +0.016 C 
ATOM     27  C   UNL     1      34.892 -15.391 -23.666  0.00  0.00    +0.147 C 
ATOM     28  C   UNL     1      33.768 -16.924 -25.156  0.00  0.00    +0.004 C 
ATOM     29  C   UNL     1      34.053 -15.619 -24.756  0.00  0.00    +0.038 C 
BRANCH  27  30
ATOM     30  O   UNL     1      35.169 -14.117 -23.274  0.00  0.00    -0.453 OA
BRANCH  30  32
ATOM     31  F   UNL     1      31.285 -11.394 -20.509  0.00  0.00    -0.204 F 
ATOM     32  C   UNL     1      34.190 -13.430 -22.577  0.00  0.00    +0.145 C 
ATOM     33  C   UNL     1      33.784 -13.904 -21.342  0.00  0.00    +0.040 C 
ATOM     34  C   UNL     1      33.643 -12.288 -23.132  0.00  0.00    +0.040 C 
ATOM     35  C   UNL     1      32.798 -13.212 -20.640  0.00  0.00    +0.033 C 
ATOM     36  C   UNL     1      32.655 -11.596 -22.431  0.00  0.00    +0.033 C 
ATOM     37  C   UNL     1      32.233 -12.058 -21.184  0.00  0.00    +0.140 C 
ENDBRANCH  30  32
ENDBRANCH  27  30
ENDBRANCH  22  24
ENDBRANCH   1  22
TORSDOF 9
ENDMDL
MODEL 2
REMARK VINA RESULT:     -12.1      3.297     10.502
REMARK  Name = 5287728
REMARK  9 active torsions:
REMARK  status: ('A' for Active; 'I' for Inactive)
REMARK    1  A    between atoms: S_1  and  N_4
REMARK    2  A    between atoms: S_1  and  N_22
REMARK    3  A    between atoms: C_5  and  N_10
REMARK    4  A    between atoms: N_10  and  C_13
REMARK    5  A    between atoms: C_13  and  C_14
REMARK    6  A    between atoms: C_15  and  O_20
REMARK    7  A    between atoms: N_22  and  C_24
REMARK    8  A    between atoms: C_27  and  O_30
REMARK    9  A    between atoms: O_30  and  C_32
REMARK                            x       y       z     vdW  Elec       q    Type
REMARK                         _______ _______ _______ _____ _____    ______ ____
ROOT
ATOM      1  S   UNL     1      33.766 -22.578 -18.228  0.00  0.00    +0.113 S 
ATOM      2  O   UNL     1      32.516 -22.132 -17.640  0.00  0.00    -0.138 OA
ATOM      3  O   UNL     1      33.900 -23.944 -18.703  0.00  0.00    -0.138 OA
ENDROOT
BRANCH   1   4
ATOM      4  N   UNL     1      34.159 -21.513 -19.513  0.00  0.00    -0.143 NA
ATOM      5  C   UNL     1      34.843 -19.241 -21.195  0.00  0.00    -0.059 C 
ATOM      6  C   UNL     1      33.433 -19.840 -21.174  0.00  0.00    -0.002 C 
ATOM      7  C   UNL     1      35.877 -20.305 -20.810  0.00  0.00    -0.002 C 
ATOM      8  C   UNL     1      33.128 -20.479 -19.821  0.00  0.00    +0.095 C 
ATOM      9  C   UNL     1      35.536 -20.938 -19.463  0.00  0.00    +0.095 C 
BRANCH   5  10
ATOM     10  N   UNL     1      35.142 -18.709 -22.522  0.00  0.00    +0.388 N 
ATOM     11  H   UNL     1      34.268 -18.461 -22.987  0.00  0.00    -0.084 HD
ATOM     12  H   UNL     1      35.639 -19.421 -23.056  0.00  0.00    -0.084 HD
BRANCH  10  13
ATOM     13  C   UNL     1      35.983 -17.526 -22.425  0.00  0.00    -0.051 C 
BRANCH  13  14
ATOM     14  C   UNL     1      35.257 -16.284 -22.867  0.00  0.00    -0.010 C 
ATOM     15  C   UNL     1      34.856 -16.139 -24.189  0.00  0.00    +0.128 C 
ATOM     16  C   UNL     1      34.997 -15.291 -21.931  0.00  0.00    -0.003 C 
ATOM     17  C   UNL     1      34.184 -14.982 -24.582  0.00  0.00    +0.036 C 
ATOM     18  C   UNL     1      34.325 -14.133 -22.325  0.00  0.00    -0.000 C 
ATOM     19  C   UNL     1      33.919 -13.979 -23.649  0.00  0.00    +0.003 C 
BRANCH  15  20
ATOM     20  O   UNL     1      35.107 -17.109 -25.113  0.00  0.00    -0.506 OA
ATOM     21  H   UNL     1      35.367 -16.873 -25.982  0.00  0.00    +0.292 HD
ENDBRANCH  15  20
ENDBRANCH  13  14
ENDBRANCH  10  13
ENDBRANCH   5  10
ENDBRANCH   1   4
BRANCH   1  22
ATOM     22  N   UNL     1      35.029 -22.213 -17.111  0.00  0.00    -0.205 N 
ATOM     23  H   UNL     1      35.722 -21.544 -17.315  0.00  0.00    +0.175 HD
BRANCH  22  24
ATOM     24  C   UNL     1      35.023 -22.935 -15.864  0.00  0.00    +0.069 C 
ATOM     25  C   UNL     1      33.843 -23.037 -15.137  0.00  0.00    +0.053 C 
ATOM     26  C   UNL     1      36.196 -23.520 -15.404  0.00  0.00    +0.016 C 
ATOM     27  C   UNL     1      33.838 -23.735 -13.930  0.00  0.00    +0.147 C 
ATOM     28  C   UNL     1      36.190 -24.218 -14.197  0.00  0.00    +0.004 C 
ATOM     29  C   UNL     1      35.011 -24.326 -13.460  0.00  0.00    +0.038 C 
BRANCH  27  30
ATOM     30  O   UNL     1      32.688 -23.839 -13.209  0.00  0.00    -0.453 OA
BRANCH  30  32
ATOM     31  F   UNL     1      27.940 -23.817 -15.967  0.00  0.00    -0.204 F 
ATOM     32  C   UNL     1      31.490 -23.834 -13.905  0.00  0.00    +0.145 C 
ATOM     33  C   UNL     1      30.892 -25.039 -14.227  0.00  0.00    +0.040 C 
ATOM     34  C   UNL     1      30.922 -22.623 -14.258  0.00  0.00    +0.040 C 
ATOM     35  C   UNL     1      29.686 -25.033 -14.927  0.00  0.00    +0.033 C 
ATOM     36  C   UNL     1      29.717 -22.617 -14.959  0.00  0.00    +0.033 C 
ATOM     37  C   UNL     1      29.099 -23.822 -15.294  0.00  0.00    +0.140 C 
ENDBRANCH  30  32
ENDBRANCH  27  30
ENDBRANCH  22  24
ENDBRANCH   1  22
TORSDOF 9
ENDMDL
MODEL 3
REMARK VINA RESULT:     -12.0      3.585      6.474
REMARK  Name = 5287728
REMARK  9 active torsions:
REMARK  status: ('A' for Active; 'I' for Inactive)
REMARK    1  A    between atoms: S_1  and  N_4
REMARK    2  A    between atoms: S_1  and  N_22
REMARK    3  A    between atoms: C_5  and  N_10
REMARK    4  A    between atoms: N_10  and  C_13
REMARK    5  A    between atoms: C_13  and  C_14
REMARK    6  A    between atoms: C_15  and  O_20
REMARK    7  A    between atoms: N_22  and  C_24
REMARK    8  A    between atoms: C_27  and  O_30
REMARK    9  A    between atoms: O_30  and  C_32
REMARK                            x       y       z     vdW  Elec       q    Type
REMARK                         _______ _______ _______ _____ _____    ______ ____
ROOT
ATOM      1  S   UNL     1      33.612 -13.335 -23.248  0.00  0.00    +0.113 S 
ATOM      2  O   UNL     1      34.587 -12.312 -22.917  0.00  0.00    -0.138 OA
ATOM      3  O   UNL     1      33.087 -13.430 -24.598  0.00  0.00    -0.138 OA
ENDROOT
BRANCH   1   4
ATOM      4  N   UNL     1      34.268 -14.857 -22.810  0.00  0.00    -0.143 NA
ATOM      5  C   UNL     1      35.974 -17.107 -22.114  0.00  0.00    -0.059 C 
ATOM      6  C   UNL     1      35.307 -16.989 -23.489  0.00  0.00    -0.002 C 
ATOM      7  C   UNL     1      35.152 -16.356 -21.060  0.00  0.00    -0.002 C 
ATOM      8  C   UNL     1      35.084 -15.526 -23.865  0.00  0.00    +0.095 C 
ATOM      9  C   UNL     1      34.930 -14.904 -21.473  0.00  0.00    +0.095 C 
BRANCH   5  10
ATOM     10  N   UNL     1      36.103 -18.513 -21.739  0.00  0.00    +0.388 N 
ATOM     11  H   UNL     1      36.581 -18.578 -20.840  0.00  0.00    -0.084 HD
ATOM     12  H   UNL     1      36.637 -18.997 -22.461  0.00  0.00    -0.084 HD
BRANCH  10  13
ATOM     13  C   UNL     1      34.794 -19.140 -21.628  0.00  0.00    -0.051 C 
BRANCH  13  14
ATOM     14  C   UNL     1      34.754 -20.162 -20.524  0.00  0.00    -0.010 C 
ATOM     15  C   UNL     1      33.537 -20.628 -20.042  0.00  0.00    +0.128 C 
ATOM     16  C   UNL     1      35.953 -20.627 -19.998  0.00  0.00    -0.003 C 
ATOM     17  C   UNL     1      33.518 -21.574 -19.019  0.00  0.00    +0.036 C 
ATOM     18  C   UNL     1      35.933 -21.574 -18.973  0.00  0.00    -0.000 C 
ATOM     19  C   UNL     1      34.717 -22.047 -18.484  0.00  0.00    +0.003 C 
BRANCH  15  20
ATOM     20  O   UNL     1      32.357 -20.176 -20.554  0.00  0.00    -0.506 OA
ATOM     21  H   UNL     1      31.570 -20.668 -20.423  0.00  0.00    +0.292 HD
ENDBRANCH  15  20
ENDBRANCH  13  14
ENDBRANCH  10  13
ENDBRANCH   5  10
ENDBRANCH   1   4
BRANCH   1  22
ATOM     22  N   UNL     1      32.315 -13.207 -22.116  0.00  0.00    -0.205 N 
ATOM     23  H   UNL     1      31.713 -13.964 -21.933  0.00  0.00    +0.175 HD
BRANCH  22  24
ATOM     24  C   UNL     1      32.156 -11.939 -21.452  0.00  0.00    +0.069 C 
ATOM     25  C   UNL     1      31.915 -10.796 -22.205  0.00  0.00    +0.053 C 
ATOM     26  C   UNL     1      32.245 -11.874 -20.068  0.00  0.00    +0.016 C 
ATOM     27  C   UNL     1      31.761  -9.568 -21.561  0.00  0.00    +0.147 C 
ATOM     28  C   UNL     1      32.091 -10.646 -19.425  0.00  0.00    +0.004 C 
ATOM     29  C   UNL     1      31.849  -9.494 -20.171  0.00  0.00    +0.038 C 
BRANCH  27  30
ATOM     30  O   UNL     1      31.526  -8.443 -22.290  0.00  0.00    -0.453 OA
BRANCH  30  32
ATOM     31  F   UNL     1      35.857  -5.848 -24.447  0.00  0.00    -0.204 F 
ATOM     32  C   UNL     1      32.619  -7.788 -22.834  0.00  0.00    +0.145 C 
ATOM     33  C   UNL     1      32.561  -6.418 -23.017  0.00  0.00    +0.040 C 
ATOM     34  C   UNL     1      33.739  -8.521 -23.180  0.00  0.00    +0.040 C 
ATOM     35  C   UNL     1      33.661  -5.759 -23.565  0.00  0.00    +0.033 C 
ATOM     36  C   UNL     1      34.839  -7.862 -23.729  0.00  0.00    +0.033 C 
ATOM     37  C   UNL     1      34.800  -6.481 -23.921  0.00  0.00    +0.140 C 
ENDBRANCH  30  32
ENDBRANCH  27  30
ENDBRANCH  22  24
ENDBRANCH   1  22
TORSDOF 9
ENDMDL
MODEL 4
REMARK VINA RESULT:     -11.9      3.658      6.722
REMARK  Name = 5287728
REMARK  9 active torsions:
REMARK  status: ('A' for Active; 'I' for Inactive)
REMARK    1  A    between atoms: S_1  and  N_4
REMARK    2  A    between atoms: S_1  and  N_22
REMARK    3  A    between atoms: C_5  and  N_10
REMARK    4  A    between atoms: N_10  and  C_13
REMARK    5  A    between atoms: C_13  and  C_14
REMARK    6  A    between atoms: C_15  and  O_20
REMARK    7  A    between atoms: N_22  and  C_24
REMARK    8  A    between atoms: C_27  and  O_30
REMARK    9  A    between atoms: O_30  and  C_32
REMARK                            x       y       z     vdW  Elec       q    Type
REMARK                         _______ _______ _______ _____ _____    ______ ____
ROOT
ATOM      1  S   UNL     1      33.475 -13.125 -23.325  0.00  0.00    +0.113 S 
ATOM      2  O   UNL     1      34.390 -12.031 -23.053  0.00  0.00    -0.138 OA
ATOM      3  O   UNL     1      33.051 -13.397 -24.686  0.00  0.00    -0.138 OA
ENDROOT
BRANCH   1   4
ATOM      4  N   UNL     1      34.150 -14.558 -22.668  0.00  0.00    -0.143 NA
ATOM      5  C   UNL     1      35.875 -16.636 -21.591  0.00  0.00    -0.059 C 
ATOM      6  C   UNL     1      35.321 -16.701 -23.018  0.00  0.00    -0.002 C 
ATOM      7  C   UNL     1      34.942 -15.813 -20.696  0.00  0.00    -0.002 C 
ATOM      8  C   UNL     1      35.075 -15.300 -23.574  0.00  0.00    +0.095 C 
ATOM      9  C   UNL     1      34.700 -14.426 -21.286  0.00  0.00    +0.095 C 
BRANCH   5  10
ATOM     10  N   UNL     1      36.026 -17.985 -21.051  0.00  0.00    +0.388 N 
ATOM     11  H   UNL     1      35.917 -17.954 -20.037  0.00  0.00    -0.084 HD
ATOM     12  H   UNL     1      36.951 -18.336 -21.298  0.00  0.00    -0.084 HD
BRANCH  10  13
ATOM     13  C   UNL     1      35.023 -18.879 -21.610  0.00  0.00    -0.051 C 
BRANCH  13  14
ATOM     14  C   UNL     1      34.594 -19.929 -20.620  0.00  0.00    -0.010 C 
ATOM     15  C   UNL     1      35.543 -20.686 -19.945  0.00  0.00    +0.128 C 
ATOM     16  C   UNL     1      33.236 -20.125 -20.398  0.00  0.00    -0.003 C 
ATOM     17  C   UNL     1      35.128 -21.654 -19.031  0.00  0.00    +0.036 C 
ATOM     18  C   UNL     1      32.822 -21.095 -19.485  0.00  0.00    -0.000 C 
ATOM     19  C   UNL     1      33.767 -21.858 -18.801  0.00  0.00    +0.003 C 
BRANCH  15  20
ATOM     20  O   UNL     1      36.876 -20.498 -20.157  0.00  0.00    -0.506 OA
ATOM     21  H   UNL     1      37.202 -19.644 -20.361  0.00  0.00    +0.292 HD
ENDBRANCH  15  20
ENDBRANCH  13  14
ENDBRANCH  10  13
ENDBRANCH   5  10
ENDBRANCH   1   4
BRANCH   1  22
ATOM     22  N   UNL     1      32.099 -12.921 -22.305  0.00  0.00    -0.205 N 
ATOM     23  H   UNL     1      31.379 -13.593 -22.267  0.00  0.00    +0.175 HD
BRANCH  22  24
ATOM     24  C   UNL     1      32.051 -11.721 -21.510  0.00  0.00    +0.069 C 
ATOM     25  C   UNL     1      31.843 -10.495 -22.130  0.00  0.00    +0.053 C 
ATOM     26  C   UNL     1      32.214 -11.804 -20.133  0.00  0.00    +0.016 C 
ATOM     27  C   UNL     1      31.799  -9.333 -21.359  0.00  0.00    +0.147 C 
ATOM     28  C   UNL     1      32.169 -10.642 -19.363  0.00  0.00    +0.004 C 
ATOM     29  C   UNL     1      31.961  -9.407 -19.976  0.00  0.00    +0.038 C 
BRANCH  27  30
ATOM     30  O   UNL     1      31.597  -8.128 -21.958  0.00  0.00    -0.453 OA
BRANCH  30  32
ATOM     31  F   UNL     1      35.849  -5.829 -24.562  0.00  0.00    -0.204 F 
ATOM     32  C   UNL     1      32.670  -7.548 -22.616  0.00  0.00    +0.145 C 
ATOM     33  C   UNL     1      33.749  -8.337 -22.971  0.00  0.00    +0.040 C 
ATOM     34  C   UNL     1      32.634  -6.195 -22.900  0.00  0.00    +0.040 C 
ATOM     35  C   UNL     1      34.829  -7.753 -23.632  0.00  0.00    +0.033 C 
ATOM     36  C   UNL     1      33.714  -5.610 -23.560  0.00  0.00    +0.033 C 
ATOM     37  C   UNL     1      34.811  -6.390 -23.927  0.00  0.00    +0.140 C 
ENDBRANCH  30  32
ENDBRANCH  27  30
ENDBRANCH  22  24
ENDBRANCH   1  22
TORSDOF 9
ENDMDL
MODEL 5
REMARK VINA RESULT:     -11.8      3.470     10.985
REMARK  Name = 5287728
REMARK  9 active torsions:
REMARK  status: ('A' for Active; 'I' for Inactive)
REMARK    1  A    between atoms: S_1  and  N_4
REMARK    2  A    between atoms: S_1  and  N_22
REMARK    3  A    between atoms: C_5  and  N_10
REMARK    4  A    between atoms: N_10  and  C_13
REMARK    5  A    between atoms: C_13  and  C_14
REMARK    6  A    between atoms: C_15  and  O_20
REMARK    7  A    between atoms: N_22  and  C_24
REMARK    8  A    between atoms: C_27  and  O_30
REMARK    9  A    between atoms: O_30  and  C_32
REMARK                            x       y       z     vdW  Elec       q    Type
REMARK                         _______ _______ _______ _____ _____    ______ ____
ROOT
ATOM      1  S   UNL     1      35.319 -18.232 -22.745  0.00  0.00    +0.113 S 
ATOM      2  O   UNL     1      34.477 -19.161 -23.476  0.00  0.00    -0.138 OA
ATOM      3  O   UNL     1      36.762 -18.280 -22.900  0.00  0.00    -0.138 OA
ENDROOT
BRANCH   1   4
ATOM      4  N   UNL     1      34.786 -16.640 -23.098  0.00  0.00    -0.143 NA
ATOM      5  C   UNL     1      34.545 -13.833 -23.817  0.00  0.00    -0.059 C 
ATOM      6  C   UNL     1      34.449 -14.309 -22.364  0.00  0.00    -0.002 C 
ATOM      7  C   UNL     1      34.119 -14.954 -24.771  0.00  0.00    -0.002 C 
ATOM      8  C   UNL     1      35.258 -15.587 -22.152  0.00  0.00    +0.095 C 
ATOM      9  C   UNL     1      34.932 -16.222 -24.524  0.00  0.00    +0.095 C 
BRANCH   5  10
ATOM     10  N   UNL     1      33.699 -12.658 -24.016  0.00  0.00    +0.388 N 
ATOM     11  H   UNL     1      33.504 -12.230 -23.111  0.00  0.00    -0.084 HD
ATOM     12  H   UNL     1      32.832 -12.951 -24.465  0.00  0.00    -0.084 HD
BRANCH  10  13
ATOM     13  C   UNL     1      34.363 -11.685 -24.871  0.00  0.00    -0.051 C 
BRANCH  13  14
ATOM     14  C   UNL     1      34.337 -10.304 -24.272  0.00  0.00    -0.010 C 
ATOM     15  C   UNL     1      35.372  -9.412 -24.521  0.00  0.00    +0.128 C 
ATOM     16  C   UNL     1      33.263  -9.942 -23.468  0.00  0.00    -0.003 C 
ATOM     17  C   UNL     1      35.333  -8.137 -23.958  0.00  0.00    +0.036 C 
ATOM     18  C   UNL     1      33.225  -8.667 -22.904  0.00  0.00    -0.000 C 
ATOM     19  C   UNL     1      34.259  -7.765 -23.149  0.00  0.00    +0.003 C 
BRANCH  15  20
ATOM     20  O   UNL     1      36.428  -9.760 -25.309  0.00  0.00    -0.506 OA
ATOM     21  H   UNL     1      36.282 -10.220 -26.113  0.00  0.00    +0.292 HD
ENDBRANCH  15  20
ENDBRANCH  13  14
ENDBRANCH  10  13
ENDBRANCH   5  10
ENDBRANCH   1   4
BRANCH   1  22
ATOM     22  N   UNL     1      34.898 -18.348 -21.075  0.00  0.00    -0.205 N 
ATOM     23  H   UNL     1      34.552 -17.574 -20.575  0.00  0.00    +0.175 HD
BRANCH  22  24
ATOM     24  C   UNL     1      35.077 -19.632 -20.448  0.00  0.00    +0.069 C 
ATOM     25  C   UNL     1      33.965 -20.346 -20.018  0.00  0.00    +0.053 C 
ATOM     26  C   UNL     1      36.359 -20.140 -20.281  0.00  0.00    +0.016 C 
ATOM     27  C   UNL     1      34.140 -21.589 -19.409  0.00  0.00    +0.147 C 
ATOM     28  C   UNL     1      36.532 -21.383 -19.672  0.00  0.00    +0.004 C 
ATOM     29  C   UNL     1      35.423 -22.107 -19.237  0.00  0.00    +0.038 C 
BRANCH  27  30
ATOM     30  O   UNL     1      33.057 -22.295 -18.983  0.00  0.00    -0.453 OA
BRANCH  30  32
ATOM     31  F   UNL     1      32.597 -23.259 -13.598  0.00  0.00    -0.204 F 
ATOM     32  C   UNL     1      32.941 -22.538 -17.625  0.00  0.00    +0.145 C 
ATOM     33  C   UNL     1      31.697 -22.442 -17.027  0.00  0.00    +0.040 C 
ATOM     34  C   UNL     1      34.071 -22.871 -16.901  0.00  0.00    +0.040 C 
ATOM     35  C   UNL     1      31.581 -22.687 -15.659  0.00  0.00    +0.033 C 
ATOM     36  C   UNL     1      33.955 -23.115 -15.533  0.00  0.00    +0.033 C 
ATOM     37  C   UNL     1      32.709 -23.024 -14.912  0.00  0.00    +0.140 C 
ENDBRANCH  30  32
ENDBRANCH  27  30
ENDBRANCH  22  24
ENDBRANCH   1  22
TORSDOF 9
ENDMDL
MODEL 6
REMARK VINA RESULT:     -11.8      3.881     10.680
REMARK  Name = 5287728
REMARK  9 active torsions:
REMARK  status: ('A' for Active; 'I' for Inactive)
REMARK    1  A    between atoms: S_1  and  N_4
REMARK    2  A    between atoms: S_1  and  N_22
REMARK    3  A    between atoms: C_5  and  N_10
REMARK    4  A    between atoms: N_10  and  C_13
REMARK    5  A    between atoms: C_13  and  C_14
REMARK    6  A    between atoms: C_15  and  O_20
REMARK    7  A    between atoms: N_22  and  C_24
REMARK    8  A    between atoms: C_27  and  O_30
REMARK    9  A    between atoms: O_30  and  C_32
REMARK                            x       y       z     vdW  Elec       q    Type
REMARK                         _______ _______ _______ _____ _____    ______ ____
ROOT
ATOM      1  S   UNL     1      34.173 -22.639 -18.452  0.00  0.00    +0.113 S 
ATOM      2  O   UNL     1      33.935 -23.920 -19.092  0.00  0.00    -0.138 OA
ATOM      3  O   UNL     1      35.228 -22.504 -17.464  0.00  0.00    -0.138 OA
ENDROOT
BRANCH   1   4
ATOM      4  N   UNL     1      34.424 -21.469 -19.680  0.00  0.00    -0.143 NA
ATOM      5  C   UNL     1      34.847 -19.050 -21.239  0.00  0.00    -0.059 C 
ATOM      6  C   UNL     1      33.493 -19.768 -21.206  0.00  0.00    -0.002 C 
ATOM      7  C   UNL     1      35.980 -20.043 -20.958  0.00  0.00    -0.002 C 
ATOM      8  C   UNL     1      33.299 -20.511 -19.886  0.00  0.00    +0.095 C 
ATOM      9  C   UNL     1      35.749 -20.782 -19.643  0.00  0.00    +0.095 C 
BRANCH   5  10
ATOM     10  N   UNL     1      35.046 -18.416 -22.539  0.00  0.00    +0.388 N 
ATOM     11  H   UNL     1      34.138 -18.173 -22.936  0.00  0.00    -0.084 HD
ATOM     12  H   UNL     1      35.537 -19.069 -23.151  0.00  0.00    -0.084 HD
BRANCH  10  13
ATOM     13  C   UNL     1      35.847 -17.208 -22.406  0.00  0.00    -0.051 C 
BRANCH  13  14
ATOM     14  C   UNL     1      35.132 -16.000 -22.949  0.00  0.00    -0.010 C 
ATOM     15  C   UNL     1      34.750 -15.951 -24.283  0.00  0.00    +0.128 C 
ATOM     16  C   UNL     1      34.865 -14.939 -22.092  0.00  0.00    -0.003 C 
ATOM     17  C   UNL     1      34.089 -14.823 -24.769  0.00  0.00    +0.036 C 
ATOM     18  C   UNL     1      34.204 -13.811 -22.578  0.00  0.00    -0.000 C 
ATOM     19  C   UNL     1      33.816 -13.753 -23.916  0.00  0.00    +0.003 C 
BRANCH  15  20
ATOM     20  O   UNL     1      35.009 -16.987 -25.129  0.00  0.00    -0.506 OA
ATOM     21  H   UNL     1      35.719 -16.929 -25.738  0.00  0.00    +0.292 HD
ENDBRANCH  15  20
ENDBRANCH  13  14
ENDBRANCH  10  13
ENDBRANCH   5  10
ENDBRANCH   1   4
BRANCH   1  22
ATOM     22  N   UNL     1      32.672 -22.097 -17.795  0.00  0.00    -0.205 N 
ATOM     23  H   UNL     1      32.132 -21.406 -18.242  0.00  0.00    +0.175 HD
BRANCH  22  24
ATOM     24  C   UNL     1      32.247 -22.703 -16.559  0.00  0.00    +0.069 C 
ATOM     25  C   UNL     1      33.199 -23.113 -15.634  0.00  0.00    +0.053 C 
ATOM     26  C   UNL     1      30.891 -22.871 -16.309  0.00  0.00    +0.016 C 
ATOM     27  C   UNL     1      32.786 -23.700 -14.438  0.00  0.00    +0.147 C 
ATOM     28  C   UNL     1      30.480 -23.459 -15.113  0.00  0.00    +0.004 C 
ATOM     29  C   UNL     1      31.427 -23.873 -14.177  0.00  0.00    +0.038 C 
BRANCH  27  30
ATOM     30  O   UNL     1      33.711 -24.106 -13.525  0.00  0.00    -0.453 OA
BRANCH  30  32
ATOM     31  F   UNL     1      38.969 -24.232 -15.101  0.00  0.00    -0.204 F 
ATOM     32  C   UNL     1      35.038 -24.138 -13.923  0.00  0.00    +0.145 C 
ATOM     33  C   UNL     1      35.509 -25.242 -14.611  0.00  0.00    +0.040 C 
ATOM     34  C   UNL     1      35.857 -23.065 -13.623  0.00  0.00    +0.040 C 
ATOM     35  C   UNL     1      36.844 -25.274 -15.011  0.00  0.00    +0.033 C 
ATOM     36  C   UNL     1      37.193 -23.097 -14.022  0.00  0.00    +0.033 C 
ATOM     37  C   UNL     1      37.686 -24.201 -14.717  0.00  0.00    +0.140 C 
ENDBRANCH  30  32
ENDBRANCH  27  30
ENDBRANCH  22  24
ENDBRANCH   1  22
TORSDOF 9
ENDMDL
MODEL 7
REMARK VINA RESULT:     -11.8      2.886      4.425
REMARK  Name = 5287728
REMARK  9 active torsions:
REMARK  status: ('A' for Active; 'I' for Inactive)
REMARK    1  A    between atoms: S_1  and  N_4
REMARK    2  A    between atoms: S_1  and  N_22
REMARK    3  A    between atoms: C_5  and  N_10
REMARK    4  A    between atoms: N_10  and  C_13
REMARK    5  A    between atoms: C_13  and  C_14
REMARK    6  A    between atoms: C_15  and  O_20
REMARK    7  A    between atoms: N_22  and  C_24
REMARK    8  A    between atoms: C_27  and  O_30
REMARK    9  A    between atoms: O_30  and  C_32
REMARK                            x       y       z     vdW  Elec       q    Type
REMARK                         _______ _______ _______ _____ _____    ______ ____
ROOT
ATOM      1  S   UNL     1      34.483 -16.394 -24.481  0.00  0.00    +0.113 S 
ATOM      2  O   UNL     1      35.707 -16.032 -25.171  0.00  0.00    -0.138 OA
ATOM      3  O   UNL     1      33.396 -17.025 -25.208  0.00  0.00    -0.138 OA
ENDROOT
BRANCH   1   4
ATOM      4  N   UNL     1      34.898 -17.391 -23.149  0.00  0.00    -0.143 NA
ATOM      5  C   UNL     1      35.991 -19.399 -21.352  0.00  0.00    -0.059 C 
ATOM      6  C   UNL     1      34.554 -19.476 -21.876  0.00  0.00    -0.002 C 
ATOM      7  C   UNL     1      36.470 -17.943 -21.328  0.00  0.00    -0.002 C 
ATOM      8  C   UNL     1      34.433 -18.806 -23.243  0.00  0.00    +0.095 C 
ATOM      9  C   UNL     1      36.320 -17.295 -22.702  0.00  0.00    +0.095 C 
BRANCH   5  10
ATOM     10  N   UNL     1      36.067 -19.973 -20.010  0.00  0.00    +0.388 N 
ATOM     11  H   UNL     1      35.659 -19.318 -19.343  0.00  0.00    -0.084 HD
ATOM     12  H   UNL     1      37.045 -20.149 -19.784  0.00  0.00    -0.084 HD
BRANCH  10  13
ATOM     13  C   UNL     1      35.339 -21.232 -19.947  0.00  0.00    -0.051 C 
BRANCH  13  14
ATOM     14  C   UNL     1      35.295 -21.784 -18.547  0.00  0.00    -0.010 C 
ATOM     15  C   UNL     1      34.126 -22.347 -18.051  0.00  0.00    +0.128 C 
ATOM     16  C   UNL     1      36.442 -21.718 -17.765  0.00  0.00    -0.003 C 
ATOM     17  C   UNL     1      34.103 -22.853 -16.752  0.00  0.00    +0.036 C 
ATOM     18  C   UNL     1      36.418 -22.224 -16.465  0.00  0.00    -0.000 C 
ATOM     19  C   UNL     1      35.249 -22.792 -15.959  0.00  0.00    +0.003 C 
BRANCH  15  20
ATOM     20  O   UNL     1      32.998 -22.415 -18.813  0.00  0.00    -0.506 OA
ATOM     21  H   UNL     1      32.220 -21.969 -18.539  0.00  0.00    +0.292 HD
ENDBRANCH  15  20
ENDBRANCH  13  14
ENDBRANCH  10  13
ENDBRANCH   5  10
ENDBRANCH   1   4
BRANCH   1  22
ATOM     22  N   UNL     1      33.909 -14.988 -23.662  0.00  0.00    -0.205 N 
ATOM     23  H   UNL     1      33.579 -15.028 -22.735  0.00  0.00    +0.175 HD
BRANCH  22  24
ATOM     24  C   UNL     1      33.937 -13.750 -24.398  0.00  0.00    +0.069 C 
ATOM     25  C   UNL     1      34.378 -12.590 -23.773  0.00  0.00    +0.053 C 
ATOM     26  C   UNL     1      33.523 -13.732 -25.724  0.00  0.00    +0.016 C 
ATOM     27  C   UNL     1      34.404 -11.392 -24.487  0.00  0.00    +0.147 C 
ATOM     28  C   UNL     1      33.550 -12.533 -26.436  0.00  0.00    +0.004 C 
ATOM     29  C   UNL     1      33.990 -11.364 -25.818  0.00  0.00    +0.038 C 
BRANCH  27  30
ATOM     30  O   UNL     1      34.832 -10.250 -23.883  0.00  0.00    -0.453 OA
BRANCH  30  32
ATOM     31  F   UNL     1      31.024  -6.716 -22.107  0.00  0.00    -0.204 F 
ATOM     32  C   UNL     1      33.872  -9.359 -23.435  0.00  0.00    +0.145 C 
ATOM     33  C   UNL     1      34.127  -8.001 -23.505  0.00  0.00    +0.040 C 
ATOM     34  C   UNL     1      32.682  -9.849 -22.929  0.00  0.00    +0.040 C 
ATOM     35  C   UNL     1      33.160  -7.104 -23.054  0.00  0.00    +0.033 C 
ATOM     36  C   UNL     1      31.714  -8.952 -22.477  0.00  0.00    +0.033 C 
ATOM     37  C   UNL     1      31.953  -7.579 -22.540  0.00  0.00    +0.140 C 
ENDBRANCH  30  32
ENDBRANCH  27  30
ENDBRANCH  22  24
ENDBRANCH   1  22
TORSDOF 9
ENDMDL
MODEL 8
REMARK VINA RESULT:     -11.4      1.351      2.068
REMARK  Name = 5287728
REMARK  9 active torsions:
REMARK  status: ('A' for Active; 'I' for Inactive)
REMARK    1  A    between atoms: S_1  and  N_4
REMARK    2  A    between atoms: S_1  and  N_22
REMARK    3  A    between atoms: C_5  and  N_10
REMARK    4  A    between atoms: N_10  and  C_13
REMARK    5  A    between atoms: C_13  and  C_14
REMARK    6  A    between atoms: C_15  and  O_20
REMARK    7  A    between atoms: N_22  and  C_24
REMARK    8  A    between atoms: C_27  and  O_30
REMARK    9  A    between atoms: O_30  and  C_32
REMARK                            x       y       z     vdW  Elec       q    Type
REMARK                         _______ _______ _______ _____ _____    ______ ____
ROOT
ATOM      1  S   UNL     1      36.482 -18.801 -21.782  0.00  0.00    +0.113 S 
ATOM      2  O   UNL     1      37.789 -18.767 -21.152  0.00  0.00    -0.138 OA
ATOM      3  O   UNL     1      36.366 -19.070 -23.205  0.00  0.00    -0.138 OA
ENDROOT
BRANCH   1   4
ATOM      4  N   UNL     1      35.512 -19.933 -20.934  0.00  0.00    -0.143 NA
ATOM      5  C   UNL     1      33.898 -21.385 -18.999  0.00  0.00    -0.059 C 
ATOM      6  C   UNL     1      35.347 -21.778 -19.304  0.00  0.00    -0.002 C 
ATOM      7  C   UNL     1      33.275 -20.678 -20.208  0.00  0.00    -0.002 C 
ATOM      8  C   UNL     1      36.162 -20.565 -19.748  0.00  0.00    +0.095 C 
ATOM      9  C   UNL     1      34.120 -19.482 -20.639  0.00  0.00    +0.095 C 
BRANCH   5  10
ATOM     10  N   UNL     1      33.119 -22.572 -18.656  0.00  0.00    +0.388 N 
ATOM     11  H   UNL     1      33.166 -23.238 -19.427  0.00  0.00    -0.084 HD
ATOM     12  H   UNL     1      32.153 -22.292 -18.487  0.00  0.00    -0.084 HD
BRANCH  10  13
ATOM     13  C   UNL     1      33.641 -23.200 -17.451  0.00  0.00    -0.051 C 
BRANCH  13  14
ATOM     14  C   UNL     1      32.647 -23.155 -16.321  0.00  0.00    -0.010 C 
ATOM     15  C   UNL     1      32.992 -23.636 -15.064  0.00  0.00    +0.128 C 
ATOM     16  C   UNL     1      31.385 -22.626 -16.559  0.00  0.00    -0.003 C 
ATOM     17  C   UNL     1      32.060 -23.587 -14.028  0.00  0.00    +0.036 C 
ATOM     18  C   UNL     1      30.452 -22.578 -15.523  0.00  0.00    -0.000 C 
ATOM     19  C   UNL     1      30.790 -23.058 -14.258  0.00  0.00    +0.003 C 
BRANCH  15  20
ATOM     20  O   UNL     1      34.228 -24.157 -14.823  0.00  0.00    -0.506 OA
ATOM     21  H   UNL     1      34.532 -24.254 -13.942  0.00  0.00    +0.292 HD
ENDBRANCH  15  20
ENDBRANCH  13  14
ENDBRANCH  10  13
ENDBRANCH   5  10
ENDBRANCH   1   4
BRANCH   1  22
ATOM     22  N   UNL     1      35.674 -17.328 -21.390  0.00  0.00    -0.205 N 
ATOM     23  H   UNL     1      35.545 -17.043 -20.456  0.00  0.00    +0.175 HD
BRANCH  22  24
ATOM     24  C   UNL     1      35.196 -16.535 -22.493  0.00  0.00    +0.069 C 
ATOM     25  C   UNL     1      35.169 -15.150 -22.381  0.00  0.00    +0.053 C 
ATOM     26  C   UNL     1      34.767 -17.164 -23.654  0.00  0.00    +0.016 C 
ATOM     27  C   UNL     1      34.705 -14.383 -23.450  0.00  0.00    +0.147 C 
ATOM     28  C   UNL     1      34.303 -16.396 -24.722  0.00  0.00    +0.004 C 
ATOM     29  C   UNL     1      34.273 -15.006 -24.620  0.00  0.00    +0.038 C 
BRANCH  27  30
ATOM     30  O   UNL     1      34.674 -13.026 -23.349  0.00  0.00    -0.453 OA
BRANCH  30  32
ATOM     31  F   UNL     1      30.597 -10.774 -20.442  0.00  0.00    -0.204 F 
ATOM     32  C   UNL     1      33.646 -12.458 -22.616  0.00  0.00    +0.145 C 
ATOM     33  C   UNL     1      33.183 -11.202 -22.965  0.00  0.00    +0.040 C 
ATOM     34  C   UNL     1      33.107 -13.161 -21.554  0.00  0.00    +0.040 C 
ATOM     35  C   UNL     1      32.147 -10.630 -22.227  0.00  0.00    +0.033 C 
ATOM     36  C   UNL     1      32.072 -12.589 -20.815  0.00  0.00    +0.033 C 
ATOM     37  C   UNL     1      31.592 -11.324 -21.151  0.00  0.00    +0.140 C 
ENDBRANCH  30  32
ENDBRANCH  27  30
ENDBRANCH  22  24
ENDBRANCH   1  22
TORSDOF 9
ENDMDL
MODEL 9
REMARK VINA RESULT:     -11.4      3.098      5.649
REMARK  Name = 5287728
REMARK  9 active torsions:
REMARK  status: ('A' for Active; 'I' for Inactive)
REMARK    1  A    between atoms: S_1  and  N_4
REMARK    2  A    between atoms: S_1  and  N_22
REMARK    3  A    between atoms: C_5  and  N_10
REMARK    4  A    between atoms: N_10  and  C_13
REMARK    5  A    between atoms: C_13  and  C_14
REMARK    6  A    between atoms: C_15  and  O_20
REMARK    7  A    between atoms: N_22  and  C_24
REMARK    8  A    between atoms: C_27  and  O_30
REMARK    9  A    between atoms: O_30  and  C_32
REMARK                            x       y       z     vdW  Elec       q    Type
REMARK                         _______ _______ _______ _____ _____    ______ ____
ROOT
ATOM      1  S   UNL     1      34.259 -14.405 -24.447  0.00  0.00    +0.113 S 
ATOM      2  O   UNL     1      35.220 -14.250 -25.524  0.00  0.00    -0.138 OA
ATOM      3  O   UNL     1      32.843 -14.215 -24.702  0.00  0.00    -0.138 OA
ENDROOT
BRANCH   1   4
ATOM      4  N   UNL     1      34.484 -15.958 -23.754  0.00  0.00    -0.143 NA
ATOM      5  C   UNL     1      35.451 -18.572 -22.924  0.00  0.00    -0.059 C 
ATOM      6  C   UNL     1      34.338 -18.412 -23.965  0.00  0.00    -0.002 C 
ATOM      7  C   UNL     1      35.476 -17.361 -21.984  0.00  0.00    -0.002 C 
ATOM      8  C   UNL     1      34.481 -17.094 -24.722  0.00  0.00    +0.095 C 
ATOM      9  C   UNL     1      35.602 -16.060 -22.770  0.00  0.00    +0.095 C 
BRANCH   5  10
ATOM     10  N   UNL     1      35.247 -19.798 -22.157  0.00  0.00    +0.388 N 
ATOM     11  H   UNL     1      36.141 -20.105 -21.772  0.00  0.00    -0.084 HD
ATOM     12  H   UNL     1      34.864 -20.512 -22.777  0.00  0.00    -0.084 HD
BRANCH  10  13
ATOM     13  C   UNL     1      34.310 -19.574 -21.066  0.00  0.00    -0.051 C 
BRANCH  13  14
ATOM     14  C   UNL     1      34.500 -20.569 -19.952  0.00  0.00    -0.010 C 
ATOM     15  C   UNL     1      35.761 -20.787 -19.413  0.00  0.00    +0.128 C 
ATOM     16  C   UNL     1      33.392 -21.261 -19.477  0.00  0.00    -0.003 C 
ATOM     17  C   UNL     1      35.918 -21.712 -18.382  0.00  0.00    +0.036 C 
ATOM     18  C   UNL     1      33.551 -22.187 -18.446  0.00  0.00    -0.000 C 
ATOM     19  C   UNL     1      34.813 -22.412 -17.898  0.00  0.00    +0.003 C 
BRANCH  15  20
ATOM     20  O   UNL     1      36.851 -20.111 -19.874  0.00  0.00    -0.506 OA
ATOM     21  H   UNL     1      36.867 -19.793 -20.755  0.00  0.00    +0.292 HD
ENDBRANCH  15  20
ENDBRANCH  13  14
ENDBRANCH  10  13
ENDBRANCH   5  10
ENDBRANCH   1   4
BRANCH   1  22
ATOM     22  N   UNL     1      34.768 -13.396 -23.143  0.00  0.00    -0.205 N 
ATOM     23  H   UNL     1      35.708 -13.125 -23.036  0.00  0.00    +0.175 HD
BRANCH  22  24
ATOM     24  C   UNL     1      33.751 -12.968 -22.218  0.00  0.00    +0.069 C 
ATOM     25  C   UNL     1      32.983 -11.848 -22.513  0.00  0.00    +0.053 C 
ATOM     26  C   UNL     1      33.549 -13.679 -21.042  0.00  0.00    +0.016 C 
ATOM     27  C   UNL     1      31.998 -11.433 -21.616  0.00  0.00    +0.147 C 
ATOM     28  C   UNL     1      32.565 -13.264 -20.146  0.00  0.00    +0.004 C 
ATOM     29  C   UNL     1      31.789 -12.142 -20.433  0.00  0.00    +0.038 C 
BRANCH  27  30
ATOM     30  O   UNL     1      31.242 -10.336 -21.895  0.00  0.00    -0.453 OA
BRANCH  30  32
ATOM     31  F   UNL     1      33.825  -5.520 -22.420  0.00  0.00    -0.204 F 
ATOM     32  C   UNL     1      31.894  -9.121 -22.028  0.00  0.00    +0.145 C 
ATOM     33  C   UNL     1      32.382  -8.492 -20.897  0.00  0.00    +0.040 C 
ATOM     34  C   UNL     1      32.040  -8.569 -23.287  0.00  0.00    +0.040 C 
ATOM     35  C   UNL     1      33.039  -7.269 -21.030  0.00  0.00    +0.033 C 
ATOM     36  C   UNL     1      32.695  -7.345 -23.421  0.00  0.00    +0.033 C 
ATOM     37  C   UNL     1      33.195  -6.695 -22.292  0.00  0.00    +0.140 C 
ENDBRANCH  30  32
ENDBRANCH  27  30
ENDBRANCH  22  24
ENDBRANCH   1  22
TORSDOF 9
ENDMDL
