MODEL 1
REMARK VINA RESULT:     -12.5      0.000      0.000
REMARK  Name = 17748441
REMARK  5 active torsions:
REMARK  status: ('A' for Active; 'I' for Inactive)
REMARK    1  A    between atoms: C_2  and  N_10
REMARK    2  A    between atoms: C_3  and  O_24
REMARK    3  A    between atoms: C_12  and  C_16
REMARK    4  A    between atoms: C_16  and  C_18
REMARK    5  A    between atoms: O_24  and  C_27
REMARK                            x       y       z     vdW  Elec       q    Type
REMARK                         _______ _______ _______ _____ _____    ______ ____
ROOT
ATOM      1  F   UNL     1      36.815 -22.106 -18.527  0.00  0.00    -0.201 F 
ATOM      2  C   UNL     1      34.763 -19.790 -20.438  0.00  0.00    +0.054 C 
ATOM      3  C   UNL     1      34.481 -22.132 -18.949  0.00  0.00    +0.173 C 
ATOM      4  C   UNL     1      35.880 -20.377 -19.842  0.00  0.00    +0.047 C 
ATOM      5  C   UNL     1      33.506 -20.375 -20.289  0.00  0.00    +0.018 C 
ATOM      6  C   UNL     1      35.738 -21.548 -19.098  0.00  0.00    +0.176 C 
ATOM      7  C   UNL     1      33.365 -21.546 -19.545  0.00  0.00    +0.041 C 
ENDROOT
BRANCH   2  10
ATOM      8  O   UNL     1      35.009 -17.289 -25.263  0.00  0.00    -0.274 OA
ATOM      9  O   UNL     1      34.766 -19.366 -23.411  0.00  0.00    -0.252 OA
ATOM     10  N   UNL     1      34.906 -18.602 -21.194  0.00  0.00    -0.268 N 
ATOM     11  N   UNL     1      35.071 -17.112 -22.938  0.00  0.00    -0.239 N 
ATOM     12  C   UNL     1      35.115 -16.614 -24.243  0.00  0.00    +0.234 C 
ATOM     13  C   UNL     1      34.899 -18.466 -22.585  0.00  0.00    +0.310 C 
ATOM     14  H   UNL     1      35.026 -17.773 -20.677  0.00  0.00    +0.156 HD
ATOM     15  H   UNL     1      35.170 -16.464 -22.203  0.00  0.00    +0.159 HD
BRANCH  12  16
ATOM     16  C   UNL     1      35.315 -15.110 -24.251  0.00  0.00    +0.112 C 
BRANCH  16  18
ATOM     17  F   UNL     1      32.370 -12.447 -20.252  0.00  0.00    -0.204 F 
ATOM     18  C   UNL     1      34.527 -14.399 -23.182  0.00  0.00    -0.013 C 
ATOM     19  C   UNL     1      33.464 -13.569 -23.535  0.00  0.00    -0.001 C 
ATOM     20  C   UNL     1      34.862 -14.569 -21.838  0.00  0.00    -0.001 C 
ATOM     21  C   UNL     1      32.735 -12.910 -22.545  0.00  0.00    +0.029 C 
ATOM     22  C   UNL     1      34.134 -13.909 -20.849  0.00  0.00    +0.029 C 
ATOM     23  C   UNL     1      33.070 -13.080 -21.202  0.00  0.00    +0.140 C 
ENDBRANCH  16  18
ENDBRANCH  12  16
ENDBRANCH   2  10
BRANCH   3  24
ATOM     24  O   UNL     1      34.343 -23.276 -18.224  0.00  0.00    -0.451 OA
BRANCH  24  27
ATOM     25  N   UNL     1      32.664 -22.965 -14.409  0.00  0.00    -0.229 NA
ATOM     26  N   UNL     1      34.806 -23.376 -13.450  0.00  0.00    -0.343 N 
ATOM     27  C   UNL     1      33.787 -23.173 -16.960  0.00  0.00    +0.150 C 
ATOM     28  C   UNL     1      34.584 -23.328 -15.832  0.00  0.00    +0.071 C 
ATOM     29  C   UNL     1      32.429 -22.914 -16.814  0.00  0.00    +0.058 C 
ATOM     30  C   UNL     1      33.980 -23.216 -14.590  0.00  0.00    +0.128 C 
ATOM     31  C   UNL     1      31.921 -22.820 -15.528  0.00  0.00    +0.103 C 
ATOM     32  H   UNL     1      34.420 -23.304 -12.548  0.00  0.00    +0.144 HD
ATOM     33  H   UNL     1      35.768 -23.559 -13.560  0.00  0.00    +0.144 HD
ENDBRANCH  24  27
ENDBRANCH   3  24
TORSDOF 5
ENDMDL
MODEL 2
REMARK VINA RESULT:     -12.4      4.054     10.765
REMARK  Name = 17748441
REMARK  5 active torsions:
REMARK  status: ('A' for Active; 'I' for Inactive)
REMARK    1  A    between atoms: C_2  and  N_10
REMARK    2  A    between atoms: C_3  and  O_24
REMARK    3  A    between atoms: C_12  and  C_16
REMARK    4  A    between atoms: C_16  and  C_18
REMARK    5  A    between atoms: O_24  and  C_27
REMARK                            x       y       z     vdW  Elec       q    Type
REMARK                         _______ _______ _______ _____ _____    ______ ____
ROOT
ATOM      1  F   UNL     1      31.309 -11.708 -20.630  0.00  0.00    -0.201 F 
ATOM      2  C   UNL     1      34.055 -13.770 -21.829  0.00  0.00    +0.054 C 
ATOM      3  C   UNL     1      32.761 -11.386 -22.479  0.00  0.00    +0.173 C 
ATOM      4  C   UNL     1      32.984 -13.324 -21.055  0.00  0.00    +0.047 C 
ATOM      5  C   UNL     1      34.478 -13.024 -22.929  0.00  0.00    +0.018 C 
ATOM      6  C   UNL     1      32.337 -12.132 -21.380  0.00  0.00    +0.176 C 
ATOM      7  C   UNL     1      33.831 -11.832 -23.254  0.00  0.00    +0.041 C 
ENDROOT
BRANCH   2  10
ATOM      8  O   UNL     1      36.174 -18.538 -23.370  0.00  0.00    -0.274 OA
ATOM      9  O   UNL     1      34.908 -16.057 -23.579  0.00  0.00    -0.252 OA
ATOM     10  N   UNL     1      34.711 -14.980 -21.501  0.00  0.00    -0.268 N 
ATOM     11  N   UNL     1      35.716 -17.044 -21.638  0.00  0.00    -0.239 N 
ATOM     12  C   UNL     1      36.216 -18.231 -22.182  0.00  0.00    +0.234 C 
ATOM     13  C   UNL     1      35.085 -16.014 -22.364  0.00  0.00    +0.310 C 
ATOM     14  H   UNL     1      34.929 -15.108 -20.549  0.00  0.00    +0.156 HD
ATOM     15  H   UNL     1      35.811 -16.918 -20.666  0.00  0.00    +0.159 HD
BRANCH  12  16
ATOM     16  C   UNL     1      36.828 -19.112 -21.109  0.00  0.00    +0.112 C 
BRANCH  16  18
ATOM     17  F   UNL     1      33.062 -22.380 -18.487  0.00  0.00    -0.204 F 
ATOM     18  C   UNL     1      35.822 -19.985 -20.408  0.00  0.00    -0.013 C 
ATOM     19  C   UNL     1      36.251 -20.961 -19.510  0.00  0.00    -0.001 C 
ATOM     20  C   UNL     1      34.459 -19.818 -20.657  0.00  0.00    -0.001 C 
ATOM     21  C   UNL     1      35.319 -21.770 -18.860  0.00  0.00    +0.029 C 
ATOM     22  C   UNL     1      33.527 -20.627 -20.009  0.00  0.00    +0.029 C 
ATOM     23  C   UNL     1      33.956 -21.603 -19.110  0.00  0.00    +0.140 C 
ENDBRANCH  16  18
ENDBRANCH  12  16
ENDBRANCH   2  10
BRANCH   3  24
ATOM     24  O   UNL     1      32.128 -10.223 -22.798  0.00  0.00    -0.451 OA
BRANCH  24  27
ATOM     25  N   UNL     1      33.968  -6.642 -21.673  0.00  0.00    -0.229 NA
ATOM     26  N   UNL     1      32.992  -6.839 -19.508  0.00  0.00    -0.343 N 
ATOM     27  C   UNL     1      32.737  -9.036 -22.425  0.00  0.00    +0.150 C 
ATOM     28  C   UNL     1      32.556  -8.531 -21.143  0.00  0.00    +0.071 C 
ATOM     29  C   UNL     1      33.534  -8.346 -23.331  0.00  0.00    +0.058 C 
ATOM     30  C   UNL     1      33.187  -7.341 -20.819  0.00  0.00    +0.128 C 
ATOM     31  C   UNL     1      34.122  -7.164 -22.911  0.00  0.00    +0.103 C 
ATOM     32  H   UNL     1      33.422  -5.996 -19.235  0.00  0.00    +0.144 HD
ATOM     33  H   UNL     1      32.427  -7.333 -18.871  0.00  0.00    +0.144 HD
ENDBRANCH  24  27
ENDBRANCH   3  24
TORSDOF 5
ENDMDL
MODEL 3
REMARK VINA RESULT:     -12.0      3.079      9.547
REMARK  Name = 17748441
REMARK  5 active torsions:
REMARK  status: ('A' for Active; 'I' for Inactive)
REMARK    1  A    between atoms: C_2  and  N_10
REMARK    2  A    between atoms: C_3  and  O_24
REMARK    3  A    between atoms: C_12  and  C_16
REMARK    4  A    between atoms: C_16  and  C_18
REMARK    5  A    between atoms: O_24  and  C_27
REMARK                            x       y       z     vdW  Elec       q    Type
REMARK                         _______ _______ _______ _____ _____    ______ ____
ROOT
ATOM      1  F   UNL     1      37.277 -21.132 -19.876  0.00  0.00    -0.201 F 
ATOM      2  C   UNL     1      33.742 -21.453 -19.085  0.00  0.00    +0.054 C 
ATOM      3  C   UNL     1      35.410 -19.952 -20.743  0.00  0.00    +0.173 C 
ATOM      4  C   UNL     1      35.120 -21.668 -19.068  0.00  0.00    +0.047 C 
ATOM      5  C   UNL     1      33.198 -20.486 -19.931  0.00  0.00    +0.018 C 
ATOM      6  C   UNL     1      35.954 -20.918 -19.897  0.00  0.00    +0.176 C 
ATOM      7  C   UNL     1      34.032 -19.736 -20.760  0.00  0.00    +0.041 C 
ENDROOT
BRANCH   2  10
ATOM      8  O   UNL     1      32.942 -24.180 -14.447  0.00  0.00    -0.274 OA
ATOM      9  O   UNL     1      34.261 -22.664 -16.387  0.00  0.00    -0.252 OA
ATOM     10  N   UNL     1      32.895 -22.213 -18.244  0.00  0.00    -0.268 N 
ATOM     11  N   UNL     1      32.075 -23.444 -16.483  0.00  0.00    -0.239 N 
ATOM     12  C   UNL     1      32.020 -24.108 -15.254  0.00  0.00    +0.234 C 
ATOM     13  C   UNL     1      33.195 -22.754 -16.990  0.00  0.00    +0.310 C 
ATOM     14  H   UNL     1      31.986 -22.381 -18.584  0.00  0.00    +0.156 HD
ATOM     15  H   UNL     1      31.264 -23.460 -17.041  0.00  0.00    +0.159 HD
BRANCH  12  16
ATOM     16  C   UNL     1      30.660 -24.742 -15.032  0.00  0.00    +0.112 C 
BRANCH  16  18
ATOM     17  F   UNL     1      26.383 -21.492 -16.735  0.00  0.00    -0.204 F 
ATOM     18  C   UNL     1      29.516 -23.873 -15.487  0.00  0.00    -0.013 C 
ATOM     19  C   UNL     1      28.808 -24.203 -16.641  0.00  0.00    -0.001 C 
ATOM     20  C   UNL     1      29.166 -22.739 -14.753  0.00  0.00    -0.001 C 
ATOM     21  C   UNL     1      27.749 -23.398 -17.063  0.00  0.00    +0.029 C 
ATOM     22  C   UNL     1      28.109 -21.935 -15.175  0.00  0.00    +0.029 C 
ATOM     23  C   UNL     1      27.399 -22.264 -16.330  0.00  0.00    +0.140 C 
ENDBRANCH  16  18
ENDBRANCH  12  16
ENDBRANCH   2  10
BRANCH   3  24
ATOM     24  O   UNL     1      36.224 -19.219 -21.551  0.00  0.00    -0.451 OA
BRANCH  24  27
ATOM     25  N   UNL     1      34.475 -17.243 -24.793  0.00  0.00    -0.229 NA
ATOM     26  N   UNL     1      35.083 -15.152 -23.826  0.00  0.00    -0.343 N 
ATOM     27  C   UNL     1      35.644 -18.564 -22.624  0.00  0.00    +0.150 C 
ATOM     28  C   UNL     1      35.656 -17.175 -22.684  0.00  0.00    +0.071 C 
ATOM     29  C   UNL     1      35.049 -19.293 -23.647  0.00  0.00    +0.058 C 
ATOM     30  C   UNL     1      35.063 -16.568 -23.780  0.00  0.00    +0.128 C 
ATOM     31  C   UNL     1      34.483 -18.592 -24.700  0.00  0.00    +0.103 C 
ATOM     32  H   UNL     1      34.674 -14.678 -24.586  0.00  0.00    +0.144 HD
ATOM     33  H   UNL     1      35.506 -14.641 -23.099  0.00  0.00    +0.144 HD
ENDBRANCH  24  27
ENDBRANCH   3  24
TORSDOF 5
ENDMDL
MODEL 4
REMARK VINA RESULT:     -11.7      4.391      6.412
REMARK  Name = 17748441
REMARK  5 active torsions:
REMARK  status: ('A' for Active; 'I' for Inactive)
REMARK    1  A    between atoms: C_2  and  N_10
REMARK    2  A    between atoms: C_3  and  O_24
REMARK    3  A    between atoms: C_12  and  C_16
REMARK    4  A    between atoms: C_16  and  C_18
REMARK    5  A    between atoms: O_24  and  C_27
REMARK                            x       y       z     vdW  Elec       q    Type
REMARK                         _______ _______ _______ _____ _____    ______ ____
ROOT
ATOM      1  F   UNL     1      34.911 -18.114 -24.969  0.00  0.00    -0.201 F 
ATOM      2  C   UNL     1      34.806 -15.036 -23.035  0.00  0.00    +0.054 C 
ATOM      3  C   UNL     1      35.399 -17.738 -22.677  0.00  0.00    +0.173 C 
ATOM      4  C   UNL     1      34.709 -15.919 -24.110  0.00  0.00    +0.047 C 
ATOM      5  C   UNL     1      35.200 -15.504 -21.781  0.00  0.00    +0.018 C 
ATOM      6  C   UNL     1      35.005 -17.270 -23.931  0.00  0.00    +0.176 C 
ATOM      7  C   UNL     1      35.495 -16.855 -21.602  0.00  0.00    +0.041 C 
ENDROOT
BRANCH   2  10
ATOM      8  O   UNL     1      31.754 -10.695 -21.836  0.00  0.00    -0.274 OA
ATOM      9  O   UNL     1      32.679 -13.330 -21.777  0.00  0.00    -0.252 OA
ATOM     10  N   UNL     1      34.506 -13.665 -23.215  0.00  0.00    -0.268 N 
ATOM     11  N   UNL     1      33.533 -11.587 -23.053  0.00  0.00    -0.239 N 
ATOM     12  C   UNL     1      32.667 -10.568 -22.647  0.00  0.00    +0.234 C 
ATOM     13  C   UNL     1      33.496 -12.921 -22.598  0.00  0.00    +0.310 C 
ATOM     14  H   UNL     1      35.076 -13.178 -23.853  0.00  0.00    +0.156 HD
ATOM     15  H   UNL     1      34.226 -11.355 -23.713  0.00  0.00    +0.159 HD
BRANCH  12  16
ATOM     16  C   UNL     1      32.995  -9.259 -23.341  0.00  0.00    +0.112 C 
BRANCH  16  18
ATOM     17  F   UNL     1      31.092  -4.732 -20.578  0.00  0.00    -0.204 F 
ATOM     18  C   UNL     1      32.487  -8.049 -22.603  0.00  0.00    -0.013 C 
ATOM     19  C   UNL     1      33.056  -7.687 -21.382  0.00  0.00    -0.001 C 
ATOM     20  C   UNL     1      31.447  -7.290 -23.139  0.00  0.00    -0.001 C 
ATOM     21  C   UNL     1      32.585  -6.566 -20.698  0.00  0.00    +0.029 C 
ATOM     22  C   UNL     1      30.975  -6.170 -22.455  0.00  0.00    +0.029 C 
ATOM     23  C   UNL     1      31.544  -5.807 -21.235  0.00  0.00    +0.140 C 
ENDBRANCH  16  18
ENDBRANCH  12  16
ENDBRANCH   2  10
BRANCH   3  24
ATOM     24  O   UNL     1      35.686 -19.057 -22.502  0.00  0.00    -0.451 OA
BRANCH  24  27
ATOM     25  N   UNL     1      33.873 -21.029 -19.293  0.00  0.00    -0.229 NA
ATOM     26  N   UNL     1      36.023 -21.681 -18.499  0.00  0.00    -0.343 N 
ATOM     27  C   UNL     1      35.086 -19.711 -21.439  0.00  0.00    +0.150 C 
ATOM     28  C   UNL     1      35.864 -20.373 -20.497  0.00  0.00    +0.071 C 
ATOM     29  C   UNL     1      33.702 -19.707 -21.310  0.00  0.00    +0.058 C 
ATOM     30  C   UNL     1      35.215 -21.011 -19.452  0.00  0.00    +0.128 C 
ATOM     31  C   UNL     1      33.149 -20.375 -20.229  0.00  0.00    +0.103 C 
ATOM     32  H   UNL     1      35.604 -22.148 -17.740  0.00  0.00    +0.144 HD
ATOM     33  H   UNL     1      37.003 -21.680 -18.597  0.00  0.00    +0.144 HD
ENDBRANCH  24  27
ENDBRANCH   3  24
TORSDOF 5
ENDMDL
MODEL 5
REMARK VINA RESULT:     -11.7      4.233      6.709
REMARK  Name = 17748441
REMARK  5 active torsions:
REMARK  status: ('A' for Active; 'I' for Inactive)
REMARK    1  A    between atoms: C_2  and  N_10
REMARK    2  A    between atoms: C_3  and  O_24
REMARK    3  A    between atoms: C_12  and  C_16
REMARK    4  A    between atoms: C_16  and  C_18
REMARK    5  A    between atoms: O_24  and  C_27
REMARK                            x       y       z     vdW  Elec       q    Type
REMARK                         _______ _______ _______ _____ _____    ______ ____
ROOT
ATOM      1  F   UNL     1      35.367 -17.166 -24.952  0.00  0.00    -0.201 F 
ATOM      2  C   UNL     1      34.362 -14.503 -22.687  0.00  0.00    +0.054 C 
ATOM      3  C   UNL     1      35.612 -16.995 -22.598  0.00  0.00    +0.173 C 
ATOM      4  C   UNL     1      34.556 -15.229 -23.862  0.00  0.00    +0.047 C 
ATOM      5  C   UNL     1      34.793 -15.025 -21.467  0.00  0.00    +0.018 C 
ATOM      6  C   UNL     1      35.182 -16.474 -23.818  0.00  0.00    +0.176 C 
ATOM      7  C   UNL     1      35.418 -16.271 -21.423  0.00  0.00    +0.041 C 
ENDROOT
BRANCH   2  10
ATOM      8  O   UNL     1      30.957 -10.873 -20.490  0.00  0.00    -0.274 OA
ATOM      9  O   UNL     1      32.409 -13.241 -20.787  0.00  0.00    -0.252 OA
ATOM     10  N   UNL     1      33.727 -13.240 -22.731  0.00  0.00    -0.268 N 
ATOM     11  N   UNL     1      32.421 -11.415 -22.223  0.00  0.00    -0.239 N 
ATOM     12  C   UNL     1      31.523 -10.589 -21.542  0.00  0.00    +0.234 C 
ATOM     13  C   UNL     1      32.820 -12.703 -21.811  0.00  0.00    +0.310 C 
ATOM     14  H   UNL     1      33.950 -12.670 -23.504  0.00  0.00    +0.156 HD
ATOM     15  H   UNL     1      32.807 -11.069 -23.060  0.00  0.00    +0.159 HD
BRANCH  12  16
ATOM     16  C   UNL     1      31.324  -9.274 -22.272  0.00  0.00    +0.112 C 
BRANCH  16  18
ATOM     17  F   UNL     1      36.159  -6.656 -23.505  0.00  0.00    -0.204 F 
ATOM     18  C   UNL     1      32.616  -8.574 -22.602  0.00  0.00    -0.013 C 
ATOM     19  C   UNL     1      33.490  -9.128 -23.537  0.00  0.00    -0.001 C 
ATOM     20  C   UNL     1      32.940  -7.372 -21.972  0.00  0.00    -0.001 C 
ATOM     21  C   UNL     1      34.687  -8.480 -23.842  0.00  0.00    +0.029 C 
ATOM     22  C   UNL     1      34.137  -6.725 -22.276  0.00  0.00    +0.029 C 
ATOM     23  C   UNL     1      35.011  -7.278 -23.212  0.00  0.00    +0.140 C 
ENDBRANCH  16  18
ENDBRANCH  12  16
ENDBRANCH   2  10
BRANCH   3  24
ATOM     24  O   UNL     1      36.221 -18.212 -22.554  0.00  0.00    -0.451 OA
BRANCH  24  27
ATOM     25  N   UNL     1      35.034 -20.872 -19.557  0.00  0.00    -0.229 NA
ATOM     26  N   UNL     1      32.766 -20.605 -20.239  0.00  0.00    -0.343 N 
ATOM     27  C   UNL     1      35.827 -19.093 -21.561  0.00  0.00    +0.150 C 
ATOM     28  C   UNL     1      34.482 -19.407 -21.399  0.00  0.00    +0.071 C 
ATOM     29  C   UNL     1      36.775 -19.668 -20.722  0.00  0.00    +0.058 C 
ATOM     30  C   UNL     1      34.141 -20.294 -20.391  0.00  0.00    +0.128 C 
ATOM     31  C   UNL     1      36.331 -20.543 -19.744  0.00  0.00    +0.103 C 
ATOM     32  H   UNL     1      32.478 -21.230 -19.536  0.00  0.00    +0.144 HD
ATOM     33  H   UNL     1      32.100 -20.194 -20.837  0.00  0.00    +0.144 HD
ENDBRANCH  24  27
ENDBRANCH   3  24
TORSDOF 5
ENDMDL
MODEL 6
REMARK VINA RESULT:     -11.6      3.122     10.215
REMARK  Name = 17748441
REMARK  5 active torsions:
REMARK  status: ('A' for Active; 'I' for Inactive)
REMARK    1  A    between atoms: C_2  and  N_10
REMARK    2  A    between atoms: C_3  and  O_24
REMARK    3  A    between atoms: C_12  and  C_16
REMARK    4  A    between atoms: C_16  and  C_18
REMARK    5  A    between atoms: O_24  and  C_27
REMARK                            x       y       z     vdW  Elec       q    Type
REMARK                         _______ _______ _______ _____ _____    ______ ____
ROOT
ATOM      1  F   UNL     1      33.628 -18.629 -24.206  0.00  0.00    -0.201 F 
ATOM      2  C   UNL     1      35.096 -19.712 -21.060  0.00  0.00    +0.054 C 
ATOM      3  C   UNL     1      35.574 -17.859 -23.089  0.00  0.00    +0.173 C 
ATOM      4  C   UNL     1      34.228 -19.630 -22.149  0.00  0.00    +0.047 C 
ATOM      5  C   UNL     1      36.204 -18.867 -20.987  0.00  0.00    +0.018 C 
ATOM      6  C   UNL     1      34.467 -18.703 -23.163  0.00  0.00    +0.176 C 
ATOM      7  C   UNL     1      36.443 -17.940 -22.002  0.00  0.00    +0.041 C 
ENDROOT
BRANCH   2  10
ATOM      8  O   UNL     1      31.668 -22.071 -17.556  0.00  0.00    -0.274 OA
ATOM      9  O   UNL     1      32.568 -20.366 -19.578  0.00  0.00    -0.252 OA
ATOM     10  N   UNL     1      34.855 -20.652 -20.031  0.00  0.00    -0.268 N 
ATOM     11  N   UNL     1      33.834 -21.925 -18.410  0.00  0.00    -0.239 N 
ATOM     12  C   UNL     1      32.841 -22.435 -17.569  0.00  0.00    +0.234 C 
ATOM     13  C   UNL     1      33.649 -20.914 -19.374  0.00  0.00    +0.310 C 
ATOM     14  H   UNL     1      35.632 -21.185 -19.742  0.00  0.00    +0.156 HD
ATOM     15  H   UNL     1      34.739 -22.303 -18.321  0.00  0.00    +0.159 HD
BRANCH  12  16
ATOM     16  C   UNL     1      33.394 -23.513 -16.656  0.00  0.00    +0.112 C 
BRANCH  16  18
ATOM     17  F   UNL     1      30.284 -24.324 -12.028  0.00  0.00    -0.204 F 
ATOM     18  C   UNL     1      32.563 -23.730 -15.419  0.00  0.00    -0.013 C 
ATOM     19  C   UNL     1      31.523 -24.658 -15.432  0.00  0.00    -0.001 C 
ATOM     20  C   UNL     1      32.834 -23.002 -14.260  0.00  0.00    -0.001 C 
ATOM     21  C   UNL     1      30.753 -24.859 -14.286  0.00  0.00    +0.029 C 
ATOM     22  C   UNL     1      32.063 -23.203 -13.115  0.00  0.00    +0.029 C 
ATOM     23  C   UNL     1      31.023 -24.132 -13.127  0.00  0.00    +0.140 C 
ENDBRANCH  16  18
ENDBRANCH  12  16
ENDBRANCH   2  10
BRANCH   3  24
ATOM     24  O   UNL     1      35.808 -16.956 -24.081  0.00  0.00    -0.451 OA
BRANCH  24  27
ATOM     25  N   UNL     1      33.571 -13.425 -24.058  0.00  0.00    -0.229 NA
ATOM     26  N   UNL     1      32.724 -13.966 -26.218  0.00  0.00    -0.343 N 
ATOM     27  C   UNL     1      35.067 -15.786 -24.074  0.00  0.00    +0.150 C 
ATOM     28  C   UNL     1      34.262 -15.462 -25.160  0.00  0.00    +0.071 C 
ATOM     29  C   UNL     1      35.125 -14.930 -22.980  0.00  0.00    +0.058 C 
ATOM     30  C   UNL     1      33.540 -14.281 -25.103  0.00  0.00    +0.128 C 
ATOM     31  C   UNL     1      34.365 -13.772 -23.020  0.00  0.00    +0.103 C 
ATOM     32  H   UNL     1      32.194 -13.137 -26.221  0.00  0.00    +0.144 HD
ATOM     33  H   UNL     1      32.687 -14.576 -26.990  0.00  0.00    +0.144 HD
ENDBRANCH  24  27
ENDBRANCH   3  24
TORSDOF 5
ENDMDL
MODEL 7
REMARK VINA RESULT:     -11.6      2.741      9.543
REMARK  Name = 17748441
REMARK  5 active torsions:
REMARK  status: ('A' for Active; 'I' for Inactive)
REMARK    1  A    between atoms: C_2  and  N_10
REMARK    2  A    between atoms: C_3  and  O_24
REMARK    3  A    between atoms: C_12  and  C_16
REMARK    4  A    between atoms: C_16  and  C_18
REMARK    5  A    between atoms: O_24  and  C_27
REMARK                            x       y       z     vdW  Elec       q    Type
REMARK                         _______ _______ _______ _____ _____    ______ ____
ROOT
ATOM      1  F   UNL     1      38.121 -18.224 -22.006  0.00  0.00    -0.201 F 
ATOM      2  C   UNL     1      35.469 -20.175 -20.461  0.00  0.00    +0.054 C 
ATOM      3  C   UNL     1      35.828 -18.408 -22.589  0.00  0.00    +0.173 C 
ATOM      4  C   UNL     1      36.728 -19.628 -20.708  0.00  0.00    +0.047 C 
ATOM      5  C   UNL     1      34.390 -19.837 -21.278  0.00  0.00    +0.018 C 
ATOM      6  C   UNL     1      36.908 -18.745 -21.772  0.00  0.00    +0.176 C 
ATOM      7  C   UNL     1      34.569 -18.953 -22.341  0.00  0.00    +0.041 C 
ENDROOT
BRANCH   2  10
ATOM      8  O   UNL     1      37.114 -22.169 -15.674  0.00  0.00    -0.274 OA
ATOM      9  O   UNL     1      37.101 -20.582 -17.973  0.00  0.00    -0.252 OA
ATOM     10  N   UNL     1      35.285 -21.071 -19.382  0.00  0.00    -0.268 N 
ATOM     11  N   UNL     1      35.555 -22.222 -17.408  0.00  0.00    -0.239 N 
ATOM     12  C   UNL     1      36.099 -22.631 -16.188  0.00  0.00    +0.234 C 
ATOM     13  C   UNL     1      36.084 -21.216 -18.243  0.00  0.00    +0.310 C 
ATOM     14  H   UNL     1      34.501 -21.665 -19.441  0.00  0.00    +0.156 HD
ATOM     15  H   UNL     1      34.734 -22.674 -17.711  0.00  0.00    +0.159 HD
BRANCH  12  16
ATOM     16  C   UNL     1      35.271 -23.736 -15.560  0.00  0.00    +0.112 C 
BRANCH  16  18
ATOM     17  F   UNL     1      29.852 -22.351 -14.882  0.00  0.00    -0.204 F 
ATOM     18  C   UNL     1      33.823 -23.367 -15.379  0.00  0.00    -0.013 C 
ATOM     19  C   UNL     1      33.023 -23.114 -16.493  0.00  0.00    -0.001 C 
ATOM     20  C   UNL     1      33.280 -23.277 -14.096  0.00  0.00    -0.001 C 
ATOM     21  C   UNL     1      31.681 -22.771 -16.325  0.00  0.00    +0.029 C 
ATOM     22  C   UNL     1      31.939 -22.933 -13.929  0.00  0.00    +0.029 C 
ATOM     23  C   UNL     1      31.139 -22.680 -15.043  0.00  0.00    +0.140 C 
ENDBRANCH  16  18
ENDBRANCH  12  16
ENDBRANCH   2  10
BRANCH   3  24
ATOM     24  O   UNL     1      36.003 -17.543 -23.626  0.00  0.00    -0.451 OA
BRANCH  24  27
ATOM     25  N   UNL     1      33.709 -14.050 -23.649  0.00  0.00    -0.229 NA
ATOM     26  N   UNL     1      32.932 -14.592 -25.836  0.00  0.00    -0.343 N 
ATOM     27  C   UNL     1      35.243 -16.386 -23.634  0.00  0.00    +0.150 C 
ATOM     28  C   UNL     1      34.464 -16.070 -24.741  0.00  0.00    +0.071 C 
ATOM     29  C   UNL     1      35.256 -15.535 -22.535  0.00  0.00    +0.058 C 
ATOM     30  C   UNL     1      33.722 -14.900 -24.700  0.00  0.00    +0.128 C 
ATOM     31  C   UNL     1      34.478 -14.390 -22.591  0.00  0.00    +0.103 C 
ATOM     32  H   UNL     1      32.389 -13.772 -25.850  0.00  0.00    +0.144 HD
ATOM     33  H   UNL     1      32.928 -15.199 -26.611  0.00  0.00    +0.144 HD
ENDBRANCH  24  27
ENDBRANCH   3  24
TORSDOF 5
ENDMDL
MODEL 8
REMARK VINA RESULT:     -11.4      3.047      4.379
REMARK  Name = 17748441
REMARK  5 active torsions:
REMARK  status: ('A' for Active; 'I' for Inactive)
REMARK    1  A    between atoms: C_2  and  N_10
REMARK    2  A    between atoms: C_3  and  O_24
REMARK    3  A    between atoms: C_12  and  C_16
REMARK    4  A    between atoms: C_16  and  C_18
REMARK    5  A    between atoms: O_24  and  C_27
REMARK                            x       y       z     vdW  Elec       q    Type
REMARK                         _______ _______ _______ _____ _____    ______ ____
ROOT
ATOM      1  F   UNL     1      33.885 -23.748 -16.184  0.00  0.00    -0.201 F 
ATOM      2  C   UNL     1      36.214 -21.506 -17.852  0.00  0.00    +0.054 C 
ATOM      3  C   UNL     1      36.023 -22.984 -15.494  0.00  0.00    +0.173 C 
ATOM      4  C   UNL     1      35.076 -22.273 -17.599  0.00  0.00    +0.047 C 
ATOM      5  C   UNL     1      37.255 -21.479 -16.924  0.00  0.00    +0.018 C 
ATOM      6  C   UNL     1      34.981 -23.012 -16.420  0.00  0.00    +0.176 C 
ATOM      7  C   UNL     1      37.160 -22.217 -15.745  0.00  0.00    +0.041 C 
ENDROOT
BRANCH   2  10
ATOM      8  O   UNL     1      33.874 -19.427 -22.301  0.00  0.00    -0.274 OA
ATOM      9  O   UNL     1      34.120 -20.819 -19.892  0.00  0.00    -0.252 OA
ATOM     10  N   UNL     1      36.311 -20.756 -19.047  0.00  0.00    -0.268 N 
ATOM     11  N   UNL     1      35.807 -19.691 -21.023  0.00  0.00    -0.239 N 
ATOM     12  C   UNL     1      35.070 -19.225 -22.115  0.00  0.00    +0.234 C 
ATOM     13  C   UNL     1      35.295 -20.468 -19.963  0.00  0.00    +0.310 C 
ATOM     14  H   UNL     1      37.203 -20.394 -19.259  0.00  0.00    +0.156 HD
ATOM     15  H   UNL     1      36.763 -19.459 -20.991  0.00  0.00    +0.159 HD
BRANCH  12  16
ATOM     16  C   UNL     1      35.942 -18.423 -23.063  0.00  0.00    +0.112 C 
BRANCH  16  18
ATOM     17  F   UNL     1      33.938 -13.262 -24.112  0.00  0.00    -0.204 F 
ATOM     18  C   UNL     1      35.406 -17.043 -23.343  0.00  0.00    -0.013 C 
ATOM     19  C   UNL     1      34.966 -16.714 -24.624  0.00  0.00    -0.001 C 
ATOM     20  C   UNL     1      35.350 -16.095 -22.321  0.00  0.00    -0.001 C 
ATOM     21  C   UNL     1      34.470 -15.436 -24.884  0.00  0.00    +0.029 C 
ATOM     22  C   UNL     1      34.855 -14.818 -22.581  0.00  0.00    +0.029 C 
ATOM     23  C   UNL     1      34.414 -14.488 -23.862  0.00  0.00    +0.140 C 
ENDBRANCH  16  18
ENDBRANCH  12  16
ENDBRANCH   2  10
BRANCH   3  24
ATOM     24  O   UNL     1      35.929 -23.704 -14.342  0.00  0.00    -0.451 OA
BRANCH  24  27
ATOM     25  N   UNL     1      39.165 -26.137 -13.304  0.00  0.00    -0.229 NA
ATOM     26  N   UNL     1      39.018 -27.212 -15.425  0.00  0.00    -0.343 N 
ATOM     27  C   UNL     1      37.001 -24.510 -13.998  0.00  0.00    +0.150 C 
ATOM     28  C   UNL     1      37.473 -25.464 -14.893  0.00  0.00    +0.071 C 
ATOM     29  C   UNL     1      37.609 -24.370 -12.756  0.00  0.00    +0.058 C 
ATOM     30  C   UNL     1      38.548 -26.245 -14.501  0.00  0.00    +0.128 C 
ATOM     31  C   UNL     1      38.679 -25.200 -12.460  0.00  0.00    +0.103 C 
ATOM     32  H   UNL     1      39.779 -27.789 -15.189  0.00  0.00    +0.144 HD
ATOM     33  H   UNL     1      38.582 -27.306 -16.303  0.00  0.00    +0.144 HD
ENDBRANCH  24  27
ENDBRANCH   3  24
TORSDOF 5
ENDMDL
MODEL 9
REMARK VINA RESULT:     -11.4      4.695     11.258
REMARK  Name = 17748441
REMARK  5 active torsions:
REMARK  status: ('A' for Active; 'I' for Inactive)
REMARK    1  A    between atoms: C_2  and  N_10
REMARK    2  A    between atoms: C_3  and  O_24
REMARK    3  A    between atoms: C_12  and  C_16
REMARK    4  A    between atoms: C_16  and  C_18
REMARK    5  A    between atoms: O_24  and  C_27
REMARK                            x       y       z     vdW  Elec       q    Type
REMARK                         _______ _______ _______ _____ _____    ______ ____
ROOT
ATOM      1  F   UNL     1      34.476  -9.943 -24.912  0.00  0.00    -0.201 F 
ATOM      2  C   UNL     1      34.041 -12.773 -22.670  0.00  0.00    +0.054 C 
ATOM      3  C   UNL     1      32.830 -10.327 -23.247  0.00  0.00    +0.173 C 
ATOM      4  C   UNL     1      34.569 -11.951 -23.664  0.00  0.00    +0.047 C 
ATOM      5  C   UNL     1      32.907 -12.371 -21.963  0.00  0.00    +0.018 C 
ATOM      6  C   UNL     1      33.964 -10.728 -23.953  0.00  0.00    +0.176 C 
ATOM      7  C   UNL     1      32.302 -11.148 -22.252  0.00  0.00    +0.041 C 
ENDROOT
BRANCH   2  10
ATOM      8  O   UNL     1      35.087 -17.938 -24.020  0.00  0.00    -0.274 OA
ATOM      9  O   UNL     1      34.055 -15.349 -24.212  0.00  0.00    -0.252 OA
ATOM     10  N   UNL     1      34.654 -14.013 -22.376  0.00  0.00    -0.268 N 
ATOM     11  N   UNL     1      35.364 -16.198 -22.492  0.00  0.00    -0.239 N 
ATOM     12  C   UNL     1      35.546 -17.499 -22.969  0.00  0.00    +0.234 C 
ATOM     13  C   UNL     1      34.626 -15.186 -23.137  0.00  0.00    +0.310 C 
ATOM     14  H   UNL     1      35.162 -14.055 -21.532  0.00  0.00    +0.156 HD
ATOM     15  H   UNL     1      35.786 -15.970 -21.631  0.00  0.00    +0.159 HD
BRANCH  12  16
ATOM     16  C   UNL     1      36.394 -18.321 -22.017  0.00  0.00    +0.112 C 
BRANCH  16  18
ATOM     17  F   UNL     1      33.386 -21.897 -18.869  0.00  0.00    -0.204 F 
ATOM     18  C   UNL     1      35.590 -19.277 -21.176  0.00  0.00    -0.013 C 
ATOM     19  C   UNL     1      34.198 -19.251 -21.230  0.00  0.00    -0.001 C 
ATOM     20  C   UNL     1      36.239 -20.188 -20.342  0.00  0.00    -0.001 C 
ATOM     21  C   UNL     1      33.452 -20.136 -20.451  0.00  0.00    +0.029 C 
ATOM     22  C   UNL     1      35.494 -21.073 -19.562  0.00  0.00    +0.029 C 
ATOM     23  C   UNL     1      34.101 -21.047 -19.617  0.00  0.00    +0.140 C 
ENDBRANCH  16  18
ENDBRANCH  12  16
ENDBRANCH   2  10
BRANCH   3  24
ATOM     24  O   UNL     1      32.240  -9.133 -23.527  0.00  0.00    -0.451 OA
BRANCH  24  27
ATOM     25  N   UNL     1      32.206  -6.231 -20.519  0.00  0.00    -0.229 NA
ATOM     26  N   UNL     1      30.632  -4.963 -21.781  0.00  0.00    -0.343 N 
ATOM     27  C   UNL     1      32.229  -8.171 -22.531  0.00  0.00    +0.150 C 
ATOM     28  C   UNL     1      31.429  -7.041 -22.660  0.00  0.00    +0.071 C 
ATOM     29  C   UNL     1      33.017  -8.332 -21.397  0.00  0.00    +0.058 C 
ATOM     30  C   UNL     1      31.453  -6.109 -21.635  0.00  0.00    +0.128 C 
ATOM     31  C   UNL     1      32.970  -7.342 -20.428  0.00  0.00    +0.103 C 
ATOM     32  H   UNL     1      30.618  -4.275 -21.077  0.00  0.00    +0.144 HD
ATOM     33  H   UNL     1      30.076  -4.855 -22.587  0.00  0.00    +0.144 HD
ENDBRANCH  24  27
ENDBRANCH   3  24
TORSDOF 5
ENDMDL
