MODEL 1
REMARK VINA RESULT:     -11.7      0.000      0.000
REMARK  Name = 10224181
REMARK  7 active torsions:
REMARK  status: ('A' for Active; 'I' for Inactive)
REMARK    1  A    between atoms: N_3  and  C_23
REMARK    2  A    between atoms: C_12  and  C_14
REMARK    3  A    between atoms: C_15  and  C_16
REMARK    4  A    between atoms: C_16  and  C_17
REMARK    5  A    between atoms: C_23  and  C_24
REMARK    6  A    between atoms: C_29  and  C_31
REMARK    7  A    between atoms: C_31  and  O_32
REMARK                            x       y       z     vdW  Elec       q    Type
REMARK                         _______ _______ _______ _____ _____    ______ ____
ROOT
ATOM      1  O   UNL     1      37.737 -22.014 -16.491  0.00  0.00    -0.267 OA
ATOM      2  O   UNL     1      34.484 -24.282 -14.067  0.00  0.00    -0.246 OA
ATOM      3  N   UNL     1      36.125 -23.159 -15.253  0.00  0.00    -0.244 N 
ATOM      4  N   UNL     1      33.883 -23.275 -16.065  0.00  0.00    -0.279 N 
ATOM      5  C   UNL     1      34.254 -22.511 -17.211  0.00  0.00    +0.069 A 
ATOM      6  C   UNL     1      35.572 -22.077 -17.361  0.00  0.00    +0.073 A 
ATOM      7  C   UNL     1      36.582 -22.406 -16.341  0.00  0.00    +0.266 A 
ATOM      8  C   UNL     1      34.802 -23.619 -15.061  0.00  0.00    +0.334 A 
ATOM      9  C   UNL     1      35.958 -21.323 -18.482  0.00  0.00    +0.014 C 
ATOM     10  C   UNL     1      33.327 -22.171 -18.213  0.00  0.00    +0.018 C 
ATOM     11  C   UNL     1      32.495 -23.716 -15.932  0.00  0.00    +0.135 C 
ATOM     12  C   UNL     1      35.025 -20.997 -19.462  0.00  0.00    +0.042 C 
ATOM     13  C   UNL     1      33.710 -21.422 -19.328  0.00  0.00    +0.010 C 
ENDROOT
BRANCH  12  14
ATOM     14  C   UNL     1      35.420 -20.231 -20.602  0.00  0.00    -0.064 C 
ATOM     15  C   UNL     1      35.749 -19.585 -21.564  0.00  0.00    -0.082 C 
BRANCH  15  16
ATOM     16  C   UNL     1      36.146 -18.799 -22.737  0.00  0.00    +0.103 C 
BRANCH  16  17
ATOM     17  C   UNL     1      35.636 -17.382 -22.666  0.00  0.00    -0.009 C 
ATOM     18  C   UNL     1      35.457 -16.784 -21.427  0.00  0.00    -0.003 C 
ATOM     19  C   UNL     1      35.355 -16.699 -23.839  0.00  0.00    -0.003 C 
ATOM     20  C   UNL     1      34.987 -15.472 -21.361  0.00  0.00    -0.000 C 
ATOM     21  C   UNL     1      34.884 -15.388 -23.773  0.00  0.00    -0.000 C 
ATOM     22  C   UNL     1      34.700 -14.775 -22.535  0.00  0.00    -0.000 C 
ENDBRANCH  16  17
ENDBRANCH  15  16
ENDBRANCH  12  14
BRANCH   3  23
ATOM     23  C   UNL     1      37.103 -23.502 -14.224  0.00  0.00    +0.140 C 
BRANCH  23  24
ATOM     24  C   UNL     1      37.982 -24.649 -14.646  0.00  0.00    +0.001 C 
ATOM     25  C   UNL     1      37.409 -25.884 -14.922  0.00  0.00    -0.002 C 
ATOM     26  C   UNL     1      39.352 -24.457 -14.754  0.00  0.00    -0.002 C 
ATOM     27  C   UNL     1      38.223 -26.947 -15.313  0.00  0.00    +0.006 C 
ATOM     28  C   UNL     1      40.166 -25.520 -15.146  0.00  0.00    +0.006 C 
ATOM     29  C   UNL     1      39.601 -26.765 -15.424  0.00  0.00    +0.075 C 
BRANCH  29  31
ATOM     30  O   UNL     1      41.482 -28.235 -15.257  0.00  0.00    -0.245 OA
ATOM     31  C   UNL     1      40.450 -27.874 -15.833  0.00  0.00    +0.338 C 
BRANCH  31  32
ATOM     32  O   UNL     1      39.989 -28.499 -16.950  0.00  0.00    -0.477 OA
ATOM     33  H   UNL     1      40.382 -29.301 -17.234  0.00  0.00    +0.295 HD
ENDBRANCH  31  32
ENDBRANCH  29  31
ENDBRANCH  23  24
ENDBRANCH   3  23
TORSDOF 7
ENDMDL
MODEL 2
REMARK VINA RESULT:     -11.4      1.612      2.327
REMARK  Name = 10224181
REMARK  7 active torsions:
REMARK  status: ('A' for Active; 'I' for Inactive)
REMARK    1  A    between atoms: N_3  and  C_23
REMARK    2  A    between atoms: C_12  and  C_14
REMARK    3  A    between atoms: C_15  and  C_16
REMARK    4  A    between atoms: C_16  and  C_17
REMARK    5  A    between atoms: C_23  and  C_24
REMARK    6  A    between atoms: C_29  and  C_31
REMARK    7  A    between atoms: C_31  and  O_32
REMARK                            x       y       z     vdW  Elec       q    Type
REMARK                         _______ _______ _______ _____ _____    ______ ____
ROOT
ATOM      1  O   UNL     1      36.856 -22.700 -15.483  0.00  0.00    -0.267 OA
ATOM      2  O   UNL     1      34.564 -24.881 -12.078  0.00  0.00    -0.246 OA
ATOM      3  N   UNL     1      35.732 -23.799 -13.759  0.00  0.00    -0.244 N 
ATOM      4  N   UNL     1      33.363 -24.071 -13.886  0.00  0.00    -0.279 N 
ATOM      5  C   UNL     1      33.349 -23.392 -15.140  0.00  0.00    +0.069 A 
ATOM      6  C   UNL     1      34.542 -22.921 -15.691  0.00  0.00    +0.073 A 
ATOM      7  C   UNL     1      35.816 -23.123 -14.982  0.00  0.00    +0.266 A 
ATOM      8  C   UNL     1      34.548 -24.293 -13.165  0.00  0.00    +0.334 A 
ATOM      9  C   UNL     1      34.549 -22.251 -16.925  0.00  0.00    +0.014 C 
ATOM     10  C   UNL     1      32.158 -23.175 -15.856  0.00  0.00    +0.018 C 
ATOM     11  C   UNL     1      32.099 -24.553 -13.331  0.00  0.00    +0.135 C 
ATOM     12  C   UNL     1      33.359 -22.046 -17.618  0.00  0.00    +0.042 C 
ATOM     13  C   UNL     1      32.164 -22.509 -17.084  0.00  0.00    +0.010 C 
ENDROOT
BRANCH  12  14
ATOM     14  C   UNL     1      33.369 -21.364 -18.873  0.00  0.00    -0.064 C 
ATOM     15  C   UNL     1      33.373 -20.788 -19.932  0.00  0.00    -0.082 C 
BRANCH  15  16
ATOM     16  C   UNL     1      33.374 -20.086 -21.220  0.00  0.00    +0.103 C 
BRANCH  16  17
ATOM     17  C   UNL     1      34.724 -19.494 -21.537  0.00  0.00    -0.009 C 
ATOM     18  C   UNL     1      35.770 -19.661 -20.642  0.00  0.00    -0.003 C 
ATOM     19  C   UNL     1      34.899 -18.791 -22.721  0.00  0.00    -0.003 C 
ATOM     20  C   UNL     1      37.019 -19.114 -20.936  0.00  0.00    -0.000 C 
ATOM     21  C   UNL     1      36.147 -18.244 -23.015  0.00  0.00    -0.000 C 
ATOM     22  C   UNL     1      37.207 -18.405 -22.123  0.00  0.00    -0.000 C 
ENDBRANCH  16  17
ENDBRANCH  15  16
ENDBRANCH  12  14
BRANCH   3  23
ATOM     23  C   UNL     1      36.980 -24.016 -13.031  0.00  0.00    +0.140 C 
BRANCH  23  24
ATOM     24  C   UNL     1      37.890 -24.973 -13.751  0.00  0.00    +0.001 C 
ATOM     25  C   UNL     1      37.344 -26.046 -14.443  0.00  0.00    -0.002 C 
ATOM     26  C   UNL     1      39.263 -24.771 -13.716  0.00  0.00    -0.002 C 
ATOM     27  C   UNL     1      38.187 -26.934 -15.111  0.00  0.00    +0.006 C 
ATOM     28  C   UNL     1      40.106 -25.658 -14.383  0.00  0.00    +0.006 C 
ATOM     29  C   UNL     1      39.568 -26.740 -15.081  0.00  0.00    +0.075 C 
BRANCH  29  31
ATOM     30  O   UNL     1      41.458 -28.192 -15.298  0.00  0.00    -0.245 OA
ATOM     31  C   UNL     1      40.449 -27.666 -15.778  0.00  0.00    +0.338 C 
BRANCH  31  32
ATOM     32  O   UNL     1      40.044 -27.907 -17.055  0.00  0.00    -0.477 OA
ATOM     33  H   UNL     1      39.131 -27.993 -17.248  0.00  0.00    +0.295 HD
ENDBRANCH  31  32
ENDBRANCH  29  31
ENDBRANCH  23  24
ENDBRANCH   3  23
TORSDOF 7
ENDMDL
MODEL 3
REMARK VINA RESULT:     -11.1      2.972      6.380
REMARK  Name = 10224181
REMARK  7 active torsions:
REMARK  status: ('A' for Active; 'I' for Inactive)
REMARK    1  A    between atoms: N_3  and  C_23
REMARK    2  A    between atoms: C_12  and  C_14
REMARK    3  A    between atoms: C_15  and  C_16
REMARK    4  A    between atoms: C_16  and  C_17
REMARK    5  A    between atoms: C_23  and  C_24
REMARK    6  A    between atoms: C_29  and  C_31
REMARK    7  A    between atoms: C_31  and  O_32
REMARK                            x       y       z     vdW  Elec       q    Type
REMARK                         _______ _______ _______ _____ _____    ______ ____
ROOT
ATOM      1  O   UNL     1      32.593 -23.496 -17.158  0.00  0.00    -0.267 OA
ATOM      2  O   UNL     1      34.991 -24.220 -13.243  0.00  0.00    -0.246 OA
ATOM      3  N   UNL     1      33.774 -23.876 -15.182  0.00  0.00    -0.244 N 
ATOM      4  N   UNL     1      35.968 -22.968 -14.930  0.00  0.00    -0.279 N 
ATOM      5  C   UNL     1      35.883 -22.392 -16.232  0.00  0.00    +0.069 A 
ATOM      6  C   UNL     1      34.730 -22.570 -16.999  0.00  0.00    +0.073 A 
ATOM      7  C   UNL     1      33.600 -23.350 -16.468  0.00  0.00    +0.266 A 
ATOM      8  C   UNL     1      34.922 -23.720 -14.372  0.00  0.00    +0.334 A 
ATOM      9  C   UNL     1      34.627 -22.011 -18.283  0.00  0.00    +0.014 C 
ATOM     10  C   UNL     1      36.936 -21.640 -16.784  0.00  0.00    +0.018 C 
ATOM     11  C   UNL     1      37.188 -22.767 -14.149  0.00  0.00    +0.135 C 
ATOM     12  C   UNL     1      35.680 -21.270 -18.812  0.00  0.00    +0.042 C 
ATOM     13  C   UNL     1      36.834 -21.083 -18.061  0.00  0.00    +0.010 C 
ENDROOT
BRANCH  12  14
ATOM     14  C   UNL     1      35.573 -20.702 -20.118  0.00  0.00    -0.064 C 
ATOM     15  C   UNL     1      35.486 -20.225 -21.221  0.00  0.00    -0.082 C 
BRANCH  15  16
ATOM     16  C   UNL     1      35.384 -19.645 -22.565  0.00  0.00    +0.103 C 
BRANCH  16  17
ATOM     17  C   UNL     1      35.269 -18.143 -22.523  0.00  0.00    -0.009 C 
ATOM     18  C   UNL     1      35.353 -17.486 -21.304  0.00  0.00    -0.003 C 
ATOM     19  C   UNL     1      35.083 -17.440 -23.704  0.00  0.00    -0.003 C 
ATOM     20  C   UNL     1      35.249 -16.096 -21.266  0.00  0.00    -0.000 C 
ATOM     21  C   UNL     1      34.978 -16.050 -23.666  0.00  0.00    -0.000 C 
ATOM     22  C   UNL     1      35.060 -15.378 -22.447  0.00  0.00    -0.000 C 
ENDBRANCH  16  17
ENDBRANCH  15  16
ENDBRANCH  12  14
BRANCH   3  23
ATOM     23  C   UNL     1      32.669 -24.653 -14.626  0.00  0.00    +0.140 C 
BRANCH  23  24
ATOM     24  C   UNL     1      31.336 -24.019 -14.915  0.00  0.00    +0.001 C 
ATOM     25  C   UNL     1      30.332 -24.775 -15.505  0.00  0.00    -0.002 C 
ATOM     26  C   UNL     1      31.126 -22.687 -14.585  0.00  0.00    -0.002 C 
ATOM     27  C   UNL     1      29.096 -24.187 -15.772  0.00  0.00    +0.006 C 
ATOM     28  C   UNL     1      29.890 -22.099 -14.851  0.00  0.00    +0.006 C 
ATOM     29  C   UNL     1      28.875 -22.849 -15.446  0.00  0.00    +0.075 C 
BRANCH  29  31
ATOM     30  O   UNL     1      26.582 -22.324 -15.007  0.00  0.00    -0.245 OA
ATOM     31  C   UNL     1      27.585 -22.236 -15.723  0.00  0.00    +0.338 C 
BRANCH  31  32
ATOM     32  O   UNL     1      27.583 -21.531 -16.888  0.00  0.00    -0.477 OA
ATOM     33  H   UNL     1      28.391 -21.218 -17.246  0.00  0.00    +0.295 HD
ENDBRANCH  31  32
ENDBRANCH  29  31
ENDBRANCH  23  24
ENDBRANCH   3  23
TORSDOF 7
ENDMDL
MODEL 4
REMARK VINA RESULT:     -10.2      4.849      8.762
REMARK  Name = 10224181
REMARK  7 active torsions:
REMARK  status: ('A' for Active; 'I' for Inactive)
REMARK    1  A    between atoms: N_3  and  C_23
REMARK    2  A    between atoms: C_12  and  C_14
REMARK    3  A    between atoms: C_15  and  C_16
REMARK    4  A    between atoms: C_16  and  C_17
REMARK    5  A    between atoms: C_23  and  C_24
REMARK    6  A    between atoms: C_29  and  C_31
REMARK    7  A    between atoms: C_31  and  O_32
REMARK                            x       y       z     vdW  Elec       q    Type
REMARK                         _______ _______ _______ _____ _____    ______ ____
ROOT
ATOM      1  O   UNL     1      35.798 -16.162 -20.578  0.00  0.00    -0.267 OA
ATOM      2  O   UNL     1      36.103 -19.728 -23.545  0.00  0.00    -0.246 OA
ATOM      3  N   UNL     1      35.966 -17.969 -22.046  0.00  0.00    -0.244 N 
ATOM      4  N   UNL     1      35.035 -17.792 -24.238  0.00  0.00    -0.279 N 
ATOM      5  C   UNL     1      34.602 -16.464 -23.951  0.00  0.00    +0.069 A 
ATOM      6  C   UNL     1      34.861 -15.902 -22.700  0.00  0.00    +0.073 A 
ATOM      7  C   UNL     1      35.581 -16.675 -21.674  0.00  0.00    +0.266 A 
ATOM      8  C   UNL     1      35.726 -18.576 -23.300  0.00  0.00    +0.334 A 
ATOM      9  C   UNL     1      34.443 -14.595 -22.398  0.00  0.00    +0.014 C 
ATOM     10  C   UNL     1      33.911 -15.685 -24.897  0.00  0.00    +0.018 C 
ATOM     11  C   UNL     1      34.750 -18.357 -25.556  0.00  0.00    +0.135 C 
ATOM     12  C   UNL     1      33.760 -13.840 -23.348  0.00  0.00    +0.042 C 
ATOM     13  C   UNL     1      33.495 -14.386 -24.597  0.00  0.00    +0.010 C 
ENDROOT
BRANCH  12  14
ATOM     14  C   UNL     1      33.336 -12.512 -23.039  0.00  0.00    -0.064 C 
ATOM     15  C   UNL     1      32.979 -11.390 -22.782  0.00  0.00    -0.082 C 
BRANCH  15  16
ATOM     16  C   UNL     1      32.545 -10.023 -22.473  0.00  0.00    +0.103 C 
BRANCH  16  17
ATOM     17  C   UNL     1      33.564  -8.998 -22.900  0.00  0.00    -0.009 C 
ATOM     18  C   UNL     1      33.525  -7.725 -22.350  0.00  0.00    -0.003 C 
ATOM     19  C   UNL     1      34.527  -9.344 -23.837  0.00  0.00    -0.003 C 
ATOM     20  C   UNL     1      34.469  -6.778 -22.745  0.00  0.00    -0.000 C 
ATOM     21  C   UNL     1      35.471  -8.396 -24.233  0.00  0.00    -0.000 C 
ATOM     22  C   UNL     1      35.442  -7.113 -23.687  0.00  0.00    -0.000 C 
ENDBRANCH  16  17
ENDBRANCH  15  16
ENDBRANCH  12  14
BRANCH   3  23
ATOM     23  C   UNL     1      36.683 -18.761 -21.050  0.00  0.00    +0.140 C 
BRANCH  23  24
ATOM     24  C   UNL     1      35.782 -19.755 -20.369  0.00  0.00    +0.001 C 
ATOM     25  C   UNL     1      36.333 -20.718 -19.535  0.00  0.00    -0.002 C 
ATOM     26  C   UNL     1      34.412 -19.695 -20.584  0.00  0.00    -0.002 C 
ATOM     27  C   UNL     1      35.498 -21.639 -18.903  0.00  0.00    +0.006 C 
ATOM     28  C   UNL     1      33.577 -20.616 -19.953  0.00  0.00    +0.006 C 
ATOM     29  C   UNL     1      34.120 -21.589 -19.112  0.00  0.00    +0.075 C 
BRANCH  29  31
ATOM     30  O   UNL     1      32.189 -22.277 -17.879  0.00  0.00    -0.245 OA
ATOM     31  C   UNL     1      33.248 -22.549 -18.453  0.00  0.00    +0.338 C 
BRANCH  31  32
ATOM     32  O   UNL     1      33.724 -23.822 -18.529  0.00  0.00    -0.477 OA
ATOM     33  H   UNL     1      33.421 -24.472 -17.926  0.00  0.00    +0.295 HD
ENDBRANCH  31  32
ENDBRANCH  29  31
ENDBRANCH  23  24
ENDBRANCH   3  23
TORSDOF 7
ENDMDL
MODEL 5
REMARK VINA RESULT:     -10.1      5.034      9.146
REMARK  Name = 10224181
REMARK  7 active torsions:
REMARK  status: ('A' for Active; 'I' for Inactive)
REMARK    1  A    between atoms: N_3  and  C_23
REMARK    2  A    between atoms: C_12  and  C_14
REMARK    3  A    between atoms: C_15  and  C_16
REMARK    4  A    between atoms: C_16  and  C_17
REMARK    5  A    between atoms: C_23  and  C_24
REMARK    6  A    between atoms: C_29  and  C_31
REMARK    7  A    between atoms: C_31  and  O_32
REMARK                            x       y       z     vdW  Elec       q    Type
REMARK                         _______ _______ _______ _____ _____    ______ ____
ROOT
ATOM      1  O   UNL     1      35.550 -16.196 -20.001  0.00  0.00    -0.267 OA
ATOM      2  O   UNL     1      36.324 -18.569 -23.921  0.00  0.00    -0.246 OA
ATOM      3  N   UNL     1      35.955 -17.408 -21.954  0.00  0.00    -0.244 N 
ATOM      4  N   UNL     1      35.045 -16.640 -24.023  0.00  0.00    -0.279 N 
ATOM      5  C   UNL     1      34.453 -15.528 -23.355  0.00  0.00    +0.069 A 
ATOM      6  C   UNL     1      34.622 -15.372 -21.979  0.00  0.00    +0.073 A 
ATOM      7  C   UNL     1      35.412 -16.350 -21.213  0.00  0.00    +0.266 A 
ATOM      8  C   UNL     1      35.809 -17.604 -23.346  0.00  0.00    +0.334 A 
ATOM      9  C   UNL     1      34.048 -14.283 -21.302  0.00  0.00    +0.014 C 
ATOM     10  C   UNL     1      33.690 -14.566 -24.042  0.00  0.00    +0.018 C 
ATOM     11  C   UNL     1      34.851 -16.781 -25.466  0.00  0.00    +0.135 C 
ATOM     12  C   UNL     1      33.296 -13.342 -22.000  0.00  0.00    +0.042 C 
ATOM     13  C   UNL     1      33.118 -13.483 -23.370  0.00  0.00    +0.010 C 
ENDROOT
BRANCH  12  14
ATOM     14  C   UNL     1      32.713 -12.236 -21.310  0.00  0.00    -0.064 C 
ATOM     15  C   UNL     1      32.217 -11.303 -20.731  0.00  0.00    -0.082 C 
BRANCH  15  16
ATOM     16  C   UNL     1      31.612 -10.166 -20.028  0.00  0.00    +0.103 C 
BRANCH  16  17
ATOM     17  C   UNL     1      31.977  -8.850 -20.666  0.00  0.00    -0.009 C 
ATOM     18  C   UNL     1      31.980  -8.739 -22.048  0.00  0.00    -0.003 C 
ATOM     19  C   UNL     1      32.303  -7.769 -19.860  0.00  0.00    -0.003 C 
ATOM     20  C   UNL     1      32.316  -7.521 -22.638  0.00  0.00    -0.000 C 
ATOM     21  C   UNL     1      32.640  -6.551 -20.449  0.00  0.00    -0.000 C 
ATOM     22  C   UNL     1      32.647  -6.427 -21.838  0.00  0.00    -0.000 C 
ENDBRANCH  16  17
ENDBRANCH  15  16
ENDBRANCH  12  14
BRANCH   3  23
ATOM     23  C   UNL     1      36.744 -18.396 -21.222  0.00  0.00    +0.140 C 
BRANCH  23  24
ATOM     24  C   UNL     1      35.877 -19.451 -20.591  0.00  0.00    +0.001 C 
ATOM     25  C   UNL     1      34.514 -19.464 -20.856  0.00  0.00    -0.002 C 
ATOM     26  C   UNL     1      36.451 -20.398 -19.754  0.00  0.00    -0.002 C 
ATOM     27  C   UNL     1      33.710 -20.442 -20.271  0.00  0.00    +0.006 C 
ATOM     28  C   UNL     1      35.647 -21.376 -19.170  0.00  0.00    +0.006 C 
ATOM     29  C   UNL     1      34.276 -21.398 -19.428  0.00  0.00    +0.075 C 
BRANCH  29  31
ATOM     30  O   UNL     1      32.430 -22.204 -18.138  0.00  0.00    -0.245 OA
ATOM     31  C   UNL     1      33.438 -22.419 -18.818  0.00  0.00    +0.338 C 
BRANCH  31  32
ATOM     32  O   UNL     1      33.883 -23.680 -19.075  0.00  0.00    -0.477 OA
ATOM     33  H   UNL     1      33.345 -24.417 -18.866  0.00  0.00    +0.295 HD
ENDBRANCH  31  32
ENDBRANCH  29  31
ENDBRANCH  23  24
ENDBRANCH   3  23
TORSDOF 7
ENDMDL
MODEL 6
REMARK VINA RESULT:     -10.1      3.614      6.753
REMARK  Name = 10224181
REMARK  7 active torsions:
REMARK  status: ('A' for Active; 'I' for Inactive)
REMARK    1  A    between atoms: N_3  and  C_23
REMARK    2  A    between atoms: C_12  and  C_14
REMARK    3  A    between atoms: C_15  and  C_16
REMARK    4  A    between atoms: C_16  and  C_17
REMARK    5  A    between atoms: C_23  and  C_24
REMARK    6  A    between atoms: C_29  and  C_31
REMARK    7  A    between atoms: C_31  and  O_32
REMARK                            x       y       z     vdW  Elec       q    Type
REMARK                         _______ _______ _______ _____ _____    ______ ____
ROOT
ATOM      1  O   UNL     1      33.055 -23.765 -16.827  0.00  0.00    -0.267 OA
ATOM      2  O   UNL     1      33.954 -24.673 -12.358  0.00  0.00    -0.246 OA
ATOM      3  N   UNL     1      33.480 -24.237 -14.582  0.00  0.00    -0.244 N 
ATOM      4  N   UNL     1      35.438 -23.348 -13.545  0.00  0.00    -0.279 N 
ATOM      5  C   UNL     1      35.803 -22.713 -14.769  0.00  0.00    +0.069 A 
ATOM      6  C   UNL     1      34.991 -22.853 -15.895  0.00  0.00    +0.073 A 
ATOM      7  C   UNL     1      33.757 -23.653 -15.824  0.00  0.00    +0.266 A 
ATOM      8  C   UNL     1      34.274 -24.122 -13.418  0.00  0.00    +0.334 A 
ATOM      9  C   UNL     1      35.332 -22.236 -17.110  0.00  0.00    +0.014 C 
ATOM     10  C   UNL     1      36.972 -21.939 -14.888  0.00  0.00    +0.018 C 
ATOM     11  C   UNL     1      36.308 -23.185 -12.380  0.00  0.00    +0.135 C 
ATOM     12  C   UNL     1      36.493 -21.474 -17.207  0.00  0.00    +0.042 C 
ATOM     13  C   UNL     1      37.312 -21.325 -16.095  0.00  0.00    +0.010 C 
ENDROOT
BRANCH  12  14
ATOM     14  C   UNL     1      36.838 -20.847 -18.443  0.00  0.00    -0.064 C 
ATOM     15  C   UNL     1      37.128 -20.321 -19.488  0.00  0.00    -0.082 C 
BRANCH  15  16
ATOM     16  C   UNL     1      37.479 -19.684 -20.762  0.00  0.00    +0.103 C 
BRANCH  16  17
ATOM     17  C   UNL     1      36.259 -19.359 -21.585  0.00  0.00    -0.009 C 
ATOM     18  C   UNL     1      35.008 -19.757 -21.137  0.00  0.00    -0.003 C 
ATOM     19  C   UNL     1      36.406 -18.667 -22.778  0.00  0.00    -0.003 C 
ATOM     20  C   UNL     1      33.879 -19.455 -21.898  0.00  0.00    -0.000 C 
ATOM     21  C   UNL     1      35.277 -18.367 -23.540  0.00  0.00    -0.000 C 
ATOM     22  C   UNL     1      34.014 -18.760 -23.100  0.00  0.00    -0.000 C 
ENDBRANCH  16  17
ENDBRANCH  15  16
ENDBRANCH  12  14
BRANCH   3  23
ATOM     23  C   UNL     1      32.262 -25.037 -14.479  0.00  0.00    +0.140 C 
BRANCH  23  24
ATOM     24  C   UNL     1      31.040 -24.249 -14.866  0.00  0.00    +0.001 C 
ATOM     25  C   UNL     1      30.079 -24.834 -15.680  0.00  0.00    -0.002 C 
ATOM     26  C   UNL     1      30.889 -22.949 -14.404  0.00  0.00    -0.002 C 
ATOM     27  C   UNL     1      28.946 -24.104 -16.038  0.00  0.00    +0.006 C 
ATOM     28  C   UNL     1      29.756 -22.219 -14.762  0.00  0.00    +0.006 C 
ATOM     29  C   UNL     1      28.784 -22.797 -15.580  0.00  0.00    +0.075 C 
BRANCH  29  31
ATOM     30  O   UNL     1      27.501 -21.315 -16.951  0.00  0.00    -0.245 OA
ATOM     31  C   UNL     1      27.602 -22.036 -15.953  0.00  0.00    +0.338 C 
BRANCH  31  32
ATOM     32  O   UNL     1      26.579 -22.195 -15.069  0.00  0.00    -0.477 OA
ATOM     33  H   UNL     1      26.386 -21.518 -14.451  0.00  0.00    +0.295 HD
ENDBRANCH  31  32
ENDBRANCH  29  31
ENDBRANCH  23  24
ENDBRANCH   3  23
TORSDOF 7
ENDMDL
MODEL 7
REMARK VINA RESULT:      -9.8     10.325     17.127
REMARK  Name = 10224181
REMARK  7 active torsions:
REMARK  status: ('A' for Active; 'I' for Inactive)
REMARK    1  A    between atoms: N_3  and  C_23
REMARK    2  A    between atoms: C_12  and  C_14
REMARK    3  A    between atoms: C_15  and  C_16
REMARK    4  A    between atoms: C_16  and  C_17
REMARK    5  A    between atoms: C_23  and  C_24
REMARK    6  A    between atoms: C_29  and  C_31
REMARK    7  A    between atoms: C_31  and  O_32
REMARK                            x       y       z     vdW  Elec       q    Type
REMARK                         _______ _______ _______ _____ _____    ______ ____
ROOT
ATOM      1  O   UNL     1      35.769  -9.045 -24.722  0.00  0.00    -0.267 OA
ATOM      2  O   UNL     1      33.579  -6.164 -21.806  0.00  0.00    -0.246 OA
ATOM      3  N   UNL     1      34.688  -7.576 -23.267  0.00  0.00    -0.244 N 
ATOM      4  N   UNL     1      32.912  -8.381 -21.889  0.00  0.00    -0.279 N 
ATOM      5  C   UNL     1      33.070  -9.686 -22.442  0.00  0.00    +0.069 A 
ATOM      6  C   UNL     1      34.046  -9.919 -23.412  0.00  0.00    +0.073 A 
ATOM      7  C   UNL     1      34.916  -8.821 -23.866  0.00  0.00    +0.266 A 
ATOM      8  C   UNL     1      33.712  -7.296 -22.283  0.00  0.00    +0.334 A 
ATOM      9  C   UNL     1      34.217 -11.197 -23.968  0.00  0.00    +0.014 C 
ATOM     10  C   UNL     1      32.264 -10.767 -22.040  0.00  0.00    +0.018 C 
ATOM     11  C   UNL     1      31.881  -8.164 -20.875  0.00  0.00    +0.135 C 
ATOM     12  C   UNL     1      33.409 -12.254 -23.558  0.00  0.00    +0.042 C 
ATOM     13  C   UNL     1      32.434 -12.039 -22.593  0.00  0.00    +0.010 C 
ENDROOT
BRANCH  12  14
ATOM     14  C   UNL     1      33.585 -13.553 -24.125  0.00  0.00    -0.064 C 
ATOM     15  C   UNL     1      33.731 -14.648 -24.606  0.00  0.00    -0.082 C 
BRANCH  15  16
ATOM     16  C   UNL     1      33.905 -15.981 -25.194  0.00  0.00    +0.103 C 
BRANCH  16  17
ATOM     17  C   UNL     1      34.583 -16.933 -24.241  0.00  0.00    -0.009 C 
ATOM     18  C   UNL     1      35.290 -16.428 -23.160  0.00  0.00    -0.003 C 
ATOM     19  C   UNL     1      34.488 -18.299 -24.460  0.00  0.00    -0.003 C 
ATOM     20  C   UNL     1      35.916 -17.308 -22.278  0.00  0.00    -0.000 C 
ATOM     21  C   UNL     1      35.114 -19.180 -23.579  0.00  0.00    -0.000 C 
ATOM     22  C   UNL     1      35.828 -18.685 -22.488  0.00  0.00    -0.000 C 
ENDBRANCH  16  17
ENDBRANCH  15  16
ENDBRANCH  12  14
BRANCH   3  23
ATOM     23  C   UNL     1      35.535  -6.466 -23.697  0.00  0.00    +0.140 C 
BRANCH  23  24
ATOM     24  C   UNL     1      34.890  -5.659 -24.791  0.00  0.00    +0.001 C 
ATOM     25  C   UNL     1      35.617  -5.351 -25.933  0.00  0.00    -0.002 C 
ATOM     26  C   UNL     1      33.577  -5.233 -24.643  0.00  0.00    -0.002 C 
ATOM     27  C   UNL     1      35.020  -4.603 -26.947  0.00  0.00    +0.006 C 
ATOM     28  C   UNL     1      32.980  -4.485 -25.657  0.00  0.00    +0.006 C 
ATOM     29  C   UNL     1      33.701  -4.170 -26.809  0.00  0.00    +0.075 C 
BRANCH  29  31
ATOM     30  O   UNL     1      33.403  -3.410 -29.058  0.00  0.00    -0.245 OA
ATOM     31  C   UNL     1      33.077  -3.389 -27.867  0.00  0.00    +0.338 C 
BRANCH  31  32
ATOM     32  O   UNL     1      32.065  -2.605 -27.407  0.00  0.00    -0.477 OA
ATOM     33  H   UNL     1      32.248  -1.909 -26.807  0.00  0.00    +0.295 HD
ENDBRANCH  31  32
ENDBRANCH  29  31
ENDBRANCH  23  24
ENDBRANCH   3  23
TORSDOF 7
ENDMDL
MODEL 8
REMARK VINA RESULT:      -9.6      4.797      8.591
REMARK  Name = 10224181
REMARK  7 active torsions:
REMARK  status: ('A' for Active; 'I' for Inactive)
REMARK    1  A    between atoms: N_3  and  C_23
REMARK    2  A    between atoms: C_12  and  C_14
REMARK    3  A    between atoms: C_15  and  C_16
REMARK    4  A    between atoms: C_16  and  C_17
REMARK    5  A    between atoms: C_23  and  C_24
REMARK    6  A    between atoms: C_29  and  C_31
REMARK    7  A    between atoms: C_31  and  O_32
REMARK                            x       y       z     vdW  Elec       q    Type
REMARK                         _______ _______ _______ _____ _____    ______ ____
ROOT
ATOM      1  O   UNL     1      36.007 -16.265 -20.897  0.00  0.00    -0.267 OA
ATOM      2  O   UNL     1      35.708 -20.161 -23.413  0.00  0.00    -0.246 OA
ATOM      3  N   UNL     1      35.872 -18.236 -22.138  0.00  0.00    -0.244 N 
ATOM      4  N   UNL     1      34.755 -18.222 -24.248  0.00  0.00    -0.279 N 
ATOM      5  C   UNL     1      34.472 -16.833 -24.093  0.00  0.00    +0.069 A 
ATOM      6  C   UNL     1      34.898 -16.158 -22.948  0.00  0.00    +0.073 A 
ATOM      7  C   UNL     1      35.641 -16.876 -21.899  0.00  0.00    +0.266 A 
ATOM      8  C   UNL     1      35.460 -18.957 -23.282  0.00  0.00    +0.334 A 
ATOM      9  C   UNL     1      34.629 -14.790 -22.777  0.00  0.00    +0.014 C 
ATOM     10  C   UNL     1      33.766 -16.103 -25.067  0.00  0.00    +0.018 C 
ATOM     11  C   UNL     1      34.296 -18.904 -25.458  0.00  0.00    +0.135 C 
ATOM     12  C   UNL     1      33.929 -14.086 -23.752  0.00  0.00    +0.042 C 
ATOM     13  C   UNL     1      33.498 -14.743 -24.897  0.00  0.00    +0.010 C 
ENDROOT
BRANCH  12  14
ATOM     14  C   UNL     1      33.657 -12.695 -23.576  0.00  0.00    -0.064 C 
ATOM     15  C   UNL     1      33.430 -11.521 -23.430  0.00  0.00    -0.082 C 
BRANCH  15  16
ATOM     16  C   UNL     1      33.155 -10.090 -23.255  0.00  0.00    +0.103 C 
BRANCH  16  17
ATOM     17  C   UNL     1      32.583  -9.788 -21.894  0.00  0.00    -0.009 C 
ATOM     18  C   UNL     1      31.931 -10.790 -21.190  0.00  0.00    -0.003 C 
ATOM     19  C   UNL     1      32.719  -8.513 -21.364  0.00  0.00    -0.003 C 
ATOM     20  C   UNL     1      31.404 -10.511 -19.930  0.00  0.00    -0.000 C 
ATOM     21  C   UNL     1      32.190  -8.234 -20.105  0.00  0.00    -0.000 C 
ATOM     22  C   UNL     1      31.533  -9.232 -19.387  0.00  0.00    -0.000 C 
ENDBRANCH  16  17
ENDBRANCH  15  16
ENDBRANCH  12  14
BRANCH   3  23
ATOM     23  C   UNL     1      36.608 -18.976 -21.116  0.00  0.00    +0.140 C 
BRANCH  23  24
ATOM     24  C   UNL     1      35.717 -19.925 -20.360  0.00  0.00    +0.001 C 
ATOM     25  C   UNL     1      36.285 -20.866 -19.512  0.00  0.00    -0.002 C 
ATOM     26  C   UNL     1      34.341 -19.845 -20.520  0.00  0.00    -0.002 C 
ATOM     27  C   UNL     1      35.459 -21.745 -18.812  0.00  0.00    +0.006 C 
ATOM     28  C   UNL     1      33.515 -20.724 -19.820  0.00  0.00    +0.006 C 
ATOM     29  C   UNL     1      34.075 -21.675 -18.965  0.00  0.00    +0.075 C 
BRANCH  29  31
ATOM     30  O   UNL     1      33.449 -23.787 -18.033  0.00  0.00    -0.245 OA
ATOM     31  C   UNL     1      33.214 -22.592 -18.234  0.00  0.00    +0.338 C 
BRANCH  31  32
ATOM     32  O   UNL     1      32.082 -21.990 -17.776  0.00  0.00    -0.477 OA
ATOM     33  H   UNL     1      31.242 -22.338 -18.003  0.00  0.00    +0.295 HD
ENDBRANCH  31  32
ENDBRANCH  29  31
ENDBRANCH  23  24
ENDBRANCH   3  23
TORSDOF 7
ENDMDL
MODEL 9
REMARK VINA RESULT:      -9.2      6.443     12.745
REMARK  Name = 10224181
REMARK  7 active torsions:
REMARK  status: ('A' for Active; 'I' for Inactive)
REMARK    1  A    between atoms: N_3  and  C_23
REMARK    2  A    between atoms: C_12  and  C_14
REMARK    3  A    between atoms: C_15  and  C_16
REMARK    4  A    between atoms: C_16  and  C_17
REMARK    5  A    between atoms: C_23  and  C_24
REMARK    6  A    between atoms: C_29  and  C_31
REMARK    7  A    between atoms: C_31  and  O_32
REMARK                            x       y       z     vdW  Elec       q    Type
REMARK                         _______ _______ _______ _____ _____    ______ ____
ROOT
ATOM      1  O   UNL     1      35.758 -14.418 -22.761  0.00  0.00    -0.267 OA
ATOM      2  O   UNL     1      32.852 -14.229 -26.383  0.00  0.00    -0.246 OA
ATOM      3  N   UNL     1      34.304 -14.293 -24.581  0.00  0.00    -0.244 N 
ATOM      4  N   UNL     1      33.245 -16.279 -25.379  0.00  0.00    -0.279 N 
ATOM      5  C   UNL     1      33.907 -17.041 -24.370  0.00  0.00    +0.069 A 
ATOM      6  C   UNL     1      34.768 -16.409 -23.472  0.00  0.00    +0.073 A 
ATOM      7  C   UNL     1      34.996 -14.957 -23.560  0.00  0.00    +0.266 A 
ATOM      8  C   UNL     1      33.424 -14.893 -25.511  0.00  0.00    +0.334 A 
ATOM      9  C   UNL     1      35.428 -17.141 -22.472  0.00  0.00    +0.014 C 
ATOM     10  C   UNL     1      33.722 -18.430 -24.244  0.00  0.00    +0.018 C 
ATOM     11  C   UNL     1      32.349 -16.967 -26.307  0.00  0.00    +0.135 C 
ATOM     12  C   UNL     1      35.232 -18.515 -22.364  0.00  0.00    +0.042 C 
ATOM     13  C   UNL     1      34.379 -19.159 -23.250  0.00  0.00    +0.010 C 
ENDROOT
BRANCH  12  14
ATOM     14  C   UNL     1      35.905 -19.257 -21.346  0.00  0.00    -0.064 C 
ATOM     15  C   UNL     1      36.469 -19.886 -20.486  0.00  0.00    -0.082 C 
BRANCH  15  16
ATOM     16  C   UNL     1      37.153 -20.653 -19.439  0.00  0.00    +0.103 C 
BRANCH  16  17
ATOM     17  C   UNL     1      36.180 -21.397 -18.560  0.00  0.00    -0.009 C 
ATOM     18  C   UNL     1      36.577 -21.805 -17.295  0.00  0.00    -0.003 C 
ATOM     19  C   UNL     1      34.902 -21.662 -19.029  0.00  0.00    -0.003 C 
ATOM     20  C   UNL     1      35.677 -22.493 -16.482  0.00  0.00    -0.000 C 
ATOM     21  C   UNL     1      34.002 -22.351 -18.216  0.00  0.00    -0.000 C 
ATOM     22  C   UNL     1      34.389 -22.766 -16.943  0.00  0.00    -0.000 C 
ENDBRANCH  16  17
ENDBRANCH  15  16
ENDBRANCH  12  14
BRANCH   3  23
ATOM     23  C   UNL     1      34.508 -12.851 -24.695  0.00  0.00    +0.140 C 
BRANCH  23  24
ATOM     24  C   UNL     1      33.708 -12.089 -23.673  0.00  0.00    +0.001 C 
ATOM     25  C   UNL     1      33.629 -10.705 -23.761  0.00  0.00    -0.002 C 
ATOM     26  C   UNL     1      33.059 -12.779 -22.659  0.00  0.00    -0.002 C 
ATOM     27  C   UNL     1      32.887  -9.999 -22.815  0.00  0.00    +0.006 C 
ATOM     28  C   UNL     1      32.317 -12.072 -21.713  0.00  0.00    +0.006 C 
ATOM     29  C   UNL     1      32.231 -10.682 -21.790  0.00  0.00    +0.075 C 
BRANCH  29  31
ATOM     30  O   UNL     1      30.573 -10.424 -20.086  0.00  0.00    -0.245 OA
ATOM     31  C   UNL     1      31.457  -9.945 -20.804  0.00  0.00    +0.338 C 
BRANCH  31  32
ATOM     32  O   UNL     1      31.807  -8.631 -20.742  0.00  0.00    -0.477 OA
ATOM     33  H   UNL     1      32.673  -8.390 -20.479  0.00  0.00    +0.295 HD
ENDBRANCH  31  32
ENDBRANCH  29  31
ENDBRANCH  23  24
ENDBRANCH   3  23
TORSDOF 7
ENDMDL
