MODEL 1
REMARK VINA RESULT:     -12.3      0.000      0.000
REMARK  Name = 24752833
REMARK  4 active torsions:
REMARK  status: ('A' for Active; 'I' for Inactive)
REMARK    1  A    between atoms: C_1  and  N_8
REMARK    2  A    between atoms: C_2  and  N_23
REMARK    3  A    between atoms: C_9  and  C_14
REMARK    4  A    between atoms: C_24  and  C_28
REMARK                            x       y       z     vdW  Elec       q    Type
REMARK                         _______ _______ _______ _____ _____    ______ ____
ROOT
ATOM      1  C   UNL     1      32.656 -23.581 -14.536  0.00  0.00    +0.090 C 
ATOM      2  C   UNL     1      31.916 -23.443 -15.878  0.00  0.00    +0.090 C 
ATOM      3  C   UNL     1      31.837 -24.396 -13.529  0.00  0.00    +0.021 C 
ATOM      4  C   UNL     1      30.496 -22.902 -15.686  0.00  0.00    +0.021 C 
ATOM      5  C   UNL     1      30.429 -23.838 -13.349  0.00  0.00    +0.002 C 
ATOM      6  C   UNL     1      29.700 -23.731 -14.683  0.00  0.00    +0.002 C 
ENDROOT
BRANCH   1   8
ATOM      7  O   UNL     1      34.759 -23.748 -12.588  0.00  0.00    -0.267 OA
ATOM      8  N   UNL     1      33.956 -24.190 -14.717  0.00  0.00    -0.298 N 
ATOM      9  C   UNL     1      34.908 -24.220 -13.711  0.00  0.00    +0.282 C 
ATOM     10  H   UNL     1      34.172 -24.598 -15.587  0.00  0.00    +0.150 HD
BRANCH   9  14
ATOM     11  S   UNL     1      36.256 -26.144 -15.210  0.00  0.00    -0.074 S 
ATOM     12  N   UNL     1      40.160 -27.237 -14.996  0.00  0.00    +0.387 N 
ATOM     13  N   UNL     1      37.352 -24.493 -13.534  0.00  0.00    -0.399 NA
ATOM     14  C   UNL     1      36.202 -24.860 -14.064  0.00  0.00    +0.210 C 
ATOM     15  C   UNL     1      38.346 -25.278 -14.073  0.00  0.00    +0.093 C 
ATOM     16  C   UNL     1      37.937 -26.225 -14.986  0.00  0.00    +0.082 C 
ATOM     17  C   UNL     1      39.774 -25.143 -13.678  0.00  0.00    +0.032 C 
ATOM     18  C   UNL     1      38.857 -27.159 -15.700  0.00  0.00    -0.059 C 
ATOM     19  C   UNL     1      40.691 -25.893 -14.673  0.00  0.00    -0.070 C 
ATOM     20  C   UNL     1      41.123 -27.993 -15.795  0.00  0.00    -0.101 C 
ATOM     21  H   UNL     1      40.010 -27.724 -14.112  0.00  0.00    -0.080 HD
ENDBRANCH   9  14
ENDBRANCH   1   8
BRANCH   2  23
ATOM     22  O   UNL     1      33.665 -24.290 -17.991  0.00  0.00    -0.269 OA
ATOM     23  N   UNL     1      32.647 -22.590 -16.789  0.00  0.00    -0.300 N 
ATOM     24  C   UNL     1      33.470 -23.096 -17.781  0.00  0.00    +0.259 C 
ATOM     25  H   UNL     1      32.554 -21.614 -16.701  0.00  0.00    +0.150 HD
BRANCH  24  28
ATOM     26 CL   UNL     1      36.129 -17.620 -22.535  0.00  0.00    -0.082 Cl
ATOM     27  N   UNL     1      35.520 -21.864 -18.567  0.00  0.00    -0.309 N 
ATOM     28  C   UNL     1      34.171 -22.087 -18.617  0.00  0.00    +0.102 C 
ATOM     29  C   UNL     1      33.633 -21.229 -19.549  0.00  0.00    +0.020 C 
ATOM     30  C   UNL     1      35.871 -20.872 -19.454  0.00  0.00    +0.048 C 
ATOM     31  C   UNL     1      34.698 -20.454 -20.088  0.00  0.00    +0.016 C 
ATOM     32  C   UNL     1      37.123 -20.317 -19.741  0.00  0.00    +0.015 C 
ATOM     33  C   UNL     1      34.777 -19.433 -21.055  0.00  0.00    +0.013 C 
ATOM     34  C   UNL     1      36.023 -18.869 -21.354  0.00  0.00    +0.058 C 
ATOM     35  C   UNL     1      37.177 -19.306 -20.706  0.00  0.00    +0.013 C 
ATOM     36  H   UNL     1      36.149 -22.344 -17.981  0.00  0.00    +0.152 HD
ENDBRANCH  24  28
ENDBRANCH   2  23
TORSDOF 4
ENDMDL
MODEL 2
REMARK VINA RESULT:     -11.9      2.837      7.415
REMARK  Name = 24752833
REMARK  4 active torsions:
REMARK  status: ('A' for Active; 'I' for Inactive)
REMARK    1  A    between atoms: C_1  and  N_8
REMARK    2  A    between atoms: C_2  and  N_23
REMARK    3  A    between atoms: C_9  and  C_14
REMARK    4  A    between atoms: C_24  and  C_28
REMARK                            x       y       z     vdW  Elec       q    Type
REMARK                         _______ _______ _______ _____ _____    ______ ____
ROOT
ATOM      1  C   UNL     1      31.933 -23.434 -15.999  0.00  0.00    +0.090 C 
ATOM      2  C   UNL     1      32.670 -23.575 -14.655  0.00  0.00    +0.090 C 
ATOM      3  C   UNL     1      30.509 -22.903 -15.801  0.00  0.00    +0.021 C 
ATOM      4  C   UNL     1      31.859 -24.399 -13.650  0.00  0.00    +0.021 C 
ATOM      5  C   UNL     1      29.718 -23.739 -14.801  0.00  0.00    +0.002 C 
ATOM      6  C   UNL     1      30.448 -23.848 -13.467  0.00  0.00    +0.002 C 
ENDROOT
BRANCH   1   8
ATOM      7  O   UNL     1      33.707 -24.254 -18.102  0.00  0.00    -0.267 OA
ATOM      8  N   UNL     1      32.658 -22.569 -16.903  0.00  0.00    -0.298 N 
ATOM      9  C   UNL     1      33.494 -23.063 -17.891  0.00  0.00    +0.282 C 
ATOM     10  H   UNL     1      32.553 -21.594 -16.814  0.00  0.00    +0.150 HD
BRANCH   9  14
ATOM     11  S   UNL     1      33.281 -20.971 -19.719  0.00  0.00    -0.074 S 
ATOM     12  N   UNL     1      36.248 -19.027 -21.695  0.00  0.00    +0.387 N 
ATOM     13  N   UNL     1      35.497 -21.907 -18.746  0.00  0.00    -0.399 NA
ATOM     14  C   UNL     1      34.187 -22.044 -18.722  0.00  0.00    +0.210 C 
ATOM     15  C   UNL     1      35.809 -20.880 -19.609  0.00  0.00    +0.093 C 
ATOM     16  C   UNL     1      34.741 -20.268 -20.227  0.00  0.00    +0.082 C 
ATOM     17  C   UNL     1      37.211 -20.469 -19.888  0.00  0.00    +0.032 C 
ATOM     18  C   UNL     1      34.862 -19.124 -21.177  0.00  0.00    -0.059 C 
ATOM     19  C   UNL     1      37.247 -19.099 -20.605  0.00  0.00    -0.070 C 
ATOM     20  C   UNL     1      36.416 -17.799 -22.469  0.00  0.00    -0.101 C 
ATOM     21  H   UNL     1      36.410 -19.828 -22.307  0.00  0.00    -0.080 HD
ENDBRANCH   9  14
ENDBRANCH   1   8
BRANCH   2  23
ATOM     22  O   UNL     1      34.737 -23.822 -12.677  0.00  0.00    -0.269 OA
ATOM     23  N   UNL     1      33.975 -24.171 -14.838  0.00  0.00    -0.300 N 
ATOM     24  C   UNL     1      34.908 -24.243 -13.818  0.00  0.00    +0.259 C 
ATOM     25  H   UNL     1      34.207 -24.540 -15.721  0.00  0.00    +0.150 HD
BRANCH  24  28
ATOM     26 CL   UNL     1      41.091 -28.192 -16.233  0.00  0.00    -0.082 Cl
ATOM     27  N   UNL     1      37.421 -24.378 -13.760  0.00  0.00    -0.309 N 
ATOM     28  C   UNL     1      36.211 -24.863 -14.175  0.00  0.00    +0.102 C 
ATOM     29  C   UNL     1      36.442 -25.977 -14.948  0.00  0.00    +0.020 C 
ATOM     30  C   UNL     1      38.440 -25.162 -14.252  0.00  0.00    +0.048 C 
ATOM     31  C   UNL     1      37.850 -26.179 -15.006  0.00  0.00    +0.016 C 
ATOM     32  C   UNL     1      39.826 -25.050 -14.090  0.00  0.00    +0.015 C 
ATOM     33  C   UNL     1      38.680 -27.132 -15.629  0.00  0.00    +0.013 C 
ATOM     34  C   UNL     1      40.068 -27.033 -15.475  0.00  0.00    +0.058 C 
ATOM     35  C   UNL     1      40.630 -26.007 -14.717  0.00  0.00    +0.013 C 
ATOM     36  H   UNL     1      37.546 -23.585 -13.192  0.00  0.00    +0.152 HD
ENDBRANCH  24  28
ENDBRANCH   2  23
TORSDOF 4
ENDMDL
MODEL 3
REMARK VINA RESULT:     -11.5      3.040      7.520
REMARK  Name = 24752833
REMARK  4 active torsions:
REMARK  status: ('A' for Active; 'I' for Inactive)
REMARK    1  A    between atoms: C_1  and  N_8
REMARK    2  A    between atoms: C_2  and  N_23
REMARK    3  A    between atoms: C_9  and  C_14
REMARK    4  A    between atoms: C_24  and  C_28
REMARK                            x       y       z     vdW  Elec       q    Type
REMARK                         _______ _______ _______ _____ _____    ______ ____
ROOT
ATOM      1  C   UNL     1      31.090 -22.901 -16.386  0.00  0.00    +0.090 C 
ATOM      2  C   UNL     1      31.481 -22.615 -14.925  0.00  0.00    +0.090 C 
ATOM      3  C   UNL     1      29.621 -22.553 -16.648  0.00  0.00    +0.021 C 
ATOM      4  C   UNL     1      30.523 -23.292 -13.941  0.00  0.00    +0.021 C 
ATOM      5  C   UNL     1      28.684 -23.241 -15.661  0.00  0.00    +0.002 C 
ATOM      6  C   UNL     1      29.068 -22.927 -14.219  0.00  0.00    +0.002 C 
ENDROOT
BRANCH   1   8
ATOM      7  O   UNL     1      33.522 -23.843 -17.588  0.00  0.00    -0.267 OA
ATOM      8  N   UNL     1      31.938 -22.174 -17.305  0.00  0.00    -0.298 N 
ATOM      9  C   UNL     1      33.098 -22.718 -17.834  0.00  0.00    +0.282 C 
ATOM     10  H   UNL     1      31.681 -21.259 -17.565  0.00  0.00    +0.150 HD
BRANCH   9  14
ATOM     11  S   UNL     1      35.586 -21.742 -18.619  0.00  0.00    -0.074 S 
ATOM     12  N   UNL     1      36.421 -18.799 -21.289  0.00  0.00    +0.387 N 
ATOM     13  N   UNL     1      33.306 -21.088 -19.672  0.00  0.00    -0.399 NA
ATOM     14  C   UNL     1      33.871 -21.833 -18.744  0.00  0.00    +0.210 C 
ATOM     15  C   UNL     1      34.297 -20.398 -20.334  0.00  0.00    +0.093 C 
ATOM     16  C   UNL     1      35.583 -20.621 -19.895  0.00  0.00    +0.082 C 
ATOM     17  C   UNL     1      34.005 -19.443 -21.436  0.00  0.00    +0.032 C 
ATOM     18  C   UNL     1      36.798 -19.991 -20.491  0.00  0.00    -0.059 C 
ATOM     19  C   UNL     1      35.297 -19.087 -22.209  0.00  0.00    -0.070 C 
ATOM     20  C   UNL     1      37.578 -18.297 -22.028  0.00  0.00    -0.101 C 
ATOM     21  H   UNL     1      36.104 -18.077 -20.641  0.00  0.00    -0.080 HD
ENDBRANCH   9  14
ENDBRANCH   1   8
BRANCH   2  23
ATOM     22  O   UNL     1      32.325 -25.215 -14.049  0.00  0.00    -0.269 OA
ATOM     23  N   UNL     1      32.838 -23.039 -14.658  0.00  0.00    -0.300 N 
ATOM     24  C   UNL     1      33.146 -24.321 -14.237  0.00  0.00    +0.259 C 
ATOM     25  H   UNL     1      33.570 -22.392 -14.782  0.00  0.00    +0.150 HD
BRANCH  24  28
ATOM     26 CL   UNL     1      40.729 -25.764 -13.994  0.00  0.00    -0.082 Cl
ATOM     27  N   UNL     1      35.133 -24.664 -12.730  0.00  0.00    -0.309 N 
ATOM     28  C   UNL     1      34.585 -24.591 -13.982  0.00  0.00    +0.102 C 
ATOM     29  C   UNL     1      35.588 -24.806 -14.898  0.00  0.00    +0.020 C 
ATOM     30  C   UNL     1      36.482 -24.924 -12.817  0.00  0.00    +0.048 C 
ATOM     31  C   UNL     1      36.796 -25.019 -14.175  0.00  0.00    +0.016 C 
ATOM     32  C   UNL     1      37.439 -25.080 -11.809  0.00  0.00    +0.015 C 
ATOM     33  C   UNL     1      38.129 -25.282 -14.547  0.00  0.00    +0.013 C 
ATOM     34  C   UNL     1      39.097 -25.442 -13.549  0.00  0.00    +0.058 C 
ATOM     35  C   UNL     1      38.756 -25.342 -12.201  0.00  0.00    +0.013 C 
ATOM     36  H   UNL     1      34.635 -24.548 -11.889  0.00  0.00    +0.152 HD
ENDBRANCH  24  28
ENDBRANCH   2  23
TORSDOF 4
ENDMDL
MODEL 4
REMARK VINA RESULT:     -10.2      1.909      2.697
REMARK  Name = 24752833
REMARK  4 active torsions:
REMARK  status: ('A' for Active; 'I' for Inactive)
REMARK    1  A    between atoms: C_1  and  N_8
REMARK    2  A    between atoms: C_2  and  N_23
REMARK    3  A    between atoms: C_9  and  C_14
REMARK    4  A    between atoms: C_24  and  C_28
REMARK                            x       y       z     vdW  Elec       q    Type
REMARK                         _______ _______ _______ _____ _____    ______ ____
ROOT
ATOM      1  C   UNL     1      30.719 -22.316 -14.920  0.00  0.00    +0.090 C 
ATOM      2  C   UNL     1      30.434 -22.748 -16.369  0.00  0.00    +0.090 C 
ATOM      3  C   UNL     1      29.725 -22.952 -13.942  0.00  0.00    +0.021 C 
ATOM      4  C   UNL     1      28.973 -22.496 -16.756  0.00  0.00    +0.021 C 
ATOM      5  C   UNL     1      28.277 -22.686 -14.342  0.00  0.00    +0.002 C 
ATOM      6  C   UNL     1      28.003 -23.142 -15.771  0.00  0.00    +0.002 C 
ENDROOT
BRANCH   1   8
ATOM      7  O   UNL     1      31.662 -24.881 -14.037  0.00  0.00    -0.267 OA
ATOM      8  N   UNL     1      32.072 -22.653 -14.532  0.00  0.00    -0.298 N 
ATOM      9  C   UNL     1      32.430 -23.926 -14.119  0.00  0.00    +0.282 C 
ATOM     10  H   UNL     1      32.763 -21.953 -14.564  0.00  0.00    +0.150 HD
BRANCH   9  14
ATOM     11  S   UNL     1      35.095 -24.043 -14.921  0.00  0.00    -0.074 S 
ATOM     12  N   UNL     1      38.358 -25.031 -12.717  0.00  0.00    +0.387 N 
ATOM     13  N   UNL     1      34.237 -24.315 -12.488  0.00  0.00    -0.399 NA
ATOM     14  C   UNL     1      33.853 -24.105 -13.730  0.00  0.00    +0.210 C 
ATOM     15  C   UNL     1      35.608 -24.434 -12.473  0.00  0.00    +0.093 C 
ATOM     16  C   UNL     1      36.235 -24.322 -13.694  0.00  0.00    +0.082 C 
ATOM     17  C   UNL     1      36.374 -24.698 -11.225  0.00  0.00    +0.032 C 
ATOM     18  C   UNL     1      37.713 -24.397 -13.892  0.00  0.00    -0.059 C 
ATOM     19  C   UNL     1      37.884 -24.440 -11.445  0.00  0.00    -0.070 C 
ATOM     20  C   UNL     1      39.813 -24.930 -12.822  0.00  0.00    -0.101 C 
ATOM     21  H   UNL     1      38.095 -26.017 -12.709  0.00  0.00    -0.080 HD
ENDBRANCH   9  14
ENDBRANCH   1   8
BRANCH   2  23
ATOM     22  O   UNL     1      32.954 -23.699 -17.364  0.00  0.00    -0.269 OA
ATOM     23  N   UNL     1      31.310 -22.066 -17.296  0.00  0.00    -0.300 N 
ATOM     24  C   UNL     1      32.512 -22.609 -17.718  0.00  0.00    +0.259 C 
ATOM     25  H   UNL     1      31.042 -21.183 -17.640  0.00  0.00    +0.150 HD
BRANCH  24  28
ATOM     26 CL   UNL     1      37.530 -18.671 -22.072  0.00  0.00    -0.082 Cl
ATOM     27  N   UNL     1      32.755 -20.963 -19.608  0.00  0.00    -0.309 N 
ATOM     28  C   UNL     1      33.309 -21.772 -18.652  0.00  0.00    +0.102 C 
ATOM     29  C   UNL     1      34.676 -21.654 -18.736  0.00  0.00    +0.020 C 
ATOM     30  C   UNL     1      33.745 -20.318 -20.314  0.00  0.00    +0.048 C 
ATOM     31  C   UNL     1      34.968 -20.736 -19.784  0.00  0.00    +0.016 C 
ATOM     32  C   UNL     1      33.653 -19.406 -21.372  0.00  0.00    +0.015 C 
ATOM     33  C   UNL     1      36.158 -20.220 -20.335  0.00  0.00    +0.013 C 
ATOM     34  C   UNL     1      36.081 -19.306 -21.392  0.00  0.00    +0.058 C 
ATOM     35  C   UNL     1      34.847 -18.907 -21.901  0.00  0.00    +0.013 C 
ATOM     36  H   UNL     1      31.790 -20.858 -19.766  0.00  0.00    +0.152 HD
ENDBRANCH  24  28
ENDBRANCH   2  23
TORSDOF 4
ENDMDL
MODEL 5
REMARK VINA RESULT:      -9.8      2.225      6.388
REMARK  Name = 24752833
REMARK  4 active torsions:
REMARK  status: ('A' for Active; 'I' for Inactive)
REMARK    1  A    between atoms: C_1  and  N_8
REMARK    2  A    between atoms: C_2  and  N_23
REMARK    3  A    between atoms: C_9  and  C_14
REMARK    4  A    between atoms: C_24  and  C_28
REMARK                            x       y       z     vdW  Elec       q    Type
REMARK                         _______ _______ _______ _____ _____    ______ ____
ROOT
ATOM      1  C   UNL     1      36.811 -25.226 -15.026  0.00  0.00    +0.090 C 
ATOM      2  C   UNL     1      37.654 -23.940 -14.941  0.00  0.00    +0.090 C 
ATOM      3  C   UNL     1      37.045 -26.128 -13.810  0.00  0.00    +0.021 C 
ATOM      4  C   UNL     1      39.135 -24.252 -14.705  0.00  0.00    +0.021 C 
ATOM      5  C   UNL     1      38.525 -26.429 -13.596  0.00  0.00    +0.002 C 
ATOM      6  C   UNL     1      39.343 -25.147 -13.488  0.00  0.00    +0.002 C 
ENDROOT
BRANCH   1   8
ATOM      7  O   UNL     1      35.088 -24.249 -12.948  0.00  0.00    -0.267 OA
ATOM      8  N   UNL     1      35.402 -24.918 -15.145  0.00  0.00    -0.298 N 
ATOM      9  C   UNL     1      34.653 -24.449 -14.078  0.00  0.00    +0.282 C 
ATOM     10  H   UNL     1      34.960 -25.047 -16.016  0.00  0.00    +0.150 HD
BRANCH   9  14
ATOM     11  S   UNL     1      32.695 -22.693 -14.996  0.00  0.00    -0.074 S 
ATOM     12  N   UNL     1      28.660 -23.144 -14.927  0.00  0.00    +0.387 N 
ATOM     13  N   UNL     1      32.277 -25.104 -14.134  0.00  0.00    -0.399 NA
ATOM     14  C   UNL     1      33.214 -24.205 -14.356  0.00  0.00    +0.210 C 
ATOM     15  C   UNL     1      31.063 -24.564 -14.497  0.00  0.00    +0.093 C 
ATOM     16  C   UNL     1      31.099 -23.273 -14.975  0.00  0.00    +0.082 C 
ATOM     17  C   UNL     1      29.783 -25.308 -14.358  0.00  0.00    +0.032 C 
ATOM     18  C   UNL     1      29.900 -22.515 -15.442  0.00  0.00    -0.059 C 
ATOM     19  C   UNL     1      28.654 -24.608 -15.149  0.00  0.00    -0.070 C 
ATOM     20  C   UNL     1      27.486 -22.524 -15.538  0.00  0.00    -0.101 C 
ATOM     21  H   UNL     1      28.627 -22.990 -13.918  0.00  0.00    -0.080 HD
ENDBRANCH   9  14
ENDBRANCH   1   8
BRANCH   2  23
ATOM     22  O   UNL     1      35.864 -21.727 -15.316  0.00  0.00    -0.269 OA
ATOM     23  N   UNL     1      37.505 -23.142 -16.138  0.00  0.00    -0.300 N 
ATOM     24  C   UNL     1      36.610 -22.089 -16.222  0.00  0.00    +0.259 C 
ATOM     25  H   UNL     1      38.062 -23.355 -16.922  0.00  0.00    +0.150 HD
BRANCH  24  28
ATOM     26 CL   UNL     1      35.514 -19.088 -23.253  0.00  0.00    -0.082 Cl
ATOM     27  N   UNL     1      37.404 -20.365 -17.875  0.00  0.00    -0.309 N 
ATOM     28  C   UNL     1      36.560 -21.385 -17.529  0.00  0.00    +0.102 C 
ATOM     29  C   UNL     1      35.705 -21.604 -18.584  0.00  0.00    +0.020 C 
ATOM     30  C   UNL     1      37.112 -19.916 -19.143  0.00  0.00    +0.048 C 
ATOM     31  C   UNL     1      36.042 -20.682 -19.614  0.00  0.00    +0.016 C 
ATOM     32  C   UNL     1      37.704 -18.900 -19.902  0.00  0.00    +0.015 C 
ATOM     33  C   UNL     1      35.539 -20.423 -20.904  0.00  0.00    +0.013 C 
ATOM     34  C   UNL     1      36.123 -19.411 -21.675  0.00  0.00    +0.058 C 
ATOM     35  C   UNL     1      37.189 -18.662 -21.179  0.00  0.00    +0.013 C 
ATOM     36  H   UNL     1      38.118 -20.005 -17.301  0.00  0.00    +0.152 HD
ENDBRANCH  24  28
ENDBRANCH   2  23
TORSDOF 4
ENDMDL
