MODEL 1
REMARK VINA RESULT:     -12.1      0.000      0.000
REMARK  Name = 3168
REMARK  6 active torsions:
REMARK  status: ('A' for Active; 'I' for Inactive)
REMARK    1  A    between atoms: N_1  and  C_19
REMARK    2  A    between atoms: C_5  and  N_9
REMARK    3  A    between atoms: C_19  and  C_20
REMARK    4  A    between atoms: C_20  and  C_21
REMARK    5  A    between atoms: C_21  and  C_23
REMARK    6  A    between atoms: C_23  and  C_25
REMARK                            x       y       z     vdW  Elec       q    Type
REMARK                         _______ _______ _______ _____ _____    ______ ____
ROOT
ATOM      1  N   UNL     1      35.013 -15.808 -24.561  0.00  0.00    +0.390 N 
ATOM      2  C   UNL     1      33.676 -15.427 -25.030  0.00  0.00    -0.071 C 
ATOM      3  C   UNL     1      33.524 -13.897 -25.022  0.00  0.00    +0.021 C 
ATOM      4  C   UNL     1      35.220 -15.383 -23.166  0.00  0.00    -0.049 C 
ATOM      5  C   UNL     1      34.039 -13.272 -23.756  0.00  0.00    +0.037 C 
ATOM      6  C   UNL     1      34.805 -13.962 -22.898  0.00  0.00    -0.036 C 
ATOM      7  H   UNL     1      35.698 -15.329 -25.146  0.00  0.00    -0.079 HD
ENDROOT
BRANCH   5   9
ATOM      8  O   UNL     1      34.760 -10.809 -25.296  0.00  0.00    -0.246 OA
ATOM      9  N   UNL     1      33.680 -11.977 -23.510  0.00  0.00    -0.263 N 
ATOM     10  N   UNL     1      33.457  -9.714 -23.660  0.00  0.00    -0.305 N 
ATOM     11  C   UNL     1      32.871 -11.534 -22.447  0.00  0.00    +0.083 A 
ATOM     12  C   UNL     1      34.062 -10.837 -24.291  0.00  0.00    +0.332 A 
ATOM     13  C   UNL     1      32.742 -10.150 -22.547  0.00  0.00    +0.076 A 
ATOM     14  C   UNL     1      32.260 -12.235 -21.427  0.00  0.00    +0.019 C 
ATOM     15  C   UNL     1      32.006  -9.406 -21.651  0.00  0.00    +0.019 C 
ATOM     16  C   UNL     1      31.508 -11.502 -20.503  0.00  0.00    +0.002 C 
ATOM     17  C   UNL     1      31.382 -10.102 -20.614  0.00  0.00    +0.002 C 
ATOM     18  H   UNL     1      33.532  -8.779 -23.962  0.00  0.00    +0.170 HD
ENDBRANCH   5   9
BRANCH   1  19
ATOM     19  C   UNL     1      35.229 -17.247 -24.701  0.00  0.00    -0.076 C 
BRANCH  19  20
ATOM     20  C   UNL     1      34.565 -17.995 -23.544  0.00  0.00    -0.015 C 
BRANCH  20  21
ATOM     21  C   UNL     1      35.480 -19.068 -22.945  0.00  0.00    +0.067 C 
BRANCH  21  23
ATOM     22  O   UNL     1      36.281 -17.988 -20.941  0.00  0.00    -0.291 OA
ATOM     23  C   UNL     1      35.670 -18.930 -21.442  0.00  0.00    +0.173 C 
BRANCH  23  25
ATOM     24  F   UNL     1      33.443 -22.802 -18.091  0.00  0.00    -0.204 F 
ATOM     25  C   UNL     1      35.076 -19.965 -20.548  0.00  0.00    +0.035 C 
ATOM     26  C   UNL     1      33.705 -20.069 -20.479  0.00  0.00    +0.005 C 
ATOM     27  C   UNL     1      35.920 -20.777 -19.824  0.00  0.00    +0.005 C 
ATOM     28  C   UNL     1      33.148 -21.036 -19.641  0.00  0.00    +0.030 C 
ATOM     29  C   UNL     1      35.364 -21.744 -18.986  0.00  0.00    +0.030 C 
ATOM     30  C   UNL     1      33.977 -21.873 -18.895  0.00  0.00    +0.140 C 
ENDBRANCH  23  25
ENDBRANCH  21  23
ENDBRANCH  20  21
ENDBRANCH  19  20
ENDBRANCH   1  19
TORSDOF 6
ENDMDL
MODEL 2
REMARK VINA RESULT:     -11.7      3.886      9.750
REMARK  Name = 3168
REMARK  6 active torsions:
REMARK  status: ('A' for Active; 'I' for Inactive)
REMARK    1  A    between atoms: N_1  and  C_19
REMARK    2  A    between atoms: C_5  and  N_9
REMARK    3  A    between atoms: C_19  and  C_20
REMARK    4  A    between atoms: C_20  and  C_21
REMARK    5  A    between atoms: C_21  and  C_23
REMARK    6  A    between atoms: C_23  and  C_25
REMARK                            x       y       z     vdW  Elec       q    Type
REMARK                         _______ _______ _______ _____ _____    ______ ____
ROOT
ATOM      1  N   UNL     1      34.312 -15.803 -23.785  0.00  0.00    +0.390 N 
ATOM      2  C   UNL     1      35.085 -16.870 -24.432  0.00  0.00    -0.071 C 
ATOM      3  C   UNL     1      35.124 -18.118 -23.536  0.00  0.00    +0.021 C 
ATOM      4  C   UNL     1      34.950 -15.384 -22.526  0.00  0.00    -0.049 C 
ATOM      5  C   UNL     1      35.426 -17.790 -22.100  0.00  0.00    +0.037 C 
ATOM      6  C   UNL     1      35.360 -16.531 -21.644  0.00  0.00    -0.036 C 
ATOM      7  H   UNL     1      33.388 -16.176 -23.567  0.00  0.00    -0.079 HD
ENDROOT
BRANCH   5   9
ATOM      8  O   UNL     1      38.170 -18.640 -21.264  0.00  0.00    -0.246 OA
ATOM      9  N   UNL     1      35.786 -18.827 -21.287  0.00  0.00    -0.263 N 
ATOM     10  N   UNL     1      37.011 -20.314 -20.070  0.00  0.00    -0.305 N 
ATOM     11  C   UNL     1      34.905 -19.729 -20.661  0.00  0.00    +0.083 A 
ATOM     12  C   UNL     1      37.127 -19.182 -20.924  0.00  0.00    +0.332 A 
ATOM     13  C   UNL     1      35.663 -20.633 -19.921  0.00  0.00    +0.076 A 
ATOM     14  C   UNL     1      33.528 -19.811 -20.694  0.00  0.00    +0.019 C 
ATOM     15  C   UNL     1      35.096 -21.651 -19.185  0.00  0.00    +0.019 C 
ATOM     16  C   UNL     1      32.927 -20.837 -19.956  0.00  0.00    +0.002 C 
ATOM     17  C   UNL     1      33.703 -21.747 -19.209  0.00  0.00    +0.002 C 
ATOM     18  H   UNL     1      37.762 -20.795 -19.652  0.00  0.00    +0.170 HD
ENDBRANCH   5   9
BRANCH   1  19
ATOM     19  C   UNL     1      34.138 -14.662 -24.682  0.00  0.00    -0.076 C 
BRANCH  19  20
ATOM     20  C   UNL     1      33.421 -13.524 -23.956  0.00  0.00    -0.015 C 
BRANCH  20  21
ATOM     21  C   UNL     1      34.362 -12.364 -23.620  0.00  0.00    +0.067 C 
BRANCH  21  23
ATOM     22  O   UNL     1      34.193 -11.393 -25.824  0.00  0.00    -0.291 OA
ATOM     23  C   UNL     1      34.279 -11.212 -24.612  0.00  0.00    +0.173 C 
BRANCH  23  25
ATOM     24  F   UNL     1      34.302  -5.987 -22.643  0.00  0.00    -0.204 F 
ATOM     25  C   UNL     1      34.284  -9.816 -24.087  0.00  0.00    +0.035 C 
ATOM     26  C   UNL     1      35.389  -9.028 -24.318  0.00  0.00    +0.005 C 
ATOM     27  C   UNL     1      33.185  -9.368 -23.390  0.00  0.00    +0.005 C 
ATOM     28  C   UNL     1      35.396  -7.723 -23.825  0.00  0.00    +0.030 C 
ATOM     29  C   UNL     1      33.191  -8.062 -22.897  0.00  0.00    +0.030 C 
ATOM     30  C   UNL     1      34.297  -7.240 -23.115  0.00  0.00    +0.140 C 
ENDBRANCH  23  25
ENDBRANCH  21  23
ENDBRANCH  20  21
ENDBRANCH  19  20
ENDBRANCH   1  19
TORSDOF 6
ENDMDL
MODEL 3
REMARK VINA RESULT:     -11.7      1.345      2.567
REMARK  Name = 3168
REMARK  6 active torsions:
REMARK  status: ('A' for Active; 'I' for Inactive)
REMARK    1  A    between atoms: N_1  and  C_19
REMARK    2  A    between atoms: C_5  and  N_9
REMARK    3  A    between atoms: C_19  and  C_20
REMARK    4  A    between atoms: C_20  and  C_21
REMARK    5  A    between atoms: C_21  and  C_23
REMARK    6  A    between atoms: C_23  and  C_25
REMARK                            x       y       z     vdW  Elec       q    Type
REMARK                         _______ _______ _______ _____ _____    ______ ____
ROOT
ATOM      1  N   UNL     1      34.342 -15.962 -24.096  0.00  0.00    +0.390 N 
ATOM      2  C   UNL     1      35.341 -15.244 -23.294  0.00  0.00    -0.071 C 
ATOM      3  C   UNL     1      34.707 -14.010 -22.634  0.00  0.00    +0.021 C 
ATOM      4  C   UNL     1      33.848 -15.117 -25.196  0.00  0.00    -0.049 C 
ATOM      5  C   UNL     1      33.855 -13.218 -23.586  0.00  0.00    +0.037 C 
ATOM      6  C   UNL     1      33.476 -13.724 -24.769  0.00  0.00    -0.036 C 
ATOM      7  H   UNL     1      33.556 -16.187 -23.486  0.00  0.00    -0.079 HD
ENDROOT
BRANCH   5   9
ATOM      8  O   UNL     1      31.711 -12.383 -21.674  0.00  0.00    -0.246 OA
ATOM      9  N   UNL     1      33.500 -11.956 -23.202  0.00  0.00    -0.263 N 
ATOM     10  N   UNL     1      32.455 -10.203 -22.189  0.00  0.00    -0.305 N 
ATOM     11  C   UNL     1      34.095 -10.760 -23.647  0.00  0.00    +0.083 A 
ATOM     12  C   UNL     1      32.457 -11.623 -22.277  0.00  0.00    +0.332 A 
ATOM     13  C   UNL     1      33.449  -9.695 -23.022  0.00  0.00    +0.076 A 
ATOM     14  C   UNL     1      35.131 -10.546 -24.533  0.00  0.00    +0.019 C 
ATOM     15  C   UNL     1      33.798  -8.381 -23.245  0.00  0.00    +0.019 C 
ATOM     16  C   UNL     1      35.504  -9.219 -24.778  0.00  0.00    +0.002 C 
ATOM     17  C   UNL     1      34.844  -8.149 -24.140  0.00  0.00    +0.002 C 
ATOM     18  H   UNL     1      31.848  -9.665 -21.629  0.00  0.00    +0.170 HD
ENDBRANCH   5   9
BRANCH   1  19
ATOM     19  C   UNL     1      34.886 -17.218 -24.611  0.00  0.00    -0.076 C 
BRANCH  19  20
ATOM     20  C   UNL     1      34.457 -18.384 -23.720  0.00  0.00    -0.015 C 
BRANCH  20  21
ATOM     21  C   UNL     1      35.639 -19.009 -22.972  0.00  0.00    +0.067 C 
BRANCH  21  23
ATOM     22  O   UNL     1      35.956 -17.740 -20.942  0.00  0.00    -0.291 OA
ATOM     23  C   UNL     1      35.585 -18.788 -21.466  0.00  0.00    +0.173 C 
BRANCH  23  25
ATOM     24  F   UNL     1      33.568 -22.874 -18.240  0.00  0.00    -0.204 F 
ATOM     25  C   UNL     1      35.046 -19.878 -20.604  0.00  0.00    +0.035 C 
ATOM     26  C   UNL     1      35.933 -20.694 -19.939  0.00  0.00    +0.005 C 
ATOM     27  C   UNL     1      33.681 -20.029 -20.505  0.00  0.00    +0.005 C 
ATOM     28  C   UNL     1      35.430 -21.716 -19.133  0.00  0.00    +0.030 C 
ATOM     29  C   UNL     1      33.177 -21.051 -19.700  0.00  0.00    +0.030 C 
ATOM     30  C   UNL     1      34.052 -21.894 -19.013  0.00  0.00    +0.140 C 
ENDBRANCH  23  25
ENDBRANCH  21  23
ENDBRANCH  20  21
ENDBRANCH  19  20
ENDBRANCH   1  19
TORSDOF 6
ENDMDL
MODEL 4
REMARK VINA RESULT:     -11.1      3.199      5.871
REMARK  Name = 3168
REMARK  6 active torsions:
REMARK  status: ('A' for Active; 'I' for Inactive)
REMARK    1  A    between atoms: N_1  and  C_19
REMARK    2  A    between atoms: C_5  and  N_9
REMARK    3  A    between atoms: C_19  and  C_20
REMARK    4  A    between atoms: C_20  and  C_21
REMARK    5  A    between atoms: C_21  and  C_23
REMARK    6  A    between atoms: C_23  and  C_25
REMARK                            x       y       z     vdW  Elec       q    Type
REMARK                         _______ _______ _______ _____ _____    ______ ____
ROOT
ATOM      1  N   UNL     1      36.077 -19.927 -19.880  0.00  0.00    +0.390 N 
ATOM      2  C   UNL     1      37.187 -19.501 -20.741  0.00  0.00    -0.071 C 
ATOM      3  C   UNL     1      36.851 -18.163 -21.420  0.00  0.00    +0.021 C 
ATOM      4  C   UNL     1      34.859 -20.164 -20.674  0.00  0.00    -0.049 C 
ATOM      5  C   UNL     1      35.460 -18.135 -21.986  0.00  0.00    +0.037 C 
ATOM      6  C   UNL     1      34.552 -19.065 -21.654  0.00  0.00    -0.036 C 
ATOM      7  H   UNL     1      35.886 -19.173 -19.220  0.00  0.00    -0.079 HD
ENDROOT
BRANCH   5   9
ATOM      8  O   UNL     1      35.218 -18.278 -24.966  0.00  0.00    -0.246 OA
ATOM      9  N   UNL     1      35.166 -17.133 -22.866  0.00  0.00    -0.263 N 
ATOM     10  N   UNL     1      34.743 -15.973 -24.782  0.00  0.00    -0.305 N 
ATOM     11  C   UNL     1      34.909 -15.790 -22.531  0.00  0.00    +0.083 A 
ATOM     12  C   UNL     1      35.065 -17.269 -24.290  0.00  0.00    +0.332 A 
ATOM     13  C   UNL     1      34.652 -15.090 -23.708  0.00  0.00    +0.076 A 
ATOM     14  C   UNL     1      34.886 -15.157 -21.305  0.00  0.00    +0.019 C 
ATOM     15  C   UNL     1      34.363 -13.743 -23.723  0.00  0.00    +0.019 C 
ATOM     16  C   UNL     1      34.595 -13.788 -21.293  0.00  0.00    +0.002 C 
ATOM     17  C   UNL     1      34.336 -13.089 -22.490  0.00  0.00    +0.002 C 
ATOM     18  H   UNL     1      34.606 -15.738 -25.729  0.00  0.00    +0.170 HD
ENDBRANCH   5   9
BRANCH   1  19
ATOM     19  C   UNL     1      36.434 -21.119 -19.113  0.00  0.00    -0.076 C 
BRANCH  19  20
ATOM     20  C   UNL     1      35.274 -22.115 -19.113  0.00  0.00    -0.015 C 
BRANCH  20  21
ATOM     21  C   UNL     1      34.749 -22.397 -17.702  0.00  0.00    +0.067 C 
BRANCH  21  23
ATOM     22  O   UNL     1      32.516 -22.076 -18.561  0.00  0.00    -0.291 OA
ATOM     23  C   UNL     1      33.230 -22.382 -17.608  0.00  0.00    +0.173 C 
BRANCH  23  25
ATOM     24  F   UNL     1      30.836 -23.846 -12.781  0.00  0.00    -0.204 F 
ATOM     25  C   UNL     1      32.590 -22.771 -16.319  0.00  0.00    +0.035 C 
ATOM     26  C   UNL     1      33.398 -23.116 -15.259  0.00  0.00    +0.005 C 
ATOM     27  C   UNL     1      31.216 -22.774 -16.237  0.00  0.00    +0.005 C 
ATOM     28  C   UNL     1      32.800 -23.482 -14.053  0.00  0.00    +0.030 C 
ATOM     29  C   UNL     1      30.617 -23.140 -15.032  0.00  0.00    +0.030 C 
ATOM     30  C   UNL     1      31.410 -23.495 -13.939  0.00  0.00    +0.140 C 
ENDBRANCH  23  25
ENDBRANCH  21  23
ENDBRANCH  20  21
ENDBRANCH  19  20
ENDBRANCH   1  19
TORSDOF 6
ENDMDL
MODEL 5
REMARK VINA RESULT:     -10.8      1.510      2.317
REMARK  Name = 3168
REMARK  6 active torsions:
REMARK  status: ('A' for Active; 'I' for Inactive)
REMARK    1  A    between atoms: N_1  and  C_19
REMARK    2  A    between atoms: C_5  and  N_9
REMARK    3  A    between atoms: C_19  and  C_20
REMARK    4  A    between atoms: C_20  and  C_21
REMARK    5  A    between atoms: C_21  and  C_23
REMARK    6  A    between atoms: C_23  and  C_25
REMARK                            x       y       z     vdW  Elec       q    Type
REMARK                         _______ _______ _______ _____ _____    ______ ____
ROOT
ATOM      1  N   UNL     1      33.550 -14.336 -24.616  0.00  0.00    +0.390 N 
ATOM      2  C   UNL     1      34.583 -13.986 -23.634  0.00  0.00    -0.071 C 
ATOM      3  C   UNL     1      34.422 -12.523 -23.190  0.00  0.00    +0.021 C 
ATOM      4  C   UNL     1      33.686 -13.520 -25.834  0.00  0.00    -0.049 C 
ATOM      5  C   UNL     1      34.191 -11.590 -24.345  0.00  0.00    +0.037 C 
ATOM      6  C   UNL     1      33.869 -12.052 -25.562  0.00  0.00    -0.036 C 
ATOM      7  H   UNL     1      32.642 -14.138 -24.198  0.00  0.00    -0.079 HD
ENDROOT
BRANCH   5   9
ATOM      8  O   UNL     1      36.272  -9.722 -25.411  0.00  0.00    -0.246 OA
ATOM      9  N   UNL     1      34.340 -10.254 -24.105  0.00  0.00    -0.263 N 
ATOM     10  N   UNL     1      35.119  -8.112 -24.126  0.00  0.00    -0.305 N 
ATOM     11  C   UNL     1      33.513  -9.466 -23.281  0.00  0.00    +0.083 A 
ATOM     12  C   UNL     1      35.364  -9.412 -24.650  0.00  0.00    +0.332 A 
ATOM     13  C   UNL     1      33.998  -8.160 -23.300  0.00  0.00    +0.076 A 
ATOM     14  C   UNL     1      32.401  -9.803 -22.537  0.00  0.00    +0.019 C 
ATOM     15  C   UNL     1      33.407  -7.138 -22.590  0.00  0.00    +0.019 C 
ATOM     16  C   UNL     1      31.782  -8.782 -21.806  0.00  0.00    +0.002 C 
ATOM     17  C   UNL     1      32.281  -7.464 -21.833  0.00  0.00    +0.002 C 
ATOM     18  H   UNL     1      35.656  -7.308 -24.316  0.00  0.00    +0.170 HD
ENDBRANCH   5   9
BRANCH   1  19
ATOM     19  C   UNL     1      33.596 -15.761 -24.941  0.00  0.00    -0.076 C 
BRANCH  19  20
ATOM     20  C   UNL     1      34.952 -16.349 -24.548  0.00  0.00    -0.015 C 
BRANCH  20  21
ATOM     21  C   UNL     1      34.812 -17.624 -23.710  0.00  0.00    +0.067 C 
BRANCH  21  23
ATOM     22  O   UNL     1      35.595 -16.366 -21.805  0.00  0.00    -0.291 OA
ATOM     23  C   UNL     1      35.297 -17.461 -22.277  0.00  0.00    +0.173 C 
BRANCH  23  25
ATOM     24  F   UNL     1      35.657 -21.995 -19.039  0.00  0.00    -0.204 F 
ATOM     25  C   UNL     1      35.394 -18.672 -21.413  0.00  0.00    +0.035 C 
ATOM     26  C   UNL     1      34.240 -19.358 -21.106  0.00  0.00    +0.005 C 
ATOM     27  C   UNL     1      36.633 -19.060 -20.954  0.00  0.00    +0.005 C 
ATOM     28  C   UNL     1      34.330 -20.490 -20.296  0.00  0.00    +0.030 C 
ATOM     29  C   UNL     1      36.723 -20.192 -20.144  0.00  0.00    +0.030 C 
ATOM     30  C   UNL     1      35.571 -20.908 -19.815  0.00  0.00    +0.140 C 
ENDBRANCH  23  25
ENDBRANCH  21  23
ENDBRANCH  20  21
ENDBRANCH  19  20
ENDBRANCH   1  19
TORSDOF 6
ENDMDL
MODEL 6
REMARK VINA RESULT:     -10.7      2.111      3.090
REMARK  Name = 3168
REMARK  6 active torsions:
REMARK  status: ('A' for Active; 'I' for Inactive)
REMARK    1  A    between atoms: N_1  and  C_19
REMARK    2  A    between atoms: C_5  and  N_9
REMARK    3  A    between atoms: C_19  and  C_20
REMARK    4  A    between atoms: C_20  and  C_21
REMARK    5  A    between atoms: C_21  and  C_23
REMARK    6  A    between atoms: C_23  and  C_25
REMARK                            x       y       z     vdW  Elec       q    Type
REMARK                         _______ _______ _______ _____ _____    ______ ____
ROOT
ATOM      1  N   UNL     1      34.670 -13.901 -23.365  0.00  0.00    +0.390 N 
ATOM      2  C   UNL     1      34.041 -13.307 -24.551  0.00  0.00    -0.071 C 
ATOM      3  C   UNL     1      33.940 -11.781 -24.392  0.00  0.00    +0.021 C 
ATOM      4  C   UNL     1      33.849 -13.667 -22.164  0.00  0.00    -0.049 C 
ATOM      5  C   UNL     1      33.433 -11.373 -23.037  0.00  0.00    +0.037 C 
ATOM      6  C   UNL     1      33.378 -12.246 -22.021  0.00  0.00    -0.036 C 
ATOM      7  H   UNL     1      35.572 -13.447 -23.229  0.00  0.00    -0.079 HD
ENDROOT
BRANCH   5   9
ATOM      8  O   UNL     1      30.863 -10.359 -21.890  0.00  0.00    -0.246 OA
ATOM      9  N   UNL     1      33.016 -10.081 -22.892  0.00  0.00    -0.263 N 
ATOM     10  N   UNL     1      31.774  -8.238 -22.386  0.00  0.00    -0.305 N 
ATOM     11  C   UNL     1      33.741  -8.933 -23.267  0.00  0.00    +0.083 A 
ATOM     12  C   UNL     1      31.766  -9.660 -22.332  0.00  0.00    +0.332 A 
ATOM     13  C   UNL     1      32.973  -7.813 -22.954  0.00  0.00    +0.076 A 
ATOM     14  C   UNL     1      34.987  -8.804 -23.846  0.00  0.00    +0.019 C 
ATOM     15  C   UNL     1      33.402  -6.527 -23.197  0.00  0.00    +0.019 C 
ATOM     16  C   UNL     1      35.445  -7.508 -24.104  0.00  0.00    +0.002 C 
ATOM     17  C   UNL     1      34.661  -6.381 -23.783  0.00  0.00    +0.002 C 
ATOM     18  H   UNL     1      31.049  -7.649 -22.073  0.00  0.00    +0.170 HD
ENDBRANCH   5   9
BRANCH   1  19
ATOM     19  C   UNL     1      34.909 -15.330 -23.557  0.00  0.00    -0.076 C 
BRANCH  19  20
ATOM     20  C   UNL     1      35.180 -16.007 -22.212  0.00  0.00    -0.015 C 
BRANCH  20  21
ATOM     21  C   UNL     1      35.907 -17.345 -22.371  0.00  0.00    +0.067 C 
BRANCH  21  23
ATOM     22  O   UNL     1      34.291 -18.744 -23.492  0.00  0.00    -0.291 OA
ATOM     23  C   UNL     1      34.965 -18.535 -22.486  0.00  0.00    +0.173 C 
BRANCH  23  25
ATOM     24  F   UNL     1      34.625 -22.105 -18.207  0.00  0.00    -0.204 F 
ATOM     25  C   UNL     1      34.873 -19.487 -21.342  0.00  0.00    +0.035 C 
ATOM     26  C   UNL     1      36.039 -19.964 -20.785  0.00  0.00    +0.005 C 
ATOM     27  C   UNL     1      33.628 -19.856 -20.887  0.00  0.00    +0.005 C 
ATOM     28  C   UNL     1      35.954 -20.856 -19.716  0.00  0.00    +0.030 C 
ATOM     29  C   UNL     1      33.542 -20.749 -19.818  0.00  0.00    +0.030 C 
ATOM     30  C   UNL     1      34.706 -21.249 -19.233  0.00  0.00    +0.140 C 
ENDBRANCH  23  25
ENDBRANCH  21  23
ENDBRANCH  20  21
ENDBRANCH  19  20
ENDBRANCH   1  19
TORSDOF 6
ENDMDL
MODEL 7
REMARK VINA RESULT:     -10.7      5.399     11.031
REMARK  Name = 3168
REMARK  6 active torsions:
REMARK  status: ('A' for Active; 'I' for Inactive)
REMARK    1  A    between atoms: N_1  and  C_19
REMARK    2  A    between atoms: C_5  and  N_9
REMARK    3  A    between atoms: C_19  and  C_20
REMARK    4  A    between atoms: C_20  and  C_21
REMARK    5  A    between atoms: C_21  and  C_23
REMARK    6  A    between atoms: C_23  and  C_25
REMARK                            x       y       z     vdW  Elec       q    Type
REMARK                         _______ _______ _______ _____ _____    ______ ____
ROOT
ATOM      1  N   UNL     1      35.313 -20.975 -19.038  0.00  0.00    +0.390 N 
ATOM      2  C   UNL     1      34.438 -22.118 -19.325  0.00  0.00    -0.071 C 
ATOM      3  C   UNL     1      33.799 -22.638 -18.027  0.00  0.00    +0.021 C 
ATOM      4  C   UNL     1      36.428 -21.374 -18.163  0.00  0.00    -0.049 C 
ATOM      5  C   UNL     1      34.789 -22.763 -16.904  0.00  0.00    +0.037 C 
ATOM      6  C   UNL     1      36.002 -22.194 -16.976  0.00  0.00    -0.036 C 
ATOM      7  H   UNL     1      34.758 -20.272 -18.550  0.00  0.00    -0.079 HD
ENDROOT
BRANCH   5   9
ATOM      8  O   UNL     1      36.346 -24.833 -15.405  0.00  0.00    -0.246 OA
ATOM      9  N   UNL     1      34.407 -23.494 -15.815  0.00  0.00    -0.263 N 
ATOM     10  N   UNL     1      34.399 -24.967 -14.077  0.00  0.00    -0.305 N 
ATOM     11  C   UNL     1      33.162 -23.412 -15.163  0.00  0.00    +0.083 A 
ATOM     12  C   UNL     1      35.205 -24.475 -15.141  0.00  0.00    +0.332 A 
ATOM     13  C   UNL     1      33.168 -24.316 -14.102  0.00  0.00    +0.076 A 
ATOM     14  C   UNL     1      32.058 -22.626 -15.424  0.00  0.00    +0.019 C 
ATOM     15  C   UNL     1      32.089 -24.481 -13.261  0.00  0.00    +0.019 C 
ATOM     16  C   UNL     1      30.949 -22.774 -14.584  0.00  0.00    +0.002 C 
ATOM     17  C   UNL     1      30.965 -23.692 -13.514  0.00  0.00    +0.002 C 
ATOM     18  H   UNL     1      34.668 -25.657 -13.427  0.00  0.00    +0.170 HD
ENDBRANCH   5   9
BRANCH   1  19
ATOM     19  C   UNL     1      35.814 -20.374 -20.273  0.00  0.00    -0.076 C 
BRANCH  19  20
ATOM     20  C   UNL     1      34.698 -19.600 -20.976  0.00  0.00    -0.015 C 
BRANCH  20  21
ATOM     21  C   UNL     1      34.974 -19.407 -22.469  0.00  0.00    +0.067 C 
BRANCH  21  23
ATOM     22  O   UNL     1      37.111 -18.302 -22.662  0.00  0.00    -0.291 OA
ATOM     23  C   UNL     1      35.889 -18.228 -22.767  0.00  0.00    +0.173 C 
BRANCH  23  25
ATOM     24  F   UNL     1      33.603 -13.426 -24.466  0.00  0.00    -0.204 F 
ATOM     25  C   UNL     1      35.278 -16.946 -23.219  0.00  0.00    +0.035 C 
ATOM     26  C   UNL     1      34.711 -16.891 -24.473  0.00  0.00    +0.005 C 
ATOM     27  C   UNL     1      35.303 -15.864 -22.369  0.00  0.00    +0.005 C 
ATOM     28  C   UNL     1      34.140 -15.691 -24.898  0.00  0.00    +0.030 C 
ATOM     29  C   UNL     1      34.733 -14.664 -22.793  0.00  0.00    +0.030 C 
ATOM     30  C   UNL     1      34.151 -14.577 -24.058  0.00  0.00    +0.140 C 
ENDBRANCH  23  25
ENDBRANCH  21  23
ENDBRANCH  20  21
ENDBRANCH  19  20
ENDBRANCH   1  19
TORSDOF 6
ENDMDL
MODEL 8
REMARK VINA RESULT:     -10.6      3.519      5.735
REMARK  Name = 3168
REMARK  6 active torsions:
REMARK  status: ('A' for Active; 'I' for Inactive)
REMARK    1  A    between atoms: N_1  and  C_19
REMARK    2  A    between atoms: C_5  and  N_9
REMARK    3  A    between atoms: C_19  and  C_20
REMARK    4  A    between atoms: C_20  and  C_21
REMARK    5  A    between atoms: C_21  and  C_23
REMARK    6  A    between atoms: C_23  and  C_25
REMARK                            x       y       z     vdW  Elec       q    Type
REMARK                         _______ _______ _______ _____ _____    ______ ____
ROOT
ATOM      1  N   UNL     1      33.932 -10.388 -24.320  0.00  0.00    +0.390 N 
ATOM      2  C   UNL     1      33.109 -10.499 -23.110  0.00  0.00    -0.071 C 
ATOM      3  C   UNL     1      32.450  -9.148 -22.788  0.00  0.00    +0.021 C 
ATOM      4  C   UNL     1      35.033  -9.431 -24.119  0.00  0.00    -0.049 C 
ATOM      5  C   UNL     1      33.409  -7.996 -22.893  0.00  0.00    +0.037 C 
ATOM      6  C   UNL     1      34.602  -8.134 -23.491  0.00  0.00    -0.036 C 
ATOM      7  H   UNL     1      33.338 -10.038 -25.071  0.00  0.00    -0.079 HD
ENDROOT
BRANCH   5   9
ATOM      8  O   UNL     1      33.276  -7.241 -20.001  0.00  0.00    -0.246 OA
ATOM      9  N   UNL     1      33.022  -6.810 -22.339  0.00  0.00    -0.263 N 
ATOM     10  N   UNL     1      32.519  -5.169 -20.839  0.00  0.00    -0.305 N 
ATOM     11  C   UNL     1      32.594  -5.670 -23.046  0.00  0.00    +0.083 A 
ATOM     12  C   UNL     1      32.980  -6.512 -20.938  0.00  0.00    +0.332 A 
ATOM     13  C   UNL     1      32.289  -4.674 -22.121  0.00  0.00    +0.076 A 
ATOM     14  C   UNL     1      32.457  -5.450 -24.402  0.00  0.00    +0.019 C 
ATOM     15  C   UNL     1      31.839  -3.426 -22.494  0.00  0.00    +0.019 C 
ATOM     16  C   UNL     1      32.001  -4.191 -24.807  0.00  0.00    +0.002 C 
ATOM     17  C   UNL     1      31.696  -3.190 -23.862  0.00  0.00    +0.002 C 
ATOM     18  H   UNL     1      32.383  -4.670 -20.001  0.00  0.00    +0.170 HD
ENDBRANCH   5   9
BRANCH   1  19
ATOM     19  C   UNL     1      34.448 -11.694 -24.726  0.00  0.00    -0.076 C 
BRANCH  19  20
ATOM     20  C   UNL     1      33.771 -12.803 -23.920  0.00  0.00    -0.015 C 
BRANCH  20  21
ATOM     21  C   UNL     1      34.754 -13.900 -23.501  0.00  0.00    +0.067 C 
BRANCH  21  23
ATOM     22  O   UNL     1      34.258 -15.202 -25.472  0.00  0.00    -0.291 OA
ATOM     23  C   UNL     1      34.589 -15.192 -24.289  0.00  0.00    +0.173 C 
BRANCH  23  25
ATOM     24  F   UNL     1      35.604 -20.042 -21.715  0.00  0.00    -0.204 F 
ATOM     25  C   UNL     1      34.858 -16.488 -23.601  0.00  0.00    +0.035 C 
ATOM     26  C   UNL     1      35.404 -16.463 -22.338  0.00  0.00    +0.005 C 
ATOM     27  C   UNL     1      34.553 -17.660 -24.256  0.00  0.00    +0.005 C 
ATOM     28  C   UNL     1      35.658 -17.675 -21.694  0.00  0.00    +0.030 C 
ATOM     29  C   UNL     1      34.807 -18.872 -23.614  0.00  0.00    +0.030 C 
ATOM     30  C   UNL     1      35.360 -18.879 -22.332  0.00  0.00    +0.140 C 
ENDBRANCH  23  25
ENDBRANCH  21  23
ENDBRANCH  20  21
ENDBRANCH  19  20
ENDBRANCH   1  19
TORSDOF 6
ENDMDL
MODEL 9
REMARK VINA RESULT:     -10.5      4.219      7.137
REMARK  Name = 3168
REMARK  6 active torsions:
REMARK  status: ('A' for Active; 'I' for Inactive)
REMARK    1  A    between atoms: N_1  and  C_19
REMARK    2  A    between atoms: C_5  and  N_9
REMARK    3  A    between atoms: C_19  and  C_20
REMARK    4  A    between atoms: C_20  and  C_21
REMARK    5  A    between atoms: C_21  and  C_23
REMARK    6  A    between atoms: C_23  and  C_25
REMARK                            x       y       z     vdW  Elec       q    Type
REMARK                         _______ _______ _______ _____ _____    ______ ____
ROOT
ATOM      1  N   UNL     1      32.335  -9.818 -20.581  0.00  0.00    +0.390 N 
ATOM      2  C   UNL     1      31.307  -9.668 -21.618  0.00  0.00    -0.071 C 
ATOM      3  C   UNL     1      31.692  -8.542 -22.591  0.00  0.00    +0.021 C 
ATOM      4  C   UNL     1      32.443  -8.595 -19.769  0.00  0.00    -0.049 C 
ATOM      5  C   UNL     1      32.176  -7.307 -21.884  0.00  0.00    +0.037 C 
ATOM      6  C   UNL     1      32.505  -7.332 -20.584  0.00  0.00    -0.036 C 
ATOM      7  H   UNL     1      33.229  -9.973 -21.047  0.00  0.00    -0.079 HD
ENDROOT
BRANCH   5   9
ATOM      8  O   UNL     1      30.318  -4.962 -21.872  0.00  0.00    -0.246 OA
ATOM      9  N   UNL     1      32.250  -6.158 -22.618  0.00  0.00    -0.263 N 
ATOM     10  N   UNL     1      31.802  -4.102 -23.494  0.00  0.00    -0.305 N 
ATOM     11  C   UNL     1      33.251  -5.841 -23.555  0.00  0.00    +0.083 A 
ATOM     12  C   UNL     1      31.322  -5.067 -22.565  0.00  0.00    +0.332 A 
ATOM     13  C   UNL     1      32.968  -4.584 -24.085  0.00  0.00    +0.076 A 
ATOM     14  C   UNL     1      34.359  -6.555 -23.966  0.00  0.00    +0.019 C 
ATOM     15  C   UNL     1      33.763  -3.982 -25.036  0.00  0.00    +0.019 C 
ATOM     16  C   UNL     1      35.182  -5.966 -24.932  0.00  0.00    +0.002 C 
ATOM     17  C   UNL     1      34.887  -4.693 -25.461  0.00  0.00    +0.002 C 
ATOM     18  H   UNL     1      31.379  -3.234 -23.688  0.00  0.00    +0.170 HD
ENDBRANCH   5   9
BRANCH   1  19
ATOM     19  C   UNL     1      32.061 -10.978 -19.734  0.00  0.00    -0.076 C 
BRANCH  19  20
ATOM     20  C   UNL     1      31.760 -12.204 -20.599  0.00  0.00    -0.015 C 
BRANCH  20  21
ATOM     21  C   UNL     1      33.020 -13.015 -20.916  0.00  0.00    +0.067 C 
BRANCH  21  23
ATOM     22  O   UNL     1      33.507 -11.767 -22.924  0.00  0.00    -0.291 OA
ATOM     23  C   UNL     1      33.496 -12.855 -22.353  0.00  0.00    +0.173 C 
BRANCH  23  25
ATOM     24  F   UNL     1      35.310 -17.372 -25.088  0.00  0.00    -0.204 F 
ATOM     25  C   UNL     1      33.982 -14.060 -23.083  0.00  0.00    +0.035 C 
ATOM     26  C   UNL     1      33.518 -14.291 -24.359  0.00  0.00    +0.005 C 
ATOM     27  C   UNL     1      34.874 -14.899 -22.455  0.00  0.00    +0.005 C 
ATOM     28  C   UNL     1      33.971 -15.420 -25.042  0.00  0.00    +0.030 C 
ATOM     29  C   UNL     1      35.327 -16.029 -23.137  0.00  0.00    +0.030 C 
ATOM     30  C   UNL     1      34.875 -16.289 -24.432  0.00  0.00    +0.140 C 
ENDBRANCH  23  25
ENDBRANCH  21  23
ENDBRANCH  20  21
ENDBRANCH  19  20
ENDBRANCH   1  19
TORSDOF 6
ENDMDL
