MODEL 1
REMARK VINA RESULT:     -11.9      0.000      0.000
REMARK  Name = 9799284
REMARK  5 active torsions:
REMARK  status: ('A' for Active; 'I' for Inactive)
REMARK    1  A    between atoms: N_1  and  C_19
REMARK    2  A    between atoms: C_2  and  C_8
REMARK    3  A    between atoms: C_8  and  N_10
REMARK    4  A    between atoms: C_19  and  C_21
REMARK    5  A    between atoms: C_21  and  C_23
REMARK                            x       y       z     vdW  Elec       q    Type
REMARK                         _______ _______ _______ _____ _____    ______ ____
ROOT
ATOM      1  N   UNL     1      34.377 -13.692 -23.363  0.00  0.00    +0.392 N 
ATOM      2  C   UNL     1      34.991 -16.544 -23.071  0.00  0.00    +0.016 C 
ATOM      3  C   UNL     1      34.915 -15.855 -24.437  0.00  0.00    -0.021 C 
ATOM      4  C   UNL     1      35.333 -15.514 -21.989  0.00  0.00    -0.021 C 
ATOM      5  C   UNL     1      33.974 -14.650 -24.402  0.00  0.00    -0.077 C 
ATOM      6  C   UNL     1      34.377 -14.320 -22.035  0.00  0.00    -0.077 C 
ATOM      7  H   UNL     1      35.329 -13.388 -23.568  0.00  0.00    -0.079 HD
ENDROOT
BRANCH   2   8
ATOM      8  C   UNL     1      36.007 -17.683 -23.085  0.00  0.00    +0.094 C 
BRANCH   8  10
ATOM      9  O   UNL     1      37.851 -19.019 -21.103  0.00  0.00    -0.270 OA
ATOM     10  N   UNL     1      35.719 -18.640 -22.058  0.00  0.00    -0.272 N 
ATOM     11  C   UNL     1      34.361 -19.135 -21.818  0.00  0.00    +0.121 C 
ATOM     12  C   UNL     1      36.651 -19.207 -21.180  0.00  0.00    +0.249 C 
ATOM     13  C   UNL     1      34.559 -20.080 -20.683  0.00  0.00    +0.002 C 
ATOM     14  C   UNL     1      35.903 -20.121 -20.311  0.00  0.00    +0.051 C 
ATOM     15  C   UNL     1      33.628 -20.855 -20.018  0.00  0.00    -0.002 C 
ATOM     16  C   UNL     1      36.369 -20.917 -19.283  0.00  0.00    +0.004 C 
ATOM     17  C   UNL     1      34.073 -21.671 -18.973  0.00  0.00    -0.000 C 
ATOM     18  C   UNL     1      35.432 -21.701 -18.608  0.00  0.00    +0.000 C 
ENDBRANCH   8  10
ENDBRANCH   2   8
BRANCH   1  19
ATOM     19  C   UNL     1      33.499 -12.523 -23.376  0.00  0.00    -0.006 C 
BRANCH  19  21
ATOM     20  O   UNL     1      34.215 -11.892 -25.593  0.00  0.00    -0.294 OA
ATOM     21  C   UNL     1      33.984 -11.550 -24.435  0.00  0.00    +0.152 C 
BRANCH  21  23
ATOM     22  F   UNL     1      34.741  -6.211 -22.986  0.00  0.00    -0.204 F 
ATOM     23  C   UNL     1      34.186 -10.121 -24.048  0.00  0.00    +0.033 C 
ATOM     24  C   UNL     1      33.211  -9.496 -23.306  0.00  0.00    +0.005 C 
ATOM     25  C   UNL     1      35.339  -9.487 -24.448  0.00  0.00    +0.005 C 
ATOM     26  C   UNL     1      33.400  -8.163 -22.943  0.00  0.00    +0.030 C 
ATOM     27  C   UNL     1      35.529  -8.155 -24.086  0.00  0.00    +0.030 C 
ATOM     28  C   UNL     1      34.559  -7.492 -23.333  0.00  0.00    +0.140 C 
ENDBRANCH  21  23
ENDBRANCH  19  21
ENDBRANCH   1  19
TORSDOF 5
ENDMDL
MODEL 2
REMARK VINA RESULT:     -11.4      3.472     10.179
REMARK  Name = 9799284
REMARK  5 active torsions:
REMARK  status: ('A' for Active; 'I' for Inactive)
REMARK    1  A    between atoms: N_1  and  C_19
REMARK    2  A    between atoms: C_2  and  C_8
REMARK    3  A    between atoms: C_8  and  N_10
REMARK    4  A    between atoms: C_19  and  C_21
REMARK    5  A    between atoms: C_21  and  C_23
REMARK                            x       y       z     vdW  Elec       q    Type
REMARK                         _______ _______ _______ _____ _____    ______ ____
ROOT
ATOM      1  N   UNL     1      34.440 -15.646 -23.706  0.00  0.00    +0.392 N 
ATOM      2  C   UNL     1      33.751 -12.848 -23.165  0.00  0.00    +0.016 C 
ATOM      3  C   UNL     1      33.267 -13.586 -24.418  0.00  0.00    -0.021 C 
ATOM      4  C   UNL     1      34.036 -13.856 -22.047  0.00  0.00    -0.021 C 
ATOM      5  C   UNL     1      34.235 -14.702 -24.814  0.00  0.00    -0.077 C 
ATOM      6  C   UNL     1      34.978 -14.963 -22.522  0.00  0.00    -0.077 C 
ATOM      7  H   UNL     1      33.532 -16.040 -23.457  0.00  0.00    -0.079 HD
ENDROOT
BRANCH   2   8
ATOM      8  C   UNL     1      32.733 -11.803 -22.716  0.00  0.00    +0.094 C 
BRANCH   8  10
ATOM      9  O   UNL     1      31.562  -9.130 -21.942  0.00  0.00    -0.270 OA
ATOM     10  N   UNL     1      33.207 -10.477 -22.980  0.00  0.00    -0.272 N 
ATOM     11  C   UNL     1      34.442 -10.231 -23.730  0.00  0.00    +0.121 C 
ATOM     12  C   UNL     1      32.589  -9.288 -22.575  0.00  0.00    +0.249 C 
ATOM     13  C   UNL     1      34.519  -8.743 -23.745  0.00  0.00    +0.002 C 
ATOM     14  C   UNL     1      33.430  -8.192 -23.067  0.00  0.00    +0.051 C 
ATOM     15  C   UNL     1      35.475  -7.922 -24.312  0.00  0.00    -0.002 C 
ATOM     16  C   UNL     1      33.250  -6.830 -22.927  0.00  0.00    +0.004 C 
ATOM     17  C   UNL     1      35.317  -6.538 -24.185  0.00  0.00    -0.000 C 
ATOM     18  C   UNL     1      34.214  -5.997 -23.498  0.00  0.00    +0.000 C 
ENDBRANCH   8  10
ENDBRANCH   2   8
BRANCH   1  19
ATOM     19  C   UNL     1      35.326 -16.734 -24.117  0.00  0.00    -0.006 C 
BRANCH  19  21
ATOM     20  O   UNL     1      33.809 -18.609 -24.201  0.00  0.00    -0.294 OA
ATOM     21  C   UNL     1      34.748 -18.053 -23.636  0.00  0.00    +0.152 C 
BRANCH  21  23
ATOM     22  F   UNL     1      36.994 -20.446 -19.120  0.00  0.00    -0.204 F 
ATOM     23  C   UNL     1      35.349 -18.694 -22.428  0.00  0.00    +0.033 C 
ATOM     24  C   UNL     1      36.662 -18.420 -22.123  0.00  0.00    +0.005 C 
ATOM     25  C   UNL     1      34.566 -19.531 -21.669  0.00  0.00    +0.005 C 
ATOM     26  C   UNL     1      37.224 -19.017 -20.994  0.00  0.00    +0.030 C 
ATOM     27  C   UNL     1      35.126 -20.128 -20.540  0.00  0.00    +0.030 C 
ATOM     28  C   UNL     1      36.455 -19.872 -20.203  0.00  0.00    +0.140 C 
ENDBRANCH  21  23
ENDBRANCH  19  21
ENDBRANCH   1  19
TORSDOF 5
ENDMDL
MODEL 3
REMARK VINA RESULT:     -11.4      3.545     10.287
REMARK  Name = 9799284
REMARK  5 active torsions:
REMARK  status: ('A' for Active; 'I' for Inactive)
REMARK    1  A    between atoms: N_1  and  C_19
REMARK    2  A    between atoms: C_2  and  C_8
REMARK    3  A    between atoms: C_8  and  N_10
REMARK    4  A    between atoms: C_19  and  C_21
REMARK    5  A    between atoms: C_21  and  C_23
REMARK                            x       y       z     vdW  Elec       q    Type
REMARK                         _______ _______ _______ _____ _____    ______ ____
ROOT
ATOM      1  N   UNL     1      34.968 -16.219 -22.249  0.00  0.00    +0.392 N 
ATOM      2  C   UNL     1      34.385 -13.648 -23.533  0.00  0.00    +0.016 C 
ATOM      3  C   UNL     1      34.517 -14.953 -24.326  0.00  0.00    -0.021 C 
ATOM      4  C   UNL     1      33.974 -13.959 -22.089  0.00  0.00    -0.021 C 
ATOM      5  C   UNL     1      35.437 -15.946 -23.615  0.00  0.00    -0.077 C 
ATOM      6  C   UNL     1      34.912 -14.986 -21.452  0.00  0.00    -0.077 C 
ATOM      7  H   UNL     1      34.023 -16.597 -22.310  0.00  0.00    -0.079 HD
ENDROOT
BRANCH   2   8
ATOM      8  C   UNL     1      33.389 -12.700 -24.195  0.00  0.00    +0.094 C 
BRANCH   8  10
ATOM      9  O   UNL     1      32.154 -10.698 -22.303  0.00  0.00    -0.270 OA
ATOM     10  N   UNL     1      33.736 -11.334 -23.944  0.00  0.00    -0.272 N 
ATOM     11  C   UNL     1      34.844 -10.674 -24.641  0.00  0.00    +0.121 C 
ATOM     12  C   UNL     1      33.098 -10.477 -23.038  0.00  0.00    +0.249 C 
ATOM     13  C   UNL     1      34.819  -9.302 -24.060  0.00  0.00    +0.002 C 
ATOM     14  C   UNL     1      33.794  -9.189 -23.121  0.00  0.00    +0.051 C 
ATOM     15  C   UNL     1      35.637  -8.223 -24.334  0.00  0.00    -0.002 C 
ATOM     16  C   UNL     1      33.544  -8.022 -22.427  0.00  0.00    +0.004 C 
ATOM     17  C   UNL     1      35.406  -7.028 -23.645  0.00  0.00    -0.000 C 
ATOM     18  C   UNL     1      34.368  -6.929 -22.699  0.00  0.00    +0.000 C 
ENDBRANCH   8  10
ENDBRANCH   2   8
BRANCH   1  19
ATOM     19  C   UNL     1      35.828 -17.209 -21.601  0.00  0.00    -0.006 C 
BRANCH  19  21
ATOM     20  O   UNL     1      35.434 -18.932 -23.244  0.00  0.00    -0.294 OA
ATOM     21  C   UNL     1      35.421 -18.597 -22.062  0.00  0.00    +0.152 C 
BRANCH  21  23
ATOM     22  F   UNL     1      33.811 -22.305 -18.212  0.00  0.00    -0.204 F 
ATOM     23  C   UNL     1      34.990 -19.589 -21.033  0.00  0.00    +0.033 C 
ATOM     24  C   UNL     1      35.958 -20.274 -20.333  0.00  0.00    +0.005 C 
ATOM     25  C   UNL     1      33.644 -19.780 -20.824  0.00  0.00    +0.005 C 
ATOM     26  C   UNL     1      35.556 -21.200 -19.371  0.00  0.00    +0.030 C 
ATOM     27  C   UNL     1      33.242 -20.705 -19.862  0.00  0.00    +0.030 C 
ATOM     28  C   UNL     1      34.197 -21.416 -19.136  0.00  0.00    +0.140 C 
ENDBRANCH  21  23
ENDBRANCH  19  21
ENDBRANCH   1  19
TORSDOF 5
ENDMDL
MODEL 4
REMARK VINA RESULT:     -11.3      3.809      9.992
REMARK  Name = 9799284
REMARK  5 active torsions:
REMARK  status: ('A' for Active; 'I' for Inactive)
REMARK    1  A    between atoms: N_1  and  C_19
REMARK    2  A    between atoms: C_2  and  C_8
REMARK    3  A    between atoms: C_8  and  N_10
REMARK    4  A    between atoms: C_19  and  C_21
REMARK    5  A    between atoms: C_21  and  C_23
REMARK                            x       y       z     vdW  Elec       q    Type
REMARK                         _______ _______ _______ _____ _____    ______ ____
ROOT
ATOM      1  N   UNL     1      34.491 -15.010 -23.141  0.00  0.00    +0.392 N 
ATOM      2  C   UNL     1      33.148 -12.640 -22.057  0.00  0.00    +0.016 C 
ATOM      3  C   UNL     1      32.887 -13.156 -23.477  0.00  0.00    -0.021 C 
ATOM      4  C   UNL     1      33.630 -13.791 -21.168  0.00  0.00    -0.021 C 
ATOM      5  C   UNL     1      34.102 -13.905 -24.028  0.00  0.00    -0.077 C 
ATOM      6  C   UNL     1      34.820 -14.520 -21.796  0.00  0.00    -0.077 C 
ATOM      7  H   UNL     1      33.695 -15.643 -23.059  0.00  0.00    -0.079 HD
ENDROOT
BRANCH   2   8
ATOM      8  C   UNL     1      31.901 -11.981 -21.474  0.00  0.00    +0.094 C 
BRANCH   8  10
ATOM      9  O   UNL     1      31.707 -10.181 -19.058  0.00  0.00    -0.270 OA
ATOM     10  N   UNL     1      32.072 -10.564 -21.365  0.00  0.00    -0.272 N 
ATOM     11  C   UNL     1      32.397  -9.731 -22.527  0.00  0.00    +0.121 C 
ATOM     12  C   UNL     1      31.962  -9.811 -20.190  0.00  0.00    +0.249 C 
ATOM     13  C   UNL     1      32.475  -8.366 -21.932  0.00  0.00    +0.002 C 
ATOM     14  C   UNL     1      32.219  -8.416 -20.562  0.00  0.00    +0.051 C 
ATOM     15  C   UNL     1      32.751  -7.160 -22.547  0.00  0.00    -0.002 C 
ATOM     16  C   UNL     1      32.227  -7.292 -19.760  0.00  0.00    +0.004 C 
ATOM     17  C   UNL     1      32.766  -6.005 -21.758  0.00  0.00    -0.000 C 
ATOM     18  C   UNL     1      32.506  -6.071 -20.376  0.00  0.00    +0.000 C 
ENDBRANCH   8  10
ENDBRANCH   2   8
BRANCH   1  19
ATOM     19  C   UNL     1      35.619 -15.748 -23.707  0.00  0.00    -0.006 C 
BRANCH  19  21
ATOM     20  O   UNL     1      34.699 -17.670 -24.840  0.00  0.00    -0.294 OA
ATOM     21  C   UNL     1      35.240 -17.213 -23.836  0.00  0.00    +0.152 C 
BRANCH  21  23
ATOM     22  F   UNL     1      36.359 -20.630 -19.565  0.00  0.00    -0.204 F 
ATOM     23  C   UNL     1      35.539 -18.128 -22.695  0.00  0.00    +0.033 C 
ATOM     24  C   UNL     1      36.804 -18.110 -22.152  0.00  0.00    +0.005 C 
ATOM     25  C   UNL     1      34.540 -18.950 -22.230  0.00  0.00    +0.005 C 
ATOM     26  C   UNL     1      37.083 -18.964 -21.084  0.00  0.00    +0.030 C 
ATOM     27  C   UNL     1      34.818 -19.803 -21.163  0.00  0.00    +0.030 C 
ATOM     28  C   UNL     1      36.090 -19.810 -20.590  0.00  0.00    +0.140 C 
ENDBRANCH  21  23
ENDBRANCH  19  21
ENDBRANCH   1  19
TORSDOF 5
ENDMDL
MODEL 5
REMARK VINA RESULT:     -11.3      4.666     10.815
REMARK  Name = 9799284
REMARK  5 active torsions:
REMARK  status: ('A' for Active; 'I' for Inactive)
REMARK    1  A    between atoms: N_1  and  C_19
REMARK    2  A    between atoms: C_2  and  C_8
REMARK    3  A    between atoms: C_8  and  N_10
REMARK    4  A    between atoms: C_19  and  C_21
REMARK    5  A    between atoms: C_21  and  C_23
REMARK                            x       y       z     vdW  Elec       q    Type
REMARK                         _______ _______ _______ _____ _____    ______ ____
ROOT
ATOM      1  N   UNL     1      35.506 -21.237 -19.460  0.00  0.00    +0.392 N 
ATOM      2  C   UNL     1      35.731 -19.046 -21.395  0.00  0.00    +0.016 C 
ATOM      3  C   UNL     1      36.946 -19.846 -20.913  0.00  0.00    -0.021 C 
ATOM      4  C   UNL     1      34.464 -19.897 -21.260  0.00  0.00    -0.021 C 
ATOM      5  C   UNL     1      36.720 -20.411 -19.510  0.00  0.00    -0.077 C 
ATOM      6  C   UNL     1      34.320 -20.460 -19.845  0.00  0.00    -0.077 C 
ATOM      7  H   UNL     1      35.615 -21.998 -20.131  0.00  0.00    -0.079 HD
ENDROOT
BRANCH   2   8
ATOM      8  C   UNL     1      35.922 -18.570 -22.833  0.00  0.00    +0.094 C 
BRANCH   8  10
ATOM      9  O   UNL     1      34.843 -17.185 -25.289  0.00  0.00    -0.270 OA
ATOM     10  N   UNL     1      35.437 -17.232 -22.998  0.00  0.00    -0.272 N 
ATOM     11  C   UNL     1      35.398 -16.278 -21.887  0.00  0.00    +0.121 C 
ATOM     12  C   UNL     1      34.952 -16.677 -24.189  0.00  0.00    +0.249 C 
ATOM     13  C   UNL     1      34.831 -15.059 -22.529  0.00  0.00    +0.002 C 
ATOM     14  C   UNL     1      34.570 -15.295 -23.879  0.00  0.00    +0.051 C 
ATOM     15  C   UNL     1      34.559 -13.823 -21.971  0.00  0.00    -0.002 C 
ATOM     16  C   UNL     1      34.039 -14.333 -24.716  0.00  0.00    +0.004 C 
ATOM     17  C   UNL     1      34.021 -12.831 -22.797  0.00  0.00    -0.000 C 
ATOM     18  C   UNL     1      33.763 -13.084 -24.157  0.00  0.00    +0.000 C 
ENDBRANCH   8  10
ENDBRANCH   2   8
BRANCH   1  19
ATOM     19  C   UNL     1      35.331 -21.812 -18.127  0.00  0.00    -0.006 C 
BRANCH  19  21
ATOM     20  O   UNL     1      33.894 -23.479 -19.117  0.00  0.00    -0.294 OA
ATOM     21  C   UNL     1      34.152 -22.767 -18.149  0.00  0.00    +0.152 C 
BRANCH  21  23
ATOM     22  F   UNL     1      30.876 -23.040 -13.636  0.00  0.00    -0.204 F 
ATOM     23  C   UNL     1      33.275 -22.841 -16.942  0.00  0.00    +0.033 C 
ATOM     24  C   UNL     1      33.840 -23.198 -15.739  0.00  0.00    +0.005 C 
ATOM     25  C   UNL     1      31.939 -22.549 -17.080  0.00  0.00    +0.005 C 
ATOM     26  C   UNL     1      33.022 -23.266 -14.611  0.00  0.00    +0.030 C 
ATOM     27  C   UNL     1      31.120 -22.616 -15.953  0.00  0.00    +0.030 C 
ATOM     28  C   UNL     1      31.661 -22.975 -14.719  0.00  0.00    +0.140 C 
ENDBRANCH  21  23
ENDBRANCH  19  21
ENDBRANCH   1  19
TORSDOF 5
ENDMDL
MODEL 6
REMARK VINA RESULT:     -11.1      3.735      6.846
REMARK  Name = 9799284
REMARK  5 active torsions:
REMARK  status: ('A' for Active; 'I' for Inactive)
REMARK    1  A    between atoms: N_1  and  C_19
REMARK    2  A    between atoms: C_2  and  C_8
REMARK    3  A    between atoms: C_8  and  N_10
REMARK    4  A    between atoms: C_19  and  C_21
REMARK    5  A    between atoms: C_21  and  C_23
REMARK                            x       y       z     vdW  Elec       q    Type
REMARK                         _______ _______ _______ _____ _____    ______ ____
ROOT
ATOM      1  N   UNL     1      35.602 -19.641 -21.048  0.00  0.00    +0.392 N 
ATOM      2  C   UNL     1      34.290 -21.466 -19.165  0.00  0.00    +0.016 C 
ATOM      3  C   UNL     1      33.525 -20.744 -20.280  0.00  0.00    -0.021 C 
ATOM      4  C   UNL     1      35.765 -21.609 -19.558  0.00  0.00    -0.021 C 
ATOM      5  C   UNL     1      34.203 -19.425 -20.656  0.00  0.00    -0.077 C 
ATOM      6  C   UNL     1      36.368 -20.262 -19.959  0.00  0.00    -0.077 C 
ATOM      7  H   UNL     1      35.612 -20.280 -21.843  0.00  0.00    -0.079 HD
ENDROOT
BRANCH   2   8
ATOM      8  C   UNL     1      33.668 -22.826 -18.863  0.00  0.00    +0.094 C 
BRANCH   8  10
ATOM      9  O   UNL     1      31.189 -22.066 -17.316  0.00  0.00    -0.270 OA
ATOM     10  N   UNL     1      33.376 -22.958 -17.467  0.00  0.00    -0.272 N 
ATOM     11  C   UNL     1      34.338 -23.538 -16.525  0.00  0.00    +0.121 C 
ATOM     12  C   UNL     1      32.186 -22.573 -16.837  0.00  0.00    +0.249 C 
ATOM     13  C   UNL     1      33.603 -23.467 -15.230  0.00  0.00    +0.002 C 
ATOM     14  C   UNL     1      32.342 -22.901 -15.416  0.00  0.00    +0.051 C 
ATOM     15  C   UNL     1      34.008 -23.870 -13.972  0.00  0.00    -0.002 C 
ATOM     16  C   UNL     1      31.447 -22.715 -14.380  0.00  0.00    +0.004 C 
ATOM     17  C   UNL     1      33.122 -23.693 -12.905  0.00  0.00    -0.000 C 
ATOM     18  C   UNL     1      31.852 -23.121 -13.108  0.00  0.00    +0.000 C 
ENDBRANCH   8  10
ENDBRANCH   2   8
BRANCH   1  19
ATOM     19  C   UNL     1      36.220 -18.380 -21.455  0.00  0.00    -0.006 C 
BRANCH  19  21
ATOM     20  O   UNL     1      36.034 -18.895 -23.805  0.00  0.00    -0.294 OA
ATOM     21  C   UNL     1      35.849 -18.087 -22.897  0.00  0.00    +0.152 C 
BRANCH  21  23
ATOM     22  F   UNL     1      33.558 -13.140 -24.099  0.00  0.00    -0.204 F 
ATOM     23  C   UNL     1      35.235 -16.764 -23.219  0.00  0.00    +0.033 C 
ATOM     24  C   UNL     1      35.235 -15.786 -22.250  0.00  0.00    +0.005 C 
ATOM     25  C   UNL     1      34.696 -16.575 -24.469  0.00  0.00    +0.005 C 
ATOM     26  C   UNL     1      34.663 -14.550 -22.551  0.00  0.00    +0.030 C 
ATOM     27  C   UNL     1      34.124 -15.340 -24.770  0.00  0.00    +0.030 C 
ATOM     28  C   UNL     1      34.107 -14.327 -23.811  0.00  0.00    +0.140 C 
ENDBRANCH  21  23
ENDBRANCH  19  21
ENDBRANCH   1  19
TORSDOF 5
ENDMDL
MODEL 7
REMARK VINA RESULT:     -10.7      2.305      2.870
REMARK  Name = 9799284
REMARK  5 active torsions:
REMARK  status: ('A' for Active; 'I' for Inactive)
REMARK    1  A    between atoms: N_1  and  C_19
REMARK    2  A    between atoms: C_2  and  C_8
REMARK    3  A    between atoms: C_8  and  N_10
REMARK    4  A    between atoms: C_19  and  C_21
REMARK    5  A    between atoms: C_21  and  C_23
REMARK                            x       y       z     vdW  Elec       q    Type
REMARK                         _______ _______ _______ _____ _____    ______ ____
ROOT
ATOM      1  N   UNL     1      33.631 -13.923 -23.079  0.00  0.00    +0.392 N 
ATOM      2  C   UNL     1      35.171 -16.176 -24.152  0.00  0.00    +0.016 C 
ATOM      3  C   UNL     1      35.034 -15.915 -22.648  0.00  0.00    -0.021 C 
ATOM      4  C   UNL     1      33.974 -15.570 -24.893  0.00  0.00    -0.021 C 
ATOM      5  C   UNL     1      34.807 -14.430 -22.359  0.00  0.00    -0.077 C 
ATOM      6  C   UNL     1      33.782 -14.096 -24.530  0.00  0.00    -0.077 C 
ATOM      7  H   UNL     1      32.821 -14.467 -22.780  0.00  0.00    -0.079 HD
ENDROOT
BRANCH   2   8
ATOM      8  C   UNL     1      35.297 -17.669 -24.441  0.00  0.00    +0.094 C 
BRANCH   8  10
ATOM      9  O   UNL     1      37.605 -18.368 -22.626  0.00  0.00    -0.270 OA
ATOM     10  N   UNL     1      35.317 -18.428 -23.227  0.00  0.00    -0.272 N 
ATOM     11  C   UNL     1      34.100 -19.014 -22.658  0.00  0.00    +0.121 C 
ATOM     12  C   UNL     1      36.448 -18.700 -22.448  0.00  0.00    +0.249 C 
ATOM     13  C   UNL     1      34.610 -19.686 -21.430  0.00  0.00    +0.002 C 
ATOM     14  C   UNL     1      35.987 -19.501 -21.309  0.00  0.00    +0.051 C 
ATOM     15  C   UNL     1      33.917 -20.412 -20.479  0.00  0.00    -0.002 C 
ATOM     16  C   UNL     1      36.720 -20.018 -20.259  0.00  0.00    +0.004 C 
ATOM     17  C   UNL     1      34.636 -20.947 -19.405  0.00  0.00    -0.000 C 
ATOM     18  C   UNL     1      36.025 -20.752 -19.296  0.00  0.00    +0.000 C 
ENDBRANCH   8  10
ENDBRANCH   2   8
BRANCH   1  19
ATOM     19  C   UNL     1      33.396 -12.518 -22.752  0.00  0.00    -0.006 C 
BRANCH  19  21
ATOM     20  O   UNL     1      32.043 -13.425 -20.972  0.00  0.00    -0.294 OA
ATOM     21  C   UNL     1      32.542 -12.434 -21.500  0.00  0.00    +0.152 C 
BRANCH  21  23
ATOM     22  F   UNL     1      31.651  -7.415 -19.222  0.00  0.00    -0.204 F 
ATOM     23  C   UNL     1      32.303 -11.092 -20.891  0.00  0.00    +0.033 C 
ATOM     24  C   UNL     1      32.239 -10.993 -19.520  0.00  0.00    +0.005 C 
ATOM     25  C   UNL     1      32.157 -10.007 -21.723  0.00  0.00    +0.005 C 
ATOM     26  C   UNL     1      32.017  -9.739 -18.950  0.00  0.00    +0.030 C 
ATOM     27  C   UNL     1      31.936  -8.754 -21.155  0.00  0.00    +0.030 C 
ATOM     28  C   UNL     1      31.865  -8.619 -19.768  0.00  0.00    +0.140 C 
ENDBRANCH  21  23
ENDBRANCH  19  21
ENDBRANCH   1  19
TORSDOF 5
ENDMDL
MODEL 8
REMARK VINA RESULT:     -10.7      7.756     11.420
REMARK  Name = 9799284
REMARK  5 active torsions:
REMARK  status: ('A' for Active; 'I' for Inactive)
REMARK    1  A    between atoms: N_1  and  C_19
REMARK    2  A    between atoms: C_2  and  C_8
REMARK    3  A    between atoms: C_8  and  N_10
REMARK    4  A    between atoms: C_19  and  C_21
REMARK    5  A    between atoms: C_21  and  C_23
REMARK                            x       y       z     vdW  Elec       q    Type
REMARK                         _______ _______ _______ _____ _____    ______ ____
ROOT
ATOM      1  N   UNL     1      33.874 -23.278 -16.173  0.00  0.00    +0.392 N 
ATOM      2  C   UNL     1      35.033 -23.634 -13.504  0.00  0.00    +0.016 C 
ATOM      3  C   UNL     1      33.776 -24.383 -13.962  0.00  0.00    -0.021 C 
ATOM      4  C   UNL     1      35.878 -23.247 -14.723  0.00  0.00    -0.021 C 
ATOM      5  C   UNL     1      33.013 -23.591 -15.024  0.00  0.00    -0.077 C 
ATOM      6  C   UNL     1      35.045 -22.493 -15.760  0.00  0.00    -0.077 C 
ATOM      7  H   UNL     1      34.208 -24.159 -16.565  0.00  0.00    -0.079 HD
ENDROOT
BRANCH   2   8
ATOM      8  C   UNL     1      35.843 -24.472 -12.519  0.00  0.00    +0.094 C 
BRANCH   8  10
ATOM      9  O   UNL     1      38.779 -23.912 -12.092  0.00  0.00    -0.270 OA
ATOM     10  N   UNL     1      36.993 -25.043 -13.154  0.00  0.00    -0.272 N 
ATOM     11  C   UNL     1      36.874 -26.073 -14.191  0.00  0.00    +0.121 C 
ATOM     12  C   UNL     1      38.327 -24.716 -12.886  0.00  0.00    +0.249 C 
ATOM     13  C   UNL     1      38.297 -26.348 -14.536  0.00  0.00    +0.002 C 
ATOM     14  C   UNL     1      39.147 -25.550 -13.770  0.00  0.00    +0.051 C 
ATOM     15  C   UNL     1      38.817 -27.236 -15.459  0.00  0.00    -0.002 C 
ATOM     16  C   UNL     1      40.523 -25.600 -13.886  0.00  0.00    +0.004 C 
ATOM     17  C   UNL     1      40.207 -27.306 -15.596  0.00  0.00    -0.000 C 
ATOM     18  C   UNL     1      41.052 -26.496 -14.816  0.00  0.00    +0.000 C 
ENDBRANCH   8  10
ENDBRANCH   2   8
BRANCH   1  19
ATOM     19  C   UNL     1      33.117 -22.567 -17.202  0.00  0.00    -0.006 C 
BRANCH  19  21
ATOM     20  O   UNL     1      33.860 -23.972 -19.019  0.00  0.00    -0.294 OA
ATOM     21  C   UNL     1      33.745 -22.839 -18.558  0.00  0.00    +0.152 C 
BRANCH  21  23
ATOM     22  F   UNL     1      35.595 -18.502 -21.548  0.00  0.00    -0.204 F 
ATOM     23  C   UNL     1      34.239 -21.678 -19.357  0.00  0.00    +0.033 C 
ATOM     24  C   UNL     1      35.597 -21.469 -19.443  0.00  0.00    +0.005 C 
ATOM     25  C   UNL     1      33.320 -20.865 -19.976  0.00  0.00    +0.005 C 
ATOM     26  C   UNL     1      36.060 -20.386 -20.191  0.00  0.00    +0.030 C 
ATOM     27  C   UNL     1      33.781 -19.782 -20.724  0.00  0.00    +0.030 C 
ATOM     28  C   UNL     1      35.151 -19.542 -20.831  0.00  0.00    +0.140 C 
ENDBRANCH  21  23
ENDBRANCH  19  21
ENDBRANCH   1  19
TORSDOF 5
ENDMDL
MODEL 9
REMARK VINA RESULT:     -10.5      7.638     13.551
REMARK  Name = 9799284
REMARK  5 active torsions:
REMARK  status: ('A' for Active; 'I' for Inactive)
REMARK    1  A    between atoms: N_1  and  C_19
REMARK    2  A    between atoms: C_2  and  C_8
REMARK    3  A    between atoms: C_8  and  N_10
REMARK    4  A    between atoms: C_19  and  C_21
REMARK    5  A    between atoms: C_21  and  C_23
REMARK                            x       y       z     vdW  Elec       q    Type
REMARK                         _______ _______ _______ _____ _____    ______ ____
ROOT
ATOM      1  N   UNL     1      35.288 -23.726 -13.854  0.00  0.00    +0.392 N 
ATOM      2  C   UNL     1      34.266 -22.722 -16.412  0.00  0.00    +0.016 C 
ATOM      3  C   UNL     1      35.759 -22.959 -16.159  0.00  0.00    -0.021 C 
ATOM      4  C   UNL     1      33.435 -23.620 -15.490  0.00  0.00    -0.021 C 
ATOM      5  C   UNL     1      36.100 -22.817 -14.675  0.00  0.00    -0.077 C 
ATOM      6  C   UNL     1      33.854 -23.457 -14.028  0.00  0.00    -0.077 C 
ATOM      7  H   UNL     1      35.470 -24.680 -14.167  0.00  0.00    -0.079 HD
ENDROOT
BRANCH   2   8
ATOM      8  C   UNL     1      33.912 -22.962 -17.878  0.00  0.00    +0.094 C 
BRANCH   8  10
ATOM      9  O   UNL     1      32.562 -20.988 -19.721  0.00  0.00    -0.270 OA
ATOM     10  N   UNL     1      34.478 -21.948 -18.715  0.00  0.00    -0.272 N 
ATOM     11  C   UNL     1      35.924 -21.718 -18.787  0.00  0.00    +0.121 C 
ATOM     12  C   UNL     1      33.763 -21.073 -19.542  0.00  0.00    +0.249 C 
ATOM     13  C   UNL     1      36.024 -20.593 -19.759  0.00  0.00    +0.002 C 
ATOM     14  C   UNL     1      34.755 -20.217 -20.201  0.00  0.00    +0.051 C 
ATOM     15  C   UNL     1      37.148 -19.941 -20.228  0.00  0.00    -0.002 C 
ATOM     16  C   UNL     1      34.554 -19.196 -21.109  0.00  0.00    +0.004 C 
ATOM     17  C   UNL     1      36.972 -18.903 -21.149  0.00  0.00    -0.000 C 
ATOM     18  C   UNL     1      35.686 -18.534 -21.586  0.00  0.00    +0.000 C 
ENDBRANCH   8  10
ENDBRANCH   2   8
BRANCH   1  19
ATOM     19  C   UNL     1      35.662 -23.617 -12.445  0.00  0.00    -0.006 C 
BRANCH  19  21
ATOM     20  O   UNL     1      36.260 -25.459 -11.005  0.00  0.00    -0.294 OA
ATOM     21  C   UNL     1      36.465 -24.843 -12.048  0.00  0.00    +0.152 C 
BRANCH  21  23
ATOM     22  F   UNL     1      40.500 -26.599 -15.484  0.00  0.00    -0.204 F 
ATOM     23  C   UNL     1      37.545 -25.313 -12.967  0.00  0.00    +0.033 C 
ATOM     24  C   UNL     1      37.225 -26.227 -13.945  0.00  0.00    +0.005 C 
ATOM     25  C   UNL     1      38.815 -24.814 -12.800  0.00  0.00    +0.005 C 
ATOM     26  C   UNL     1      38.233 -26.665 -14.804  0.00  0.00    +0.030 C 
ATOM     27  C   UNL     1      39.823 -25.251 -13.658  0.00  0.00    +0.030 C 
ATOM     28  C   UNL     1      39.532 -26.178 -14.660  0.00  0.00    +0.140 C 
ENDBRANCH  21  23
ENDBRANCH  19  21
ENDBRANCH   1  19
TORSDOF 5
ENDMDL
