MODEL 1
REMARK VINA RESULT:     -13.5      0.000      0.000
REMARK  Name = 71226662
REMARK  4 active torsions:
REMARK  status: ('A' for Active; 'I' for Inactive)
REMARK    1  A    between atoms: C_5  and  C_15
REMARK    2  A    between atoms: C_7  and  C_23
REMARK    3  A    between atoms: C_19  and  C_20
REMARK    4  A    between atoms: C_28  and  C_31
REMARK                            x       y       z     vdW  Elec       q    Type
REMARK                         _______ _______ _______ _____ _____    ______ ____
ROOT
ATOM      1  N   UNL     1      33.771 -23.912 -14.872  0.00  0.00    -0.251 N 
ATOM      2  N   UNL     1      35.634 -23.298 -15.911  0.00  0.00    -0.392 NA
ATOM      3  N   UNL     1      31.077 -23.477 -15.374  0.00  0.00    -0.231 NA
ATOM      4  N   UNL     1      31.494 -22.235 -17.287  0.00  0.00    -0.344 N 
ATOM      5  C   UNL     1      35.137 -23.956 -14.884  0.00  0.00    +0.182 C 
ATOM      6  C   UNL     1      33.373 -23.178 -15.963  0.00  0.00    +0.185 C 
ATOM      7  C   UNL     1      34.541 -22.809 -16.589  0.00  0.00    +0.136 C 
ATOM      8  C   UNL     1      32.829 -24.440 -14.014  0.00  0.00    +0.089 C 
ATOM      9  C   UNL     1      31.956 -22.959 -16.212  0.00  0.00    +0.128 C 
ATOM     10  C   UNL     1      31.534 -24.209 -14.290  0.00  0.00    +0.116 C 
ATOM     11  H   UNL     1      30.525 -22.112 -17.417  0.00  0.00    +0.143 HD
ATOM     12  H   UNL     1      32.130 -21.840 -17.925  0.00  0.00    +0.143 HD
ENDROOT
BRANCH   5  15
ATOM     13  O   UNL     1      36.282 -26.947 -15.605  0.00  0.00    -0.260 OA
ATOM     14  N   UNL     1      37.202 -25.252 -14.314  0.00  0.00    -0.263 N 
ATOM     15  C   UNL     1      35.942 -24.686 -13.824  0.00  0.00    +0.143 C 
ATOM     16  C   UNL     1      36.375 -23.762 -12.678  0.00  0.00    +0.030 C 
ATOM     17  C   UNL     1      37.782 -23.326 -13.075  0.00  0.00    +0.024 C 
ATOM     18  C   UNL     1      38.357 -24.568 -13.738  0.00  0.00    +0.095 C 
ATOM     19  C   UNL     1      37.255 -26.376 -15.125  0.00  0.00    +0.293 C 
BRANCH  19  20
ATOM     20  C   UNL     1      38.564 -26.914 -15.423  0.00  0.00    -0.007 C 
ATOM     21  C   UNL     1      39.650 -27.361 -15.671  0.00  0.00    -0.081 C 
ATOM     22  C   UNL     1      40.973 -27.906 -15.974  0.00  0.00    +0.090 C 
ENDBRANCH  19  20
ENDBRANCH   5  15
BRANCH   7  23
ATOM     23  C   UNL     1      34.666 -22.029 -17.782  0.00  0.00    +0.028 C 
ATOM     24  C   UNL     1      33.529 -21.683 -18.513  0.00  0.00    +0.002 C 
ATOM     25  C   UNL     1      35.926 -21.613 -18.214  0.00  0.00    +0.002 C 
ATOM     26  C   UNL     1      33.652 -20.924 -19.676  0.00  0.00    +0.005 C 
ATOM     27  C   UNL     1      36.048 -20.853 -19.377  0.00  0.00    +0.005 C 
ATOM     28  C   UNL     1      34.912 -20.508 -20.108  0.00  0.00    +0.054 C 
BRANCH  28  31
ATOM     29  O   UNL     1      35.198 -20.295 -22.406  0.00  0.00    -0.270 OA
ATOM     30  N   UNL     1      34.993 -18.324 -21.149  0.00  0.00    -0.266 N 
ATOM     31  C   UNL     1      35.039 -19.714 -21.320  0.00  0.00    +0.251 C 
ATOM     32  H   UNL     1      34.861 -18.010 -20.225  0.00  0.00    +0.157 HD
ATOM     33  N   UNL     1      35.038 -16.019 -21.738  0.00  0.00    -0.229 NA
ATOM     34  C   UNL     1      35.113 -17.311 -22.132  0.00  0.00    +0.134 C 
ATOM     35  C   UNL     1      35.301 -17.712 -23.444  0.00  0.00    +0.034 C 
ATOM     36  C   UNL     1      35.421 -16.725 -24.416  0.00  0.00    +0.004 C 
ATOM     37  C   UNL     1      35.158 -15.087 -22.710  0.00  0.00    +0.100 C 
ATOM     38  C   UNL     1      35.349 -15.384 -24.050  0.00  0.00    +0.021 C 
ENDBRANCH  28  31
ENDBRANCH   7  23
TORSDOF 4
ENDMDL
MODEL 2
REMARK VINA RESULT:     -11.2      8.431     16.179
REMARK  Name = 71226662
REMARK  4 active torsions:
REMARK  status: ('A' for Active; 'I' for Inactive)
REMARK    1  A    between atoms: C_5  and  C_15
REMARK    2  A    between atoms: C_7  and  C_23
REMARK    3  A    between atoms: C_19  and  C_20
REMARK    4  A    between atoms: C_28  and  C_31
REMARK                            x       y       z     vdW  Elec       q    Type
REMARK                         _______ _______ _______ _____ _____    ______ ____
ROOT
ATOM      1  N   UNL     1      32.605  -7.196 -21.520  0.00  0.00    -0.251 N 
ATOM      2  N   UNL     1      33.343  -7.937 -23.478  0.00  0.00    -0.392 NA
ATOM      3  N   UNL     1      31.825  -8.459 -19.176  0.00  0.00    -0.231 NA
ATOM      4  N   UNL     1      32.232 -10.579 -20.022  0.00  0.00    -0.344 N 
ATOM      5  C   UNL     1      33.038  -6.866 -22.773  0.00  0.00    +0.182 C 
ATOM      6  C   UNL     1      32.636  -8.566 -21.421  0.00  0.00    +0.185 C 
ATOM      7  C   UNL     1      33.094  -9.001 -22.642  0.00  0.00    +0.136 C 
ATOM      8  C   UNL     1      32.183  -6.435 -20.450  0.00  0.00    +0.089 C 
ATOM      9  C   UNL     1      32.223  -9.212 -20.184  0.00  0.00    +0.128 C 
ATOM     10  C   UNL     1      31.813  -7.082 -19.332  0.00  0.00    +0.116 C 
ATOM     11  H   UNL     1      31.945 -10.974 -19.167  0.00  0.00    +0.143 HD
ATOM     12  H   UNL     1      32.526 -11.161 -20.759  0.00  0.00    +0.143 HD
ENDROOT
BRANCH   5  15
ATOM     13  O   UNL     1      35.869  -5.888 -24.117  0.00  0.00    -0.260 OA
ATOM     14  N   UNL     1      33.682  -5.288 -24.608  0.00  0.00    -0.263 N 
ATOM     15  C   UNL     1      33.141  -5.430 -23.253  0.00  0.00    +0.143 C 
ATOM     16  C   UNL     1      31.774  -4.738 -23.330  0.00  0.00    +0.030 C 
ATOM     17  C   UNL     1      31.355  -4.920 -24.785  0.00  0.00    +0.024 C 
ATOM     18  C   UNL     1      32.669  -4.803 -25.541  0.00  0.00    +0.095 C 
ATOM     19  C   UNL     1      35.023  -5.480 -24.905  0.00  0.00    +0.293 C 
BRANCH  19  20
ATOM     20  C   UNL     1      35.452  -5.174 -26.252  0.00  0.00    -0.007 C 
ATOM     21  C   UNL     1      35.808  -4.920 -27.370  0.00  0.00    -0.081 C 
ATOM     22  C   UNL     1      36.242  -4.609 -28.731  0.00  0.00    +0.090 C 
ENDBRANCH  19  20
ENDBRANCH   5  15
BRANCH   7  23
ATOM     23  C   UNL     1      33.306 -10.357 -23.046  0.00  0.00    +0.028 C 
ATOM     24  C   UNL     1      32.650 -11.394 -22.381  0.00  0.00    +0.002 C 
ATOM     25  C   UNL     1      34.168 -10.643 -24.105  0.00  0.00    +0.002 C 
ATOM     26  C   UNL     1      32.857 -12.716 -22.775  0.00  0.00    +0.005 C 
ATOM     27  C   UNL     1      34.375 -11.964 -24.498  0.00  0.00    +0.005 C 
ATOM     28  C   UNL     1      33.720 -13.001 -23.834  0.00  0.00    +0.054 C 
BRANCH  28  31
ATOM     29  O   UNL     1      33.545 -14.741 -25.368  0.00  0.00    -0.270 OA
ATOM     30  N   UNL     1      34.558 -15.210 -23.305  0.00  0.00    -0.266 N 
ATOM     31  C   UNL     1      33.934 -14.380 -24.246  0.00  0.00    +0.251 C 
ATOM     32  H   UNL     1      34.812 -14.780 -22.456  0.00  0.00    +0.157 HD
ATOM     33  N   UNL     1      35.481 -17.194 -22.372  0.00  0.00    -0.229 NA
ATOM     34  C   UNL     1      34.872 -16.587 -23.415  0.00  0.00    +0.134 C 
ATOM     35  C   UNL     1      34.531 -17.228 -24.594  0.00  0.00    +0.034 C 
ATOM     36  C   UNL     1      34.834 -18.580 -24.712  0.00  0.00    +0.004 C 
ATOM     37  C   UNL     1      35.761 -18.508 -22.522  0.00  0.00    +0.100 C 
ATOM     38  C   UNL     1      35.461 -19.240 -23.660  0.00  0.00    +0.021 C 
ENDBRANCH  28  31
ENDBRANCH   7  23
TORSDOF 4
ENDMDL
