MODEL 1
REMARK VINA RESULT:     -11.4      0.000      0.000
REMARK  Name = 5326930
REMARK  4 active torsions:
REMARK  status: ('A' for Active; 'I' for Inactive)
REMARK    1  A    between atoms: C_7  and  C_21
REMARK    2  A    between atoms: C_21  and  C_22
REMARK    3  A    between atoms: C_22  and  C_23
REMARK    4  A    between atoms: C_28  and  O_29
REMARK                            x       y       z     vdW  Elec       q    Type
REMARK                         _______ _______ _______ _____ _____    ______ ____
ROOT
ATOM      1  O   UNL     1      34.922 -24.684 -11.852  0.00  0.00    -0.209 OA
ATOM      2  N   UNL     1      34.813 -22.724 -15.344  0.00  0.00    -0.275 N 
ATOM      3  N   UNL     1      30.078 -25.092 -13.847  0.00  0.00    -0.315 N 
ATOM      4  N   UNL     1      30.050 -23.996 -15.779  0.00  0.00    -0.316 N 
ATOM      5  N   UNL     1      36.025 -23.434 -13.423  0.00  0.00    -0.302 NA
ATOM      6  N   UNL     1      37.021 -22.151 -15.111  0.00  0.00    -0.320 N 
ATOM      7  C   UNL     1      32.464 -23.277 -15.691  0.00  0.00    +0.007 C 
ATOM      8  C   UNL     1      33.634 -23.344 -14.918  0.00  0.00    +0.060 C 
ATOM      9  C   UNL     1      31.303 -23.917 -15.218  0.00  0.00    +0.056 C 
ATOM     10  C   UNL     1      31.348 -24.597 -14.005  0.00  0.00    +0.060 C 
ATOM     11  C   UNL     1      33.639 -24.040 -13.699  0.00  0.00    +0.109 C 
ATOM     12  C   UNL     1      32.492 -24.684 -13.212  0.00  0.00    +0.029 C 
ATOM     13  C   UNL     1      34.909 -24.078 -12.920  0.00  0.00    +0.208 C 
ATOM     14  C   UNL     1      29.341 -24.707 -14.932  0.00  0.00    +0.182 C 
ATOM     15  C   UNL     1      35.946 -22.806 -14.566  0.00  0.00    +0.248 C 
ATOM     16  H   UNL     1      34.832 -22.232 -16.196  0.00  0.00    +0.156 HD
ATOM     17  H   UNL     1      29.756 -25.629 -13.088  0.00  0.00    +0.148 HD
ATOM     18  H   UNL     1      29.749 -23.605 -16.632  0.00  0.00    +0.148 HD
ATOM     19  H   UNL     1      36.929 -21.687 -15.975  0.00  0.00    +0.146 HD
ATOM     20  H   UNL     1      37.885 -22.144 -14.638  0.00  0.00    +0.146 HD
ENDROOT
BRANCH   7  21
ATOM     21  C   UNL     1      32.451 -22.538 -16.991  0.00  0.00    +0.034 C 
BRANCH  21  22
ATOM     22  C   UNL     1      33.488 -23.048 -18.009  0.00  0.00    +0.031 C 
BRANCH  22  23
ATOM     23  C   UNL     1      34.025 -21.962 -18.908  0.00  0.00    -0.022 C 
ATOM     24  C   UNL     1      33.138 -21.150 -19.596  0.00  0.00    -0.001 C 
ATOM     25  C   UNL     1      35.395 -21.798 -19.032  0.00  0.00    -0.001 C 
ATOM     26  C   UNL     1      33.633 -20.146 -20.428  0.00  0.00    +0.037 C 
ATOM     27  C   UNL     1      35.892 -20.794 -19.864  0.00  0.00    +0.037 C 
ATOM     28  C   UNL     1      35.011 -19.968 -20.562  0.00  0.00    +0.139 C 
BRANCH  28  29
ATOM     29  O   UNL     1      35.495 -18.990 -21.374  0.00  0.00    -0.471 OA
ATOM     30  C   UNL     1      35.041 -18.983 -22.726  0.00  0.00    +0.252 C 
ENDBRANCH  28  29
ENDBRANCH  22  23
ENDBRANCH  21  22
ENDBRANCH   7  21
TORSDOF 4
ENDMDL
MODEL 2
REMARK VINA RESULT:     -11.2      1.776      4.223
REMARK  Name = 5326930
REMARK  4 active torsions:
REMARK  status: ('A' for Active; 'I' for Inactive)
REMARK    1  A    between atoms: C_7  and  C_21
REMARK    2  A    between atoms: C_21  and  C_22
REMARK    3  A    between atoms: C_22  and  C_23
REMARK    4  A    between atoms: C_28  and  O_29
REMARK                            x       y       z     vdW  Elec       q    Type
REMARK                         _______ _______ _______ _____ _____    ______ ____
ROOT
ATOM      1  O   UNL     1      28.922 -25.439 -13.871  0.00  0.00    -0.209 OA
ATOM      2  N   UNL     1      29.976 -22.894 -16.779  0.00  0.00    -0.275 N 
ATOM      3  N   UNL     1      34.127 -24.740 -13.674  0.00  0.00    -0.315 N 
ATOM      4  N   UNL     1      34.679 -23.327 -15.297  0.00  0.00    -0.316 N 
ATOM      5  N   UNL     1      28.288 -24.113 -15.627  0.00  0.00    -0.302 NA
ATOM      6  N   UNL     1      27.789 -22.717 -17.441  0.00  0.00    -0.320 N 
ATOM      7  C   UNL     1      32.332 -23.010 -16.158  0.00  0.00    +0.007 C 
ATOM      8  C   UNL     1      30.996 -23.392 -15.960  0.00  0.00    +0.060 C 
ATOM      9  C   UNL     1      33.320 -23.540 -15.309  0.00  0.00    +0.056 C 
ATOM     10  C   UNL     1      32.948 -24.423 -14.300  0.00  0.00    +0.060 C 
ATOM     11  C   UNL     1      30.660 -24.286 -14.932  0.00  0.00    +0.109 C 
ATOM     12  C   UNL     1      31.631 -24.825 -14.074  0.00  0.00    +0.029 C 
ATOM     13  C   UNL     1      29.225 -24.658 -14.768  0.00  0.00    +0.208 C 
ATOM     14  C   UNL     1      35.131 -24.060 -14.305  0.00  0.00    +0.182 C 
ATOM     15  C   UNL     1      28.675 -23.286 -16.562  0.00  0.00    +0.248 C 
ATOM     16  H   UNL     1      30.190 -22.266 -17.506  0.00  0.00    +0.156 HD
ATOM     17  H   UNL     1      34.230 -25.347 -12.907  0.00  0.00    +0.148 HD
ATOM     18  H   UNL     1      35.200 -22.749 -15.901  0.00  0.00    +0.148 HD
ATOM     19  H   UNL     1      28.112 -22.098 -18.135  0.00  0.00    +0.146 HD
ATOM     20  H   UNL     1      26.829 -22.928 -17.377  0.00  0.00    +0.146 HD
ENDROOT
BRANCH   7  21
ATOM     21  C   UNL     1      32.697 -22.058 -17.253  0.00  0.00    +0.034 C 
BRANCH  21  22
ATOM     22  C   UNL     1      33.590 -22.675 -18.345  0.00  0.00    +0.031 C 
BRANCH  22  23
ATOM     23  C   UNL     1      34.310 -21.645 -19.179  0.00  0.00    -0.022 C 
ATOM     24  C   UNL     1      35.696 -21.625 -19.187  0.00  0.00    -0.001 C 
ATOM     25  C   UNL     1      33.573 -20.736 -19.921  0.00  0.00    -0.001 C 
ATOM     26  C   UNL     1      36.362 -20.673 -19.958  0.00  0.00    +0.037 C 
ATOM     27  C   UNL     1      34.240 -19.782 -20.692  0.00  0.00    +0.037 C 
ATOM     28  C   UNL     1      35.634 -19.751 -20.710  0.00  0.00    +0.139 C 
BRANCH  28  29
ATOM     29  O   UNL     1      36.283 -18.821 -21.462  0.00  0.00    -0.471 OA
ATOM     30  C   UNL     1      35.664 -17.543 -21.592  0.00  0.00    +0.252 C 
ENDBRANCH  28  29
ENDBRANCH  22  23
ENDBRANCH  21  22
ENDBRANCH   7  21
TORSDOF 4
ENDMDL
MODEL 3
REMARK VINA RESULT:     -11.0      1.075      1.473
REMARK  Name = 5326930
REMARK  4 active torsions:
REMARK  status: ('A' for Active; 'I' for Inactive)
REMARK    1  A    between atoms: C_7  and  C_21
REMARK    2  A    between atoms: C_21  and  C_22
REMARK    3  A    between atoms: C_22  and  C_23
REMARK    4  A    between atoms: C_28  and  O_29
REMARK                            x       y       z     vdW  Elec       q    Type
REMARK                         _______ _______ _______ _____ _____    ______ ____
ROOT
ATOM      1  O   UNL     1      35.018 -24.254 -11.620  0.00  0.00    -0.209 OA
ATOM      2  N   UNL     1      35.730 -23.783 -15.534  0.00  0.00    -0.275 N 
ATOM      3  N   UNL     1      30.461 -23.259 -14.040  0.00  0.00    -0.315 N 
ATOM      4  N   UNL     1      30.889 -23.002 -16.205  0.00  0.00    -0.316 N 
ATOM      5  N   UNL     1      36.534 -24.216 -13.336  0.00  0.00    -0.302 NA
ATOM      6  N   UNL     1      37.967 -24.147 -15.189  0.00  0.00    -0.320 N 
ATOM      7  C   UNL     1      33.373 -23.381 -16.012  0.00  0.00    +0.007 C 
ATOM      8  C   UNL     1      34.405 -23.660 -15.103  0.00  0.00    +0.060 C 
ATOM      9  C   UNL     1      32.057 -23.266 -15.528  0.00  0.00    +0.056 C 
ATOM     10  C   UNL     1      31.816 -23.432 -14.168  0.00  0.00    +0.060 C 
ATOM     11  C   UNL     1      34.122 -23.820 -13.738  0.00  0.00    +0.109 C 
ATOM     12  C   UNL     1      32.816 -23.709 -13.236  0.00  0.00    +0.029 C 
ATOM     13  C   UNL     1      35.257 -24.113 -12.816  0.00  0.00    +0.208 C 
ATOM     14  C   UNL     1      29.953 -23.006 -15.283  0.00  0.00    +0.182 C 
ATOM     15  C   UNL     1      36.722 -24.056 -14.620  0.00  0.00    +0.248 C 
ATOM     16  H   UNL     1      35.951 -23.675 -16.487  0.00  0.00    +0.156 HD
ATOM     17  H   UNL     1      29.947 -23.310 -13.202  0.00  0.00    +0.148 HD
ATOM     18  H   UNL     1      30.778 -22.845 -17.171  0.00  0.00    +0.148 HD
ATOM     19  H   UNL     1      38.076 -24.021 -16.159  0.00  0.00    +0.146 HD
ATOM     20  H   UNL     1      38.752 -24.340 -14.626  0.00  0.00    +0.146 HD
ENDROOT
BRANCH   7  21
ATOM     21  C   UNL     1      33.668 -23.210 -17.469  0.00  0.00    +0.034 C 
BRANCH  21  22
ATOM     22  C   UNL     1      32.919 -22.033 -18.123  0.00  0.00    +0.031 C 
BRANCH  22  23
ATOM     23  C   UNL     1      33.761 -21.270 -19.116  0.00  0.00    -0.022 C 
ATOM     24  C   UNL     1      35.136 -21.440 -19.114  0.00  0.00    -0.001 C 
ATOM     25  C   UNL     1      33.143 -20.411 -20.011  0.00  0.00    -0.001 C 
ATOM     26  C   UNL     1      35.914 -20.735 -20.032  0.00  0.00    +0.037 C 
ATOM     27  C   UNL     1      33.921 -19.705 -20.929  0.00  0.00    +0.037 C 
ATOM     28  C   UNL     1      35.306 -19.868 -20.940  0.00  0.00    +0.139 C 
BRANCH  28  29
ATOM     29  O   UNL     1      36.065 -19.178 -21.835  0.00  0.00    -0.471 OA
ATOM     30  C   UNL     1      35.490 -18.925 -23.116  0.00  0.00    +0.252 C 
ENDBRANCH  28  29
ENDBRANCH  22  23
ENDBRANCH  21  22
ENDBRANCH   7  21
TORSDOF 4
ENDMDL
MODEL 4
REMARK VINA RESULT:     -10.8      1.193      3.949
REMARK  Name = 5326930
REMARK  4 active torsions:
REMARK  status: ('A' for Active; 'I' for Inactive)
REMARK    1  A    between atoms: C_7  and  C_21
REMARK    2  A    between atoms: C_21  and  C_22
REMARK    3  A    between atoms: C_22  and  C_23
REMARK    4  A    between atoms: C_28  and  O_29
REMARK                            x       y       z     vdW  Elec       q    Type
REMARK                         _______ _______ _______ _____ _____    ______ ____
ROOT
ATOM      1  O   UNL     1      31.580 -25.324 -12.478  0.00  0.00    -0.209 OA
ATOM      2  N   UNL     1      30.907 -23.556 -16.009  0.00  0.00    -0.275 N 
ATOM      3  N   UNL     1      36.121 -23.370 -14.261  0.00  0.00    -0.315 N 
ATOM      4  N   UNL     1      35.715 -22.399 -16.218  0.00  0.00    -0.316 N 
ATOM      5  N   UNL     1      30.091 -24.756 -14.123  0.00  0.00    -0.302 NA
ATOM      6  N   UNL     1      28.686 -24.108 -15.882  0.00  0.00    -0.320 N 
ATOM      7  C   UNL     1      33.249 -22.919 -16.245  0.00  0.00    +0.007 C 
ATOM      8  C   UNL     1      32.218 -23.536 -15.520  0.00  0.00    +0.060 C 
ATOM      9  C   UNL     1      34.550 -22.926 -15.710  0.00  0.00    +0.056 C 
ATOM     10  C   UNL     1      34.777 -23.541 -14.483  0.00  0.00    +0.060 C 
ATOM     11  C   UNL     1      32.487 -24.146 -14.285  0.00  0.00    +0.109 C 
ATOM     12  C   UNL     1      33.777 -24.164 -13.735  0.00  0.00    +0.029 C 
ATOM     13  C   UNL     1      31.353 -24.787 -13.559  0.00  0.00    +0.208 C 
ATOM     14  C   UNL     1      36.635 -22.683 -15.324  0.00  0.00    +0.182 C 
ATOM     15  C   UNL     1      29.916 -24.168 -15.276  0.00  0.00    +0.248 C 
ATOM     16  H   UNL     1      30.696 -23.133 -16.872  0.00  0.00    +0.156 HD
ATOM     17  H   UNL     1      36.623 -23.686 -13.476  0.00  0.00    +0.148 HD
ATOM     18  H   UNL     1      35.833 -21.914 -17.067  0.00  0.00    +0.148 HD
ATOM     19  H   UNL     1      28.586 -23.659 -16.752  0.00  0.00    +0.146 HD
ATOM     20  H   UNL     1      27.902 -24.516 -15.445  0.00  0.00    +0.146 HD
ENDROOT
BRANCH   7  21
ATOM     21  C   UNL     1      32.969 -22.266 -17.561  0.00  0.00    +0.034 C 
BRANCH  21  22
ATOM     22  C   UNL     1      33.960 -22.655 -18.674  0.00  0.00    +0.031 C 
BRANCH  22  23
ATOM     23  C   UNL     1      34.439 -21.476 -19.484  0.00  0.00    -0.022 C 
ATOM     24  C   UNL     1      35.798 -21.217 -19.569  0.00  0.00    -0.001 C 
ATOM     25  C   UNL     1      33.512 -20.672 -20.127  0.00  0.00    -0.001 C 
ATOM     26  C   UNL     1      36.242 -20.127 -20.318  0.00  0.00    +0.037 C 
ATOM     27  C   UNL     1      33.956 -19.581 -20.877  0.00  0.00    +0.037 C 
ATOM     28  C   UNL     1      35.320 -19.309 -20.972  0.00  0.00    +0.139 C 
BRANCH  28  29
ATOM     29  O   UNL     1      35.752 -18.245 -21.701  0.00  0.00    -0.471 OA
ATOM     30  C   UNL     1      36.939 -18.424 -22.473  0.00  0.00    +0.252 C 
ENDBRANCH  28  29
ENDBRANCH  22  23
ENDBRANCH  21  22
ENDBRANCH   7  21
TORSDOF 4
ENDMDL
MODEL 5
REMARK VINA RESULT:     -10.6      1.861      2.506
REMARK  Name = 5326930
REMARK  4 active torsions:
REMARK  status: ('A' for Active; 'I' for Inactive)
REMARK    1  A    between atoms: C_7  and  C_21
REMARK    2  A    between atoms: C_21  and  C_22
REMARK    3  A    between atoms: C_22  and  C_23
REMARK    4  A    between atoms: C_28  and  O_29
REMARK                            x       y       z     vdW  Elec       q    Type
REMARK                         _______ _______ _______ _____ _____    ______ ____
ROOT
ATOM      1  O   UNL     1      37.095 -26.106 -11.929  0.00  0.00    -0.209 OA
ATOM      2  N   UNL     1      37.651 -24.003 -15.293  0.00  0.00    -0.275 N 
ATOM      3  N   UNL     1      32.644 -23.549 -13.058  0.00  0.00    -0.315 N 
ATOM      4  N   UNL     1      32.985 -22.394 -14.924  0.00  0.00    -0.316 N 
ATOM      5  N   UNL     1      38.494 -25.486 -13.633  0.00  0.00    -0.302 NA
ATOM      6  N   UNL     1      39.809 -24.766 -15.434  0.00  0.00    -0.320 N 
ATOM      7  C   UNL     1      35.374 -23.132 -15.239  0.00  0.00    +0.007 C 
ATOM      8  C   UNL     1      36.394 -23.922 -14.685  0.00  0.00    +0.060 C 
ATOM      9  C   UNL     1      34.128 -23.083 -14.589  0.00  0.00    +0.056 C 
ATOM     10  C   UNL     1      33.940 -23.816 -13.422  0.00  0.00    +0.060 C 
ATOM     11  C   UNL     1      36.166 -24.647 -13.506  0.00  0.00    +0.109 C 
ATOM     12  C   UNL     1      34.930 -24.611 -12.843  0.00  0.00    +0.029 C 
ATOM     13  C   UNL     1      37.285 -25.468 -12.961  0.00  0.00    +0.208 C 
ATOM     14  C   UNL     1      32.117 -22.696 -13.986  0.00  0.00    +0.182 C 
ATOM     15  C   UNL     1      38.632 -24.785 -14.728  0.00  0.00    +0.248 C 
ATOM     16  H   UNL     1      37.833 -23.503 -16.122  0.00  0.00    +0.156 HD
ATOM     17  H   UNL     1      32.179 -23.909 -12.269  0.00  0.00    +0.148 HD
ATOM     18  H   UNL     1      32.848 -21.802 -15.700  0.00  0.00    +0.148 HD
ATOM     19  H   UNL     1      39.882 -24.227 -16.255  0.00  0.00    +0.146 HD
ATOM     20  H   UNL     1      40.580 -25.291 -15.119  0.00  0.00    +0.146 HD
ENDROOT
BRANCH   7  21
ATOM     21  C   UNL     1      35.610 -22.356 -16.497  0.00  0.00    +0.034 C 
BRANCH  21  22
ATOM     22  C   UNL     1      34.637 -22.706 -17.637  0.00  0.00    +0.031 C 
BRANCH  22  23
ATOM     23  C   UNL     1      34.662 -21.710 -18.770  0.00  0.00    -0.022 C 
ATOM     24  C   UNL     1      33.468 -21.209 -19.261  0.00  0.00    -0.001 C 
ATOM     25  C   UNL     1      35.880 -21.315 -19.299  0.00  0.00    -0.001 C 
ATOM     26  C   UNL     1      33.491 -20.287 -20.308  0.00  0.00    +0.037 C 
ATOM     27  C   UNL     1      35.904 -20.393 -20.347  0.00  0.00    +0.037 C 
ATOM     28  C   UNL     1      34.709 -19.880 -20.851  0.00  0.00    +0.139 C 
BRANCH  28  29
ATOM     29  O   UNL     1      34.732 -18.982 -21.873  0.00  0.00    -0.471 OA
ATOM     30  C   UNL     1      35.962 -18.298 -22.110  0.00  0.00    +0.252 C 
ENDBRANCH  28  29
ENDBRANCH  22  23
ENDBRANCH  21  22
ENDBRANCH   7  21
TORSDOF 4
ENDMDL
MODEL 6
REMARK VINA RESULT:     -10.4      3.084      6.089
REMARK  Name = 5326930
REMARK  4 active torsions:
REMARK  status: ('A' for Active; 'I' for Inactive)
REMARK    1  A    between atoms: C_7  and  C_21
REMARK    2  A    between atoms: C_21  and  C_22
REMARK    3  A    between atoms: C_22  and  C_23
REMARK    4  A    between atoms: C_28  and  O_29
REMARK                            x       y       z     vdW  Elec       q    Type
REMARK                         _______ _______ _______ _____ _____    ______ ____
ROOT
ATOM      1  O   UNL     1      37.422 -21.553 -17.009  0.00  0.00    -0.209 OA
ATOM      2  N   UNL     1      33.848 -23.287 -16.499  0.00  0.00    -0.275 N 
ATOM      3  N   UNL     1      37.255 -23.651 -12.194  0.00  0.00    -0.315 N 
ATOM      4  N   UNL     1      35.263 -24.602 -11.942  0.00  0.00    -0.316 N 
ATOM      5  N   UNL     1      35.363 -22.066 -17.869  0.00  0.00    -0.302 NA
ATOM      6  N   UNL     1      33.223 -22.661 -18.614  0.00  0.00    -0.320 N 
ATOM      7  C   UNL     1      34.410 -24.001 -14.236  0.00  0.00    +0.007 C 
ATOM      8  C   UNL     1      34.751 -23.352 -15.433  0.00  0.00    +0.060 C 
ATOM      9  C   UNL     1      35.354 -24.038 -13.193  0.00  0.00    +0.056 C 
ATOM     10  C   UNL     1      36.594 -23.435 -13.377  0.00  0.00    +0.060 C 
ATOM     11  C   UNL     1      36.013 -22.755 -15.580  0.00  0.00    +0.109 C 
ATOM     12  C   UNL     1      36.967 -22.781 -14.552  0.00  0.00    +0.029 C 
ATOM     13  C   UNL     1      36.321 -22.078 -16.872  0.00  0.00    +0.208 C 
ATOM     14  C   UNL     1      36.419 -24.352 -11.371  0.00  0.00    +0.182 C 
ATOM     15  C   UNL     1      34.210 -22.644 -17.661  0.00  0.00    +0.248 C 
ATOM     16  H   UNL     1      32.958 -23.699 -16.418  0.00  0.00    +0.156 HD
ATOM     17  H   UNL     1      38.168 -23.354 -11.979  0.00  0.00    +0.148 HD
ATOM     18  H   UNL     1      34.498 -25.088 -11.558  0.00  0.00    +0.148 HD
ATOM     19  H   UNL     1      32.364 -23.105 -18.426  0.00  0.00    +0.146 HD
ATOM     20  H   UNL     1      33.374 -22.229 -19.486  0.00  0.00    +0.146 HD
ENDROOT
BRANCH   7  21
ATOM     21  C   UNL     1      33.067 -24.640 -14.073  0.00  0.00    +0.034 C 
BRANCH  21  22
ATOM     22  C   UNL     1      31.961 -23.664 -13.632  0.00  0.00    +0.031 C 
BRANCH  22  23
ATOM     23  C   UNL     1      30.804 -23.598 -14.598  0.00  0.00    -0.022 C 
ATOM     24  C   UNL     1      29.978 -24.701 -14.745  0.00  0.00    -0.001 C 
ATOM     25  C   UNL     1      30.589 -22.437 -15.322  0.00  0.00    -0.001 C 
ATOM     26  C   UNL     1      28.909 -24.642 -15.638  0.00  0.00    +0.037 C 
ATOM     27  C   UNL     1      29.519 -22.377 -16.216  0.00  0.00    +0.037 C 
ATOM     28  C   UNL     1      28.679 -23.479 -16.374  0.00  0.00    +0.139 C 
BRANCH  28  29
ATOM     29  O   UNL     1      27.636 -23.420 -17.246  0.00  0.00    -0.471 OA
ATOM     30  C   UNL     1      27.017 -22.149 -17.435  0.00  0.00    +0.252 C 
ENDBRANCH  28  29
ENDBRANCH  22  23
ENDBRANCH  21  22
ENDBRANCH   7  21
TORSDOF 4
ENDMDL
MODEL 7
REMARK VINA RESULT:     -10.2      3.253      5.626
REMARK  Name = 5326930
REMARK  4 active torsions:
REMARK  status: ('A' for Active; 'I' for Inactive)
REMARK    1  A    between atoms: C_7  and  C_21
REMARK    2  A    between atoms: C_21  and  C_22
REMARK    3  A    between atoms: C_22  and  C_23
REMARK    4  A    between atoms: C_28  and  O_29
REMARK                            x       y       z     vdW  Elec       q    Type
REMARK                         _______ _______ _______ _____ _____    ______ ____
ROOT
ATOM      1  O   UNL     1      37.999 -22.435 -13.172  0.00  0.00    -0.209 OA
ATOM      2  N   UNL     1      34.663 -24.405 -12.152  0.00  0.00    -0.275 N 
ATOM      3  N   UNL     1      34.730 -22.428 -17.287  0.00  0.00    -0.315 N 
ATOM      4  N   UNL     1      32.894 -23.527 -16.691  0.00  0.00    -0.316 N 
ATOM      5  N   UNL     1      36.827 -23.595 -11.583  0.00  0.00    -0.302 NA
ATOM      6  N   UNL     1      35.513 -24.796 -10.059  0.00  0.00    -0.320 N 
ATOM      7  C   UNL     1      33.666 -24.047 -14.349  0.00  0.00    +0.007 C 
ATOM      8  C   UNL     1      34.730 -23.882 -13.448  0.00  0.00    +0.060 C 
ATOM      9  C   UNL     1      33.782 -23.503 -15.641  0.00  0.00    +0.056 C 
ATOM     10  C   UNL     1      34.942 -22.819 -15.988  0.00  0.00    +0.060 C 
ATOM     11  C   UNL     1      35.885 -23.186 -13.837  0.00  0.00    +0.109 C 
ATOM     12  C   UNL     1      36.019 -22.636 -15.120  0.00  0.00    +0.029 C 
ATOM     13  C   UNL     1      36.985 -23.043 -12.840  0.00  0.00    +0.208 C 
ATOM     14  C   UNL     1      33.493 -22.875 -17.660  0.00  0.00    +0.182 C 
ATOM     15  C   UNL     1      35.722 -24.229 -11.291  0.00  0.00    +0.248 C 
ATOM     16  H   UNL     1      33.863 -24.897 -11.859  0.00  0.00    +0.156 HD
ATOM     17  H   UNL     1      35.357 -21.917 -17.847  0.00  0.00    +0.148 HD
ATOM     18  H   UNL     1      32.001 -23.944 -16.711  0.00  0.00    +0.148 HD
ATOM     19  H   UNL     1      34.670 -25.268  -9.871  0.00  0.00    +0.146 HD
ATOM     20  H   UNL     1      36.207 -24.731  -9.363  0.00  0.00    +0.146 HD
ENDROOT
BRANCH   7  21
ATOM     21  C   UNL     1      32.431 -24.788 -13.941  0.00  0.00    +0.034 C 
BRANCH  21  22
ATOM     22  C   UNL     1      31.280 -23.876 -13.479  0.00  0.00    +0.031 C 
BRANCH  22  23
ATOM     23  C   UNL     1      30.238 -23.645 -14.545  0.00  0.00    -0.022 C 
ATOM     24  C   UNL     1      29.758 -22.363 -14.759  0.00  0.00    -0.001 C 
ATOM     25  C   UNL     1      29.778 -24.719 -15.289  0.00  0.00    -0.001 C 
ATOM     26  C   UNL     1      28.794 -22.149 -15.744  0.00  0.00    +0.037 C 
ATOM     27  C   UNL     1      28.814 -24.505 -16.275  0.00  0.00    +0.037 C 
ATOM     28  C   UNL     1      28.322 -23.220 -16.502  0.00  0.00    +0.139 C 
BRANCH  28  29
ATOM     29  O   UNL     1      27.381 -23.012 -17.463  0.00  0.00    -0.471 OA
ATOM     30  C   UNL     1      26.707 -21.755 -17.452  0.00  0.00    +0.252 C 
ENDBRANCH  28  29
ENDBRANCH  22  23
ENDBRANCH  21  22
ENDBRANCH   7  21
TORSDOF 4
ENDMDL
MODEL 8
REMARK VINA RESULT:     -10.2      3.141      7.534
REMARK  Name = 5326930
REMARK  4 active torsions:
REMARK  status: ('A' for Active; 'I' for Inactive)
REMARK    1  A    between atoms: C_7  and  C_21
REMARK    2  A    between atoms: C_21  and  C_22
REMARK    3  A    between atoms: C_22  and  C_23
REMARK    4  A    between atoms: C_28  and  O_29
REMARK                            x       y       z     vdW  Elec       q    Type
REMARK                         _______ _______ _______ _____ _____    ______ ____
ROOT
ATOM      1  O   UNL     1      33.513 -19.183 -22.038  0.00  0.00    -0.209 OA
ATOM      2  N   UNL     1      36.945 -19.951 -20.120  0.00  0.00    -0.275 N 
ATOM      3  N   UNL     1      32.517 -22.521 -18.104  0.00  0.00    -0.315 N 
ATOM      4  N   UNL     1      34.437 -22.928 -17.063  0.00  0.00    -0.316 N 
ATOM      5  N   UNL     1      35.769 -18.831 -21.859  0.00  0.00    -0.302 NA
ATOM      6  N   UNL     1      38.077 -18.567 -21.554  0.00  0.00    -0.320 N 
ATOM      7  C   UNL     1      35.839 -21.446 -18.542  0.00  0.00    +0.007 C 
ATOM      8  C   UNL     1      35.789 -20.581 -19.646  0.00  0.00    +0.060 C 
ATOM      9  C   UNL     1      34.649 -22.055 -18.104  0.00  0.00    +0.056 C 
ATOM     10  C   UNL     1      33.460 -21.783 -18.773  0.00  0.00    +0.060 C 
ATOM     11  C   UNL     1      34.570 -20.332 -20.295  0.00  0.00    +0.109 C 
ATOM     12  C   UNL     1      33.373 -20.929 -19.874  0.00  0.00    +0.029 C 
ATOM     13  C   UNL     1      34.575 -19.406 -21.464  0.00  0.00    +0.208 C 
ATOM     14  C   UNL     1      33.149 -23.187 -17.091  0.00  0.00    +0.182 C 
ATOM     15  C   UNL     1      36.866 -19.109 -21.205  0.00  0.00    +0.248 C 
ATOM     16  H   UNL     1      37.810 -20.111 -19.679  0.00  0.00    +0.156 HD
ATOM     17  H   UNL     1      31.557 -22.563 -18.316  0.00  0.00    +0.148 HD
ATOM     18  H   UNL     1      35.106 -23.282 -16.432  0.00  0.00    +0.148 HD
ATOM     19  H   UNL     1      38.886 -18.797 -21.042  0.00  0.00    +0.146 HD
ATOM     20  H   UNL     1      38.138 -17.948 -22.318  0.00  0.00    +0.146 HD
ENDROOT
BRANCH   7  21
ATOM     21  C   UNL     1      37.135 -21.715 -17.844  0.00  0.00    +0.034 C 
BRANCH  21  22
ATOM     22  C   UNL     1      37.137 -21.320 -16.356  0.00  0.00    +0.031 C 
BRANCH  22  23
ATOM     23  C   UNL     1      37.500 -22.460 -15.437  0.00  0.00    -0.022 C 
ATOM     24  C   UNL     1      38.603 -23.245 -15.731  0.00  0.00    -0.001 C 
ATOM     25  C   UNL     1      36.723 -22.702 -14.316  0.00  0.00    -0.001 C 
ATOM     26  C   UNL     1      38.940 -24.299 -14.882  0.00  0.00    +0.037 C 
ATOM     27  C   UNL     1      37.058 -23.757 -13.466  0.00  0.00    +0.037 C 
ATOM     28  C   UNL     1      38.167 -24.555 -13.749  0.00  0.00    +0.139 C 
BRANCH  28  29
ATOM     29  O   UNL     1      38.494 -25.584 -12.921  0.00  0.00    -0.471 OA
ATOM     30  C   UNL     1      37.472 -26.069 -12.051  0.00  0.00    +0.252 C 
ENDBRANCH  28  29
ENDBRANCH  22  23
ENDBRANCH  21  22
ENDBRANCH   7  21
TORSDOF 4
ENDMDL
MODEL 9
REMARK VINA RESULT:      -9.9      3.240      5.961
REMARK  Name = 5326930
REMARK  4 active torsions:
REMARK  status: ('A' for Active; 'I' for Inactive)
REMARK    1  A    between atoms: C_7  and  C_21
REMARK    2  A    between atoms: C_21  and  C_22
REMARK    3  A    between atoms: C_22  and  C_23
REMARK    4  A    between atoms: C_28  and  O_29
REMARK                            x       y       z     vdW  Elec       q    Type
REMARK                         _______ _______ _______ _____ _____    ______ ____
ROOT
ATOM      1  O   UNL     1      38.489 -22.467 -15.770  0.00  0.00    -0.209 OA
ATOM      2  N   UNL     1      34.988 -24.024 -14.602  0.00  0.00    -0.275 N 
ATOM      3  N   UNL     1      34.835 -21.223 -19.336  0.00  0.00    -0.315 N 
ATOM      4  N   UNL     1      32.909 -22.101 -18.661  0.00  0.00    -0.316 N 
ATOM      5  N   UNL     1      37.312 -23.681 -14.226  0.00  0.00    -0.302 NA
ATOM      6  N   UNL     1      35.982 -24.903 -12.733  0.00  0.00    -0.320 N 
ATOM      7  C   UNL     1      33.832 -23.135 -16.557  0.00  0.00    +0.007 C 
ATOM      8  C   UNL     1      35.002 -23.302 -15.800  0.00  0.00    +0.060 C 
ATOM      9  C   UNL     1      33.898 -22.401 -17.755  0.00  0.00    +0.056 C 
ATOM     10  C   UNL     1      35.117 -21.862 -18.154  0.00  0.00    +0.060 C 
ATOM     11  C   UNL     1      36.213 -22.743 -16.237  0.00  0.00    +0.109 C 
ATOM     12  C   UNL     1      36.300 -22.007 -17.428  0.00  0.00    +0.029 C 
ATOM     13  C   UNL     1      37.426 -22.952 -15.395  0.00  0.00    +0.208 C 
ATOM     14  C   UNL     1      33.504 -21.394 -19.595  0.00  0.00    +0.182 C 
ATOM     15  C   UNL     1      36.151 -24.172 -13.881  0.00  0.00    +0.248 C 
ATOM     16  H   UNL     1      34.150 -24.424 -14.277  0.00  0.00    +0.156 HD
ATOM     17  H   UNL     1      35.477 -20.730 -19.895  0.00  0.00    +0.148 HD
ATOM     18  H   UNL     1      31.959 -22.359 -18.619  0.00  0.00    +0.148 HD
ATOM     19  H   UNL     1      35.094 -25.259 -12.502  0.00  0.00    +0.146 HD
ATOM     20  H   UNL     1      36.750 -25.071 -12.139  0.00  0.00    +0.146 HD
ENDROOT
BRANCH   7  21
ATOM     21  C   UNL     1      32.537 -23.728 -16.097  0.00  0.00    +0.034 C 
BRANCH  21  22
ATOM     22  C   UNL     1      31.800 -22.878 -15.046  0.00  0.00    +0.031 C 
BRANCH  22  23
ATOM     23  C   UNL     1      30.340 -22.669 -15.366  0.00  0.00    -0.022 C 
ATOM     24  C   UNL     1      29.874 -22.964 -16.637  0.00  0.00    -0.001 C 
ATOM     25  C   UNL     1      29.492 -22.184 -14.384  0.00  0.00    -0.001 C 
ATOM     26  C   UNL     1      28.526 -22.771 -16.934  0.00  0.00    +0.037 C 
ATOM     27  C   UNL     1      28.142 -21.990 -14.680  0.00  0.00    +0.037 C 
ATOM     28  C   UNL     1      27.659 -22.284 -15.955  0.00  0.00    +0.139 C 
BRANCH  28  29
ATOM     29  O   UNL     1      26.343 -22.094 -16.244  0.00  0.00    -0.471 OA
ATOM     30  C   UNL     1      26.037 -21.283 -17.377  0.00  0.00    +0.252 C 
ENDBRANCH  28  29
ENDBRANCH  22  23
ENDBRANCH  21  22
ENDBRANCH   7  21
TORSDOF 4
ENDMDL
