MODEL 1
REMARK VINA RESULT:     -12.8      0.000      0.000
REMARK  Name = 448407
REMARK  4 active torsions:
REMARK  status: ('A' for Active; 'I' for Inactive)
REMARK    1  A    between atoms: C_1  and  N_8
REMARK    2  A    between atoms: C_2  and  C_23
REMARK    3  A    between atoms: N_22  and  C_25
REMARK    4  A    between atoms: C_25  and  C_28
REMARK                            x       y       z     vdW  Elec       q    Type
REMARK                         _______ _______ _______ _____ _____    ______ ____
ROOT
ATOM      1  C   UNL     1      35.838 -18.438 -21.771  0.00  0.00    +0.090 C 
ATOM      2  C   UNL     1      34.933 -20.144 -20.289  0.00  0.00    +0.055 C 
ATOM      3  C   UNL     1      34.742 -19.141 -21.240  0.00  0.00    +0.023 C 
ATOM      4  C   UNL     1      37.128 -18.768 -21.323  0.00  0.00    +0.018 C 
ATOM      5  C   UNL     1      36.220 -20.460 -19.856  0.00  0.00    +0.005 C 
ATOM      6  C   UNL     1      37.318 -19.771 -20.373  0.00  0.00    +0.002 C 
ENDROOT
BRANCH   1   8
ATOM      7  O   UNL     1      34.799 -13.379 -22.342  0.00  0.00    -0.207 OA
ATOM      8  N   UNL     1      35.649 -17.439 -22.719  0.00  0.00    -0.137 N 
ATOM      9  N   UNL     1      35.024 -17.614 -23.914  0.00  0.00    -0.215 N 
ATOM     10  N   UNL     1      35.550 -16.120 -22.282  0.00  0.00    -0.143 NA
ATOM     11  N   UNL     1      33.822 -15.966 -25.288  0.00  0.00    -0.309 NA
ATOM     12  N   UNL     1      33.750 -13.732 -24.379  0.00  0.00    -0.251 NA
ATOM     13  N   UNL     1      32.735 -14.199 -26.404  0.00  0.00    -0.283 N 
ATOM     14  C   UNL     1      34.496 -16.426 -24.300  0.00  0.00    +0.243 C 
ATOM     15  C   UNL     1      34.873 -15.515 -23.207  0.00  0.00    +0.241 C 
ATOM     16  C   UNL     1      34.470 -14.104 -23.269  0.00  0.00    +0.239 C 
ATOM     17  C   UNL     1      33.457 -14.618 -25.310  0.00  0.00    +0.208 C 
ATOM     18  H   UNL     1      34.963 -18.460 -24.414  0.00  0.00    +0.175 HD
ATOM     19  H   UNL     1      32.502 -14.839 -27.116  0.00  0.00    +0.156 HD
ATOM     20  H   UNL     1      32.450 -13.259 -26.475  0.00  0.00    +0.156 HD
ENDBRANCH   1   8
BRANCH   2  23
ATOM     21  O   UNL     1      32.664 -20.737 -20.269  0.00  0.00    -0.270 OA
ATOM     22  N   UNL     1      34.024 -21.705 -18.658  0.00  0.00    -0.297 N 
ATOM     23  C   UNL     1      33.789 -20.863 -19.752  0.00  0.00    +0.246 C 
ATOM     24  H   UNL     1      34.938 -21.756 -18.299  0.00  0.00    +0.150 HD
BRANCH  22  25
ATOM     25  C   UNL     1      32.995 -22.501 -18.028  0.00  0.00    +0.117 C 
BRANCH  25  28
ATOM     26 CL   UNL     1      31.649 -24.648 -13.488  0.00  0.00    -0.082 Cl
ATOM     27 CL   UNL     1      36.701 -22.994 -14.414  0.00  0.00    -0.082 Cl
ATOM     28  C   UNL     1      33.394 -22.946 -16.650  0.00  0.00    -0.001 C 
ATOM     29  C   UNL     1      34.708 -22.781 -16.227  0.00  0.00    +0.009 C 
ATOM     30  C   UNL     1      32.445 -23.520 -15.812  0.00  0.00    +0.009 C 
ATOM     31  C   UNL     1      32.815 -23.935 -14.533  0.00  0.00    +0.058 C 
ATOM     32  C   UNL     1      35.078 -23.195 -14.948  0.00  0.00    +0.058 C 
ATOM     33  C   UNL     1      34.132 -23.773 -14.100  0.00  0.00    +0.023 C 
ENDBRANCH  25  28
ENDBRANCH  22  25
ENDBRANCH   2  23
TORSDOF 4
ENDMDL
MODEL 2
REMARK VINA RESULT:     -12.3      4.572     10.433
REMARK  Name = 448407
REMARK  4 active torsions:
REMARK  status: ('A' for Active; 'I' for Inactive)
REMARK    1  A    between atoms: C_1  and  N_8
REMARK    2  A    between atoms: C_2  and  C_23
REMARK    3  A    between atoms: N_22  and  C_25
REMARK    4  A    between atoms: C_25  and  C_28
REMARK                            x       y       z     vdW  Elec       q    Type
REMARK                         _______ _______ _______ _____ _____    ______ ____
ROOT
ATOM      1  C   UNL     1      34.867 -21.664 -18.553  0.00  0.00    +0.090 C 
ATOM      2  C   UNL     1      34.946 -20.113 -20.427  0.00  0.00    +0.055 C 
ATOM      3  C   UNL     1      35.593 -20.830 -19.421  0.00  0.00    +0.023 C 
ATOM      4  C   UNL     1      33.475 -21.760 -18.722  0.00  0.00    +0.018 C 
ATOM      5  C   UNL     1      33.564 -20.219 -20.581  0.00  0.00    +0.005 C 
ATOM      6  C   UNL     1      32.829 -21.043 -19.728  0.00  0.00    +0.002 C 
ENDROOT
BRANCH   1   8
ATOM      7  O   UNL     1      34.049 -24.634 -14.369  0.00  0.00    -0.207 OA
ATOM      8  N   UNL     1      35.512 -22.380 -17.551  0.00  0.00    -0.137 N 
ATOM      9  N   UNL     1      36.667 -21.996 -16.946  0.00  0.00    -0.215 N 
ATOM     10  N   UNL     1      34.745 -23.189 -16.716  0.00  0.00    -0.143 NA
ATOM     11  N   UNL     1      37.489 -22.539 -14.692  0.00  0.00    -0.309 NA
ATOM     12  N   UNL     1      36.033 -23.951 -13.384  0.00  0.00    -0.251 NA
ATOM     13  N   UNL     1      38.038 -23.209 -12.501  0.00  0.00    -0.283 N 
ATOM     14  C   UNL     1      36.699 -22.534 -15.701  0.00  0.00    +0.243 C 
ATOM     15  C   UNL     1      35.437 -23.286 -15.624  0.00  0.00    +0.241 C 
ATOM     16  C   UNL     1      35.107 -24.023 -14.396  0.00  0.00    +0.239 C 
ATOM     17  C   UNL     1      37.139 -23.251 -13.543  0.00  0.00    +0.208 C 
ATOM     18  H   UNL     1      37.363 -21.423 -17.343  0.00  0.00    +0.175 HD
ATOM     19  H   UNL     1      38.873 -22.694 -12.591  0.00  0.00    +0.156 HD
ATOM     20  H   UNL     1      37.846 -23.692 -11.665  0.00  0.00    +0.156 HD
ENDBRANCH   1   8
BRANCH   2  23
ATOM     21  O   UNL     1      36.896 -18.975 -21.059  0.00  0.00    -0.270 OA
ATOM     22  N   UNL     1      35.063 -18.793 -22.469  0.00  0.00    -0.297 N 
ATOM     23  C   UNL     1      35.712 -19.255 -21.317  0.00  0.00    +0.246 C 
ATOM     24  H   UNL     1      34.125 -19.053 -22.610  0.00  0.00    +0.150 HD
BRANCH  22  25
ATOM     25  C   UNL     1      35.697 -17.953 -23.459  0.00  0.00    +0.117 C 
BRANCH  25  28
ATOM     26 CL   UNL     1      33.347 -14.129 -26.084  0.00  0.00    -0.082 Cl
ATOM     27 CL   UNL     1      34.665 -13.556 -20.883  0.00  0.00    -0.082 Cl
ATOM     28  C   UNL     1      35.126 -16.564 -23.467  0.00  0.00    -0.001 C 
ATOM     29  C   UNL     1      35.159 -15.800 -22.306  0.00  0.00    +0.009 C 
ATOM     30  C   UNL     1      34.570 -16.057 -24.635  0.00  0.00    +0.009 C 
ATOM     31  C   UNL     1      34.039 -14.767 -24.643  0.00  0.00    +0.058 C 
ATOM     32  C   UNL     1      34.629 -14.510 -22.314  0.00  0.00    +0.058 C 
ATOM     33  C   UNL     1      34.068 -13.993 -23.482  0.00  0.00    +0.023 C 
ENDBRANCH  25  28
ENDBRANCH  22  25
ENDBRANCH   2  23
TORSDOF 4
ENDMDL
MODEL 3
REMARK VINA RESULT:     -12.1      4.122      9.892
REMARK  Name = 448407
REMARK  4 active torsions:
REMARK  status: ('A' for Active; 'I' for Inactive)
REMARK    1  A    between atoms: C_1  and  N_8
REMARK    2  A    between atoms: C_2  and  C_23
REMARK    3  A    between atoms: N_22  and  C_25
REMARK    4  A    between atoms: C_25  and  C_28
REMARK                            x       y       z     vdW  Elec       q    Type
REMARK                         _______ _______ _______ _____ _____    ______ ____
ROOT
ATOM      1  C   UNL     1      34.806 -21.628 -18.750  0.00  0.00    +0.090 C 
ATOM      2  C   UNL     1      35.172 -20.172 -20.666  0.00  0.00    +0.055 C 
ATOM      3  C   UNL     1      34.335 -20.999 -19.916  0.00  0.00    +0.023 C 
ATOM      4  C   UNL     1      36.137 -21.405 -18.357  0.00  0.00    +0.018 C 
ATOM      5  C   UNL     1      36.489 -19.961 -20.262  0.00  0.00    +0.005 C 
ATOM      6  C   UNL     1      36.972 -20.578 -19.107  0.00  0.00    +0.002 C 
ENDROOT
BRANCH   1   8
ATOM      7  O   UNL     1      29.943 -22.144 -16.996  0.00  0.00    -0.207 OA
ATOM      8  N   UNL     1      33.973 -22.451 -18.001  0.00  0.00    -0.137 N 
ATOM      9  N   UNL     1      34.355 -23.133 -16.889  0.00  0.00    -0.215 N 
ATOM     10  N   UNL     1      32.608 -22.173 -17.984  0.00  0.00    -0.143 NA
ATOM     11  N   UNL     1      32.988 -23.875 -14.983  0.00  0.00    -0.309 NA
ATOM     12  N   UNL     1      30.646 -23.309 -15.119  0.00  0.00    -0.251 NA
ATOM     13  N   UNL     1      31.460 -24.469 -13.291  0.00  0.00    -0.283 N 
ATOM     14  C   UNL     1      33.263 -23.325 -16.107  0.00  0.00    +0.243 C 
ATOM     15  C   UNL     1      32.181 -22.684 -16.872  0.00  0.00    +0.241 C 
ATOM     16  C   UNL     1      30.814 -22.688 -16.334  0.00  0.00    +0.239 C 
ATOM     17  C   UNL     1      31.676 -23.857 -14.505  0.00  0.00    +0.208 C 
ATOM     18  H   UNL     1      35.269 -23.435 -16.684  0.00  0.00    +0.175 HD
ATOM     19  H   UNL     1      32.210 -24.887 -12.809  0.00  0.00    +0.156 HD
ATOM     20  H   UNL     1      30.555 -24.487 -12.904  0.00  0.00    +0.156 HD
ENDBRANCH   1   8
BRANCH   2  23
ATOM     21  O   UNL     1      33.446 -19.486 -22.098  0.00  0.00    -0.270 OA
ATOM     22  N   UNL     1      35.615 -18.951 -22.724  0.00  0.00    -0.297 N 
ATOM     23  C   UNL     1      34.668 -19.528 -21.869  0.00  0.00    +0.246 C 
ATOM     24  H   UNL     1      36.565 -19.022 -22.482  0.00  0.00    +0.150 HD
BRANCH  22  25
ATOM     25  C   UNL     1      35.269 -18.257 -23.943  0.00  0.00    +0.117 C 
BRANCH  25  28
ATOM     26 CL   UNL     1      33.410 -13.754 -25.764  0.00  0.00    -0.082 Cl
ATOM     27 CL   UNL     1      34.958 -14.269 -20.620  0.00  0.00    -0.082 Cl
ATOM     28  C   UNL     1      34.903 -16.822 -23.689  0.00  0.00    -0.001 C 
ATOM     29  C   UNL     1      35.081 -16.281 -22.421  0.00  0.00    +0.009 C 
ATOM     30  C   UNL     1      34.389 -16.051 -24.725  0.00  0.00    +0.009 C 
ATOM     31  C   UNL     1      34.048 -14.719 -24.490  0.00  0.00    +0.058 C 
ATOM     32  C   UNL     1      34.741 -14.949 -22.186  0.00  0.00    +0.058 C 
ATOM     33  C   UNL     1      34.224 -14.168 -23.220  0.00  0.00    +0.023 C 
ENDBRANCH  25  28
ENDBRANCH  22  25
ENDBRANCH   2  23
TORSDOF 4
ENDMDL
MODEL 4
REMARK VINA RESULT:     -11.8      2.641      4.010
REMARK  Name = 448407
REMARK  4 active torsions:
REMARK  status: ('A' for Active; 'I' for Inactive)
REMARK    1  A    between atoms: C_1  and  N_8
REMARK    2  A    between atoms: C_2  and  C_23
REMARK    3  A    between atoms: N_22  and  C_25
REMARK    4  A    between atoms: C_25  and  C_28
REMARK                            x       y       z     vdW  Elec       q    Type
REMARK                         _______ _______ _______ _____ _____    ______ ____
ROOT
ATOM      1  C   UNL     1      34.565 -16.771 -23.892  0.00  0.00    +0.090 C 
ATOM      2  C   UNL     1      35.979 -18.405 -22.771  0.00  0.00    +0.055 C 
ATOM      3  C   UNL     1      35.510 -17.098 -22.904  0.00  0.00    +0.023 C 
ATOM      4  C   UNL     1      34.103 -17.791 -24.742  0.00  0.00    +0.018 C 
ATOM      5  C   UNL     1      35.510 -19.405 -23.622  0.00  0.00    +0.005 C 
ATOM      6  C   UNL     1      34.572 -19.098 -24.608  0.00  0.00    +0.002 C 
ENDROOT
BRANCH   1   8
ATOM      7  O   UNL     1      33.514 -13.056 -27.368  0.00  0.00    -0.207 OA
ATOM      8  N   UNL     1      34.097 -15.469 -24.024  0.00  0.00    -0.137 N 
ATOM      9  N   UNL     1      34.360 -14.460 -23.153  0.00  0.00    -0.215 N 
ATOM     10  N   UNL     1      33.844 -14.984 -25.305  0.00  0.00    -0.143 NA
ATOM     11  N   UNL     1      34.431 -12.037 -23.567  0.00  0.00    -0.309 NA
ATOM     12  N   UNL     1      33.968 -11.372 -25.841  0.00  0.00    -0.251 NA
ATOM     13  N   UNL     1      34.435  -9.777 -24.233  0.00  0.00    -0.283 N 
ATOM     14  C   UNL     1      34.290 -13.284 -23.825  0.00  0.00    +0.243 C 
ATOM     15  C   UNL     1      33.954 -13.696 -25.197  0.00  0.00    +0.241 C 
ATOM     16  C   UNL     1      33.790 -12.675 -26.240  0.00  0.00    +0.239 C 
ATOM     17  C   UNL     1      34.268 -11.096 -24.587  0.00  0.00    +0.208 C 
ATOM     18  H   UNL     1      34.568 -14.564 -22.196  0.00  0.00    +0.175 HD
ATOM     19  H   UNL     1      34.660  -9.540 -23.303  0.00  0.00    +0.156 HD
ATOM     20  H   UNL     1      34.332  -9.069 -24.909  0.00  0.00    +0.156 HD
ENDBRANCH   1   8
BRANCH   2  23
ATOM     21  O   UNL     1      38.098 -18.236 -21.781  0.00  0.00    -0.270 OA
ATOM     22  N   UNL     1      36.539 -19.581 -20.714  0.00  0.00    -0.297 N 
ATOM     23  C   UNL     1      36.956 -18.726 -21.742  0.00  0.00    +0.246 C 
ATOM     24  H   UNL     1      35.621 -19.933 -20.746  0.00  0.00    +0.150 HD
BRANCH  22  25
ATOM     25  C   UNL     1      37.385 -19.974 -19.611  0.00  0.00    +0.117 C 
BRANCH  25  28
ATOM     26 CL   UNL     1      33.136 -22.723 -18.413  0.00  0.00    -0.082 Cl
ATOM     27 CL   UNL     1      37.376 -22.525 -15.080  0.00  0.00    -0.082 Cl
ATOM     28  C   UNL     1      36.666 -20.869 -18.643  0.00  0.00    -0.001 C 
ATOM     29  C   UNL     1      37.286 -21.236 -17.454  0.00  0.00    +0.009 C 
ATOM     30  C   UNL     1      35.387 -21.323 -18.946  0.00  0.00    +0.009 C 
ATOM     31  C   UNL     1      34.719 -22.155 -18.047  0.00  0.00    +0.058 C 
ATOM     32  C   UNL     1      36.618 -22.066 -16.555  0.00  0.00    +0.058 C 
ATOM     33  C   UNL     1      35.334 -22.527 -16.851  0.00  0.00    +0.023 C 
ENDBRANCH  25  28
ENDBRANCH  22  25
ENDBRANCH   2  23
TORSDOF 4
ENDMDL
MODEL 5
REMARK VINA RESULT:     -11.2      4.896     10.765
REMARK  Name = 448407
REMARK  4 active torsions:
REMARK  status: ('A' for Active; 'I' for Inactive)
REMARK    1  A    between atoms: C_1  and  N_8
REMARK    2  A    between atoms: C_2  and  C_23
REMARK    3  A    between atoms: N_22  and  C_25
REMARK    4  A    between atoms: C_25  and  C_28
REMARK                            x       y       z     vdW  Elec       q    Type
REMARK                         _______ _______ _______ _____ _____    ______ ____
ROOT
ATOM      1  C   UNL     1      35.039 -22.353 -17.390  0.00  0.00    +0.090 C 
ATOM      2  C   UNL     1      35.279 -20.916 -19.340  0.00  0.00    +0.055 C 
ATOM      3  C   UNL     1      35.833 -21.552 -18.229  0.00  0.00    +0.023 C 
ATOM      4  C   UNL     1      33.675 -22.499 -17.696  0.00  0.00    +0.018 C 
ATOM      5  C   UNL     1      33.924 -21.072 -19.629  0.00  0.00    +0.005 C 
ATOM      6  C   UNL     1      33.121 -21.863 -18.807  0.00  0.00    +0.002 C 
ENDROOT
BRANCH   1   8
ATOM      7  O   UNL     1      33.939 -24.152 -12.641  0.00  0.00    -0.207 OA
ATOM      8  N   UNL     1      35.591 -22.988 -16.283  0.00  0.00    -0.137 N 
ATOM      9  N   UNL     1      36.850 -22.776 -15.818  0.00  0.00    -0.215 N 
ATOM     10  N   UNL     1      34.736 -23.409 -15.267  0.00  0.00    -0.143 NA
ATOM     11  N   UNL     1      37.720 -23.040 -13.532  0.00  0.00    -0.309 NA
ATOM     12  N   UNL     1      36.104 -23.778 -11.899  0.00  0.00    -0.251 NA
ATOM     13  N   UNL     1      38.292 -23.373 -11.271  0.00  0.00    -0.283 N 
ATOM     14  C   UNL     1      36.868 -23.049 -14.489  0.00  0.00    +0.243 C 
ATOM     15  C   UNL     1      35.481 -23.449 -14.206  0.00  0.00    +0.241 C 
ATOM     16  C   UNL     1      35.101 -23.827 -12.838  0.00  0.00    +0.239 C 
ATOM     17  C   UNL     1      37.320 -23.406 -12.245  0.00  0.00    +0.208 C 
ATOM     18  H   UNL     1      37.619 -22.476 -16.353  0.00  0.00    +0.175 HD
ATOM     19  H   UNL     1      39.210 -23.099 -11.500  0.00  0.00    +0.156 HD
ATOM     20  H   UNL     1      38.070 -23.620 -10.345  0.00  0.00    +0.156 HD
ENDBRANCH   1   8
BRANCH   2  23
ATOM     21  O   UNL     1      37.246 -19.736 -19.823  0.00  0.00    -0.270 OA
ATOM     22  N   UNL     1      35.596 -19.751 -21.453  0.00  0.00    -0.297 N 
ATOM     23  C   UNL     1      36.115 -20.092 -20.199  0.00  0.00    +0.246 C 
ATOM     24  H   UNL     1      34.694 -20.067 -21.684  0.00  0.00    +0.150 HD
BRANCH  22  25
ATOM     25  C   UNL     1      36.314 -18.959 -22.425  0.00  0.00    +0.117 C 
BRANCH  25  28
ATOM     26 CL   UNL     1      34.909 -14.208 -24.004  0.00  0.00    -0.082 Cl
ATOM     27 CL   UNL     1      32.265 -18.607 -25.669  0.00  0.00    -0.082 Cl
ATOM     28  C   UNL     1      35.392 -18.097 -23.239  0.00  0.00    -0.001 C 
ATOM     29  C   UNL     1      34.379 -18.687 -23.986  0.00  0.00    +0.009 C 
ATOM     30  C   UNL     1      35.562 -16.718 -23.239  0.00  0.00    +0.009 C 
ATOM     31  C   UNL     1      34.707 -15.917 -23.996  0.00  0.00    +0.058 C 
ATOM     32  C   UNL     1      33.523 -17.887 -24.742  0.00  0.00    +0.058 C 
ATOM     33  C   UNL     1      33.687 -16.501 -24.748  0.00  0.00    +0.023 C 
ENDBRANCH  25  28
ENDBRANCH  22  25
ENDBRANCH   2  23
TORSDOF 4
ENDMDL
MODEL 6
REMARK VINA RESULT:     -11.2      4.774     10.565
REMARK  Name = 448407
REMARK  4 active torsions:
REMARK  status: ('A' for Active; 'I' for Inactive)
REMARK    1  A    between atoms: C_1  and  N_8
REMARK    2  A    between atoms: C_2  and  C_23
REMARK    3  A    between atoms: N_22  and  C_25
REMARK    4  A    between atoms: C_25  and  C_28
REMARK                            x       y       z     vdW  Elec       q    Type
REMARK                         _______ _______ _______ _____ _____    ______ ____
ROOT
ATOM      1  C   UNL     1      35.020 -21.992 -17.711  0.00  0.00    +0.090 C 
ATOM      2  C   UNL     1      35.241 -20.666 -19.740  0.00  0.00    +0.055 C 
ATOM      3  C   UNL     1      35.781 -21.164 -18.554  0.00  0.00    +0.023 C 
ATOM      4  C   UNL     1      33.704 -22.308 -18.090  0.00  0.00    +0.018 C 
ATOM      5  C   UNL     1      33.934 -20.989 -20.101  0.00  0.00    +0.005 C 
ATOM      6  C   UNL     1      33.165 -21.810 -19.276  0.00  0.00    +0.002 C 
ENDROOT
BRANCH   1   8
ATOM      7  O   UNL     1      39.454 -23.513 -15.469  0.00  0.00    -0.207 OA
ATOM      8  N   UNL     1      35.559 -22.490 -16.530  0.00  0.00    -0.137 N 
ATOM      9  N   UNL     1      34.939 -23.383 -15.713  0.00  0.00    -0.215 N 
ATOM     10  N   UNL     1      36.944 -22.571 -16.416  0.00  0.00    -0.143 NA
ATOM     11  N   UNL     1      35.936 -25.013 -14.164  0.00  0.00    -0.309 NA
ATOM     12  N   UNL     1      38.348 -25.017 -14.094  0.00  0.00    -0.251 NA
ATOM     13  N   UNL     1      37.142 -26.476 -12.765  0.00  0.00    -0.283 N 
ATOM     14  C   UNL     1      35.890 -24.078 -15.039  0.00  0.00    +0.243 C 
ATOM     15  C   UNL     1      37.149 -23.504 -15.539  0.00  0.00    +0.241 C 
ATOM     16  C   UNL     1      38.429 -24.013 -15.029  0.00  0.00    +0.239 C 
ATOM     17  C   UNL     1      37.173 -25.470 -13.704  0.00  0.00    +0.208 C 
ATOM     18  H   UNL     1      33.967 -23.506 -15.626  0.00  0.00    +0.175 HD
ATOM     19  H   UNL     1      36.278 -26.834 -12.456  0.00  0.00    +0.156 HD
ATOM     20  H   UNL     1      37.983 -26.838 -12.404  0.00  0.00    +0.156 HD
ENDBRANCH   1   8
BRANCH   2  23
ATOM     21  O   UNL     1      37.212 -19.522 -20.292  0.00  0.00    -0.270 OA
ATOM     22  N   UNL     1      35.445 -19.362 -21.785  0.00  0.00    -0.297 N 
ATOM     23  C   UNL     1      36.043 -19.811 -20.602  0.00  0.00    +0.246 C 
ATOM     24  H   UNL     1      34.515 -19.628 -21.967  0.00  0.00    +0.150 HD
BRANCH  22  25
ATOM     25  C   UNL     1      36.119 -18.526 -22.752  0.00  0.00    +0.117 C 
BRANCH  25  28
ATOM     26 CL   UNL     1      33.643 -15.031 -25.701  0.00  0.00    -0.082 Cl
ATOM     27 CL   UNL     1      34.781 -14.023 -20.523  0.00  0.00    -0.082 Cl
ATOM     28  C   UNL     1      35.475 -17.175 -22.874  0.00  0.00    -0.001 C 
ATOM     29  C   UNL     1      35.434 -16.331 -21.770  0.00  0.00    +0.009 C 
ATOM     30  C   UNL     1      34.926 -16.782 -24.089  0.00  0.00    +0.009 C 
ATOM     31  C   UNL     1      34.327 -15.527 -24.202  0.00  0.00    +0.058 C 
ATOM     32  C   UNL     1      34.836 -15.076 -21.883  0.00  0.00    +0.058 C 
ATOM     33  C   UNL     1      34.281 -14.674 -23.099  0.00  0.00    +0.023 C 
ENDBRANCH  25  28
ENDBRANCH  22  25
ENDBRANCH   2  23
TORSDOF 4
ENDMDL
MODEL 7
REMARK VINA RESULT:     -11.1      5.409     10.562
REMARK  Name = 448407
REMARK  4 active torsions:
REMARK  status: ('A' for Active; 'I' for Inactive)
REMARK    1  A    between atoms: C_1  and  N_8
REMARK    2  A    between atoms: C_2  and  C_23
REMARK    3  A    between atoms: N_22  and  C_25
REMARK    4  A    between atoms: C_25  and  C_28
REMARK                            x       y       z     vdW  Elec       q    Type
REMARK                         _______ _______ _______ _____ _____    ______ ____
ROOT
ATOM      1  C   UNL     1      35.436 -17.715 -22.349  0.00  0.00    +0.090 C 
ATOM      2  C   UNL     1      34.757 -15.378 -22.384  0.00  0.00    +0.055 C 
ATOM      3  C   UNL     1      35.001 -16.557 -21.680  0.00  0.00    +0.023 C 
ATOM      4  C   UNL     1      35.621 -17.657 -23.741  0.00  0.00    +0.018 C 
ATOM      5  C   UNL     1      34.945 -15.337 -23.765  0.00  0.00    +0.005 C 
ATOM      6  C   UNL     1      35.377 -16.477 -24.444  0.00  0.00    +0.002 C 
ENDROOT
BRANCH   1   8
ATOM      7  O   UNL     1      33.119 -21.600 -19.793  0.00  0.00    -0.207 OA
ATOM      8  N   UNL     1      35.681 -18.891 -21.648  0.00  0.00    -0.137 N 
ATOM      9  N   UNL     1      36.740 -19.092 -20.820  0.00  0.00    -0.215 N 
ATOM     10  N   UNL     1      34.595 -19.685 -21.289  0.00  0.00    -0.143 NA
ATOM     11  N   UNL     1      36.929 -20.605 -18.890  0.00  0.00    -0.309 NA
ATOM     12  N   UNL     1      34.955 -21.907 -18.411  0.00  0.00    -0.251 NA
ATOM     13  N   UNL     1      36.845 -22.130 -17.097  0.00  0.00    -0.283 N 
ATOM     14  C   UNL     1      36.390 -20.019 -19.894  0.00  0.00    +0.243 C 
ATOM     15  C   UNL     1      35.004 -20.355 -20.256  0.00  0.00    +0.241 C 
ATOM     16  C   UNL     1      34.269 -21.349 -19.463  0.00  0.00    +0.239 C 
ATOM     17  C   UNL     1      36.197 -21.544 -18.160  0.00  0.00    +0.208 C 
ATOM     18  H   UNL     1      37.613 -18.641 -20.881  0.00  0.00    +0.175 HD
ATOM     19  H   UNL     1      37.773 -21.879 -16.885  0.00  0.00    +0.156 HD
ATOM     20  H   UNL     1      36.379 -22.800 -16.546  0.00  0.00    +0.156 HD
ENDBRANCH   1   8
BRANCH   2  23
ATOM     21  O   UNL     1      34.956 -13.749 -20.709  0.00  0.00    -0.270 OA
ATOM     22  N   UNL     1      33.146 -13.568 -22.149  0.00  0.00    -0.297 N 
ATOM     23  C   UNL     1      34.309 -14.189 -21.676  0.00  0.00    +0.246 C 
ATOM     24  H   UNL     1      32.684 -13.971 -22.918  0.00  0.00    +0.150 HD
BRANCH  22  25
ATOM     25  C   UNL     1      32.589 -12.369 -21.568  0.00  0.00    +0.117 C 
BRANCH  25  28
ATOM     26 CL   UNL     1      31.470  -7.434 -22.767  0.00  0.00    -0.082 Cl
ATOM     27 CL   UNL     1      35.414 -10.107 -25.302  0.00  0.00    -0.082 Cl
ATOM     28  C   UNL     1      32.878 -11.153 -22.401  0.00  0.00    -0.001 C 
ATOM     29  C   UNL     1      33.893 -11.195 -23.350  0.00  0.00    +0.009 C 
ATOM     30  C   UNL     1      32.126  -9.999 -22.216  0.00  0.00    +0.009 C 
ATOM     31  C   UNL     1      32.394  -8.869 -22.989  0.00  0.00    +0.058 C 
ATOM     32  C   UNL     1      34.161 -10.067 -24.124  0.00  0.00    +0.058 C 
ATOM     33  C   UNL     1      33.411  -8.903 -23.944  0.00  0.00    +0.023 C 
ENDBRANCH  25  28
ENDBRANCH  22  25
ENDBRANCH   2  23
TORSDOF 4
ENDMDL
MODEL 8
REMARK VINA RESULT:     -11.1      3.554      6.326
REMARK  Name = 448407
REMARK  4 active torsions:
REMARK  status: ('A' for Active; 'I' for Inactive)
REMARK    1  A    between atoms: C_1  and  N_8
REMARK    2  A    between atoms: C_2  and  C_23
REMARK    3  A    between atoms: N_22  and  C_25
REMARK    4  A    between atoms: C_25  and  C_28
REMARK                            x       y       z     vdW  Elec       q    Type
REMARK                         _______ _______ _______ _____ _____    ______ ____
ROOT
ATOM      1  C   UNL     1      34.079 -13.503 -23.508  0.00  0.00    +0.090 C 
ATOM      2  C   UNL     1      34.968 -15.718 -23.031  0.00  0.00    +0.055 C 
ATOM      3  C   UNL     1      34.768 -14.389 -22.661  0.00  0.00    +0.023 C 
ATOM      4  C   UNL     1      33.596 -13.988 -24.735  0.00  0.00    +0.018 C 
ATOM      5  C   UNL     1      34.481 -16.184 -24.252  0.00  0.00    +0.005 C 
ATOM      6  C   UNL     1      33.795 -15.318 -25.104  0.00  0.00    +0.002 C 
ENDROOT
BRANCH   1   8
ATOM      7  O   UNL     1      30.915 -10.351 -20.854  0.00  0.00    -0.207 OA
ATOM      8  N   UNL     1      33.879 -12.178 -23.139  0.00  0.00    -0.137 N 
ATOM      9  N   UNL     1      34.141 -11.106 -23.933  0.00  0.00    -0.215 N 
ATOM     10  N   UNL     1      32.881 -11.892 -22.211  0.00  0.00    -0.143 NA
ATOM     11  N   UNL     1      33.112  -8.872 -23.905  0.00  0.00    -0.309 NA
ATOM     12  N   UNL     1      31.402  -8.552 -22.233  0.00  0.00    -0.251 NA
ATOM     13  N   UNL     1      31.969  -6.826 -23.664  0.00  0.00    -0.283 N 
ATOM     14  C   UNL     1      33.330 -10.086 -23.557  0.00  0.00    +0.243 C 
ATOM     15  C   UNL     1      32.551 -10.661 -22.449  0.00  0.00    +0.241 C 
ATOM     16  C   UNL     1      31.544  -9.837 -21.768  0.00  0.00    +0.239 C 
ATOM     17  C   UNL     1      32.145  -8.121 -23.233  0.00  0.00    +0.208 C 
ATOM     18  H   UNL     1      34.806 -11.074 -24.658  0.00  0.00    +0.175 HD
ATOM     19  H   UNL     1      32.509  -6.477 -24.410  0.00  0.00    +0.156 HD
ATOM     20  H   UNL     1      31.301  -6.249 -23.229  0.00  0.00    +0.156 HD
ENDBRANCH   1   8
BRANCH   2  23
ATOM     21  O   UNL     1      35.564 -16.515 -20.908  0.00  0.00    -0.270 OA
ATOM     22  N   UNL     1      36.473 -17.609 -22.740  0.00  0.00    -0.297 N 
ATOM     23  C   UNL     1      35.682 -16.621 -22.142  0.00  0.00    +0.246 C 
ATOM     24  H   UNL     1      36.521 -17.635 -23.722  0.00  0.00    +0.150 HD
BRANCH  22  25
ATOM     25  C   UNL     1      37.222 -18.593 -21.993  0.00  0.00    +0.117 C 
BRANCH  25  28
ATOM     26 CL   UNL     1      36.756 -21.804 -17.930  0.00  0.00    -0.082 Cl
ATOM     27 CL   UNL     1      32.448 -20.268 -20.793  0.00  0.00    -0.082 Cl
ATOM     28  C   UNL     1      36.337 -19.418 -21.104  0.00  0.00    -0.001 C 
ATOM     29  C   UNL     1      34.967 -19.452 -21.337  0.00  0.00    +0.009 C 
ATOM     30  C   UNL     1      36.896 -20.140 -20.056  0.00  0.00    +0.009 C 
ATOM     31  C   UNL     1      36.074 -20.907 -19.230  0.00  0.00    +0.058 C 
ATOM     32  C   UNL     1      34.145 -20.219 -20.513  0.00  0.00    +0.058 C 
ATOM     33  C   UNL     1      34.698 -20.946 -19.458  0.00  0.00    +0.023 C 
ENDBRANCH  25  28
ENDBRANCH  22  25
ENDBRANCH   2  23
TORSDOF 4
ENDMDL
MODEL 9
REMARK VINA RESULT:     -11.1      1.258      2.180
REMARK  Name = 448407
REMARK  4 active torsions:
REMARK  status: ('A' for Active; 'I' for Inactive)
REMARK    1  A    between atoms: C_1  and  N_8
REMARK    2  A    between atoms: C_2  and  C_23
REMARK    3  A    between atoms: N_22  and  C_25
REMARK    4  A    between atoms: C_25  and  C_28
REMARK                            x       y       z     vdW  Elec       q    Type
REMARK                         _______ _______ _______ _____ _____    ______ ____
ROOT
ATOM      1  C   UNL     1      35.905 -19.548 -21.157  0.00  0.00    +0.090 C 
ATOM      2  C   UNL     1      35.178 -21.226 -19.550  0.00  0.00    +0.055 C 
ATOM      3  C   UNL     1      34.938 -20.453 -20.686  0.00  0.00    +0.023 C 
ATOM      4  C   UNL     1      37.121 -19.442 -20.459  0.00  0.00    +0.018 C 
ATOM      5  C   UNL     1      36.389 -21.108 -18.869  0.00  0.00    +0.005 C 
ATOM      6  C   UNL     1      37.361 -20.215 -19.324  0.00  0.00    +0.002 C 
ENDROOT
BRANCH   1   8
ATOM      7  O   UNL     1      35.444 -14.657 -22.848  0.00  0.00    -0.207 OA
ATOM      8  N   UNL     1      35.667 -18.778 -22.289  0.00  0.00    -0.137 N 
ATOM      9  N   UNL     1      34.803 -19.113 -23.285  0.00  0.00    -0.215 N 
ATOM     10  N   UNL     1      35.828 -17.398 -22.198  0.00  0.00    -0.143 NA
ATOM     11  N   UNL     1      33.582 -17.643 -24.833  0.00  0.00    -0.309 NA
ATOM     12  N   UNL     1      33.980 -15.282 -24.533  0.00  0.00    -0.251 NA
ATOM     13  N   UNL     1      32.537 -16.019 -26.183  0.00  0.00    -0.283 N 
ATOM     14  C   UNL     1      34.370 -17.972 -23.877  0.00  0.00    +0.243 C 
ATOM     15  C   UNL     1      35.068 -16.914 -23.131  0.00  0.00    +0.241 C 
ATOM     16  C   UNL     1      34.848 -15.508 -23.492  0.00  0.00    +0.239 C 
ATOM     17  C   UNL     1      33.398 -16.294 -25.145  0.00  0.00    +0.208 C 
ATOM     18  H   UNL     1      34.536 -20.027 -23.533  0.00  0.00    +0.175 HD
ATOM     19  H   UNL     1      32.088 -16.755 -26.659  0.00  0.00    +0.156 HD
ATOM     20  H   UNL     1      32.369 -15.086 -26.449  0.00  0.00    +0.156 HD
ENDBRANCH   1   8
BRANCH   2  23
ATOM     21  O   UNL     1      34.099 -23.307 -19.547  0.00  0.00    -0.270 OA
ATOM     22  N   UNL     1      33.308 -21.705 -18.068  0.00  0.00    -0.297 N 
ATOM     23  C   UNL     1      34.167 -22.158 -19.077  0.00  0.00    +0.246 C 
ATOM     24  H   UNL     1      33.417 -20.783 -17.743  0.00  0.00    +0.150 HD
BRANCH  22  25
ATOM     25  C   UNL     1      32.269 -22.520 -17.480  0.00  0.00    +0.117 C 
BRANCH  25  28
ATOM     26 CL   UNL     1      36.006 -23.512 -14.003  0.00  0.00    -0.082 Cl
ATOM     27 CL   UNL     1      30.822 -24.540 -12.912  0.00  0.00    -0.082 Cl
ATOM     28  C   UNL     1      32.656 -23.029 -16.121  0.00  0.00    -0.001 C 
ATOM     29  C   UNL     1      31.672 -23.491 -15.254  0.00  0.00    +0.009 C 
ATOM     30  C   UNL     1      33.993 -23.032 -15.743  0.00  0.00    +0.009 C 
ATOM     31  C   UNL     1      34.353 -23.504 -14.481  0.00  0.00    +0.058 C 
ATOM     32  C   UNL     1      32.031 -23.964 -13.993  0.00  0.00    +0.058 C 
ATOM     33  C   UNL     1      33.372 -23.970 -13.605  0.00  0.00    +0.023 C 
ENDBRANCH  25  28
ENDBRANCH  22  25
ENDBRANCH   2  23
TORSDOF 4
ENDMDL
