MODEL 1
REMARK VINA RESULT:     -11.5      0.000      0.000
REMARK  Name = 10401956
REMARK  3 active torsions:
REMARK  status: ('A' for Active; 'I' for Inactive)
REMARK    1  A    between atoms: N_1  and  C_13
REMARK    2  A    between atoms: C_8  and  N_20
REMARK    3  A    between atoms: C_21  and  C_23
REMARK                            x       y       z     vdW  Elec       q    Type
REMARK                         _______ _______ _______ _____ _____    ______ ____
ROOT
ATOM      1  N   UNL     1      32.996 -22.046 -18.323  0.00  0.00    -0.301 N 
ATOM      2  N   UNL     1      33.849 -24.124 -14.847  0.00  0.00    -0.248 NA
ATOM      3  N   UNL     1      34.532 -23.198 -16.964  0.00  0.00    -0.233 NA
ATOM      4  C   UNL     1      32.250 -22.956 -16.203  0.00  0.00    +0.117 C 
ATOM      5  C   UNL     1      32.599 -23.668 -15.043  0.00  0.00    +0.067 C 
ATOM      6  C   UNL     1      33.271 -22.755 -17.128  0.00  0.00    +0.115 C 
ATOM      7  C   UNL     1      30.941 -22.484 -16.396  0.00  0.00    +0.001 C 
ATOM      8  C   UNL     1      29.967 -22.720 -15.431  0.00  0.00    +0.047 C 
ATOM      9  C   UNL     1      31.604 -23.889 -14.093  0.00  0.00    +0.016 C 
ATOM     10  C   UNL     1      30.299 -23.422 -14.278  0.00  0.00    +0.016 C 
ATOM     11  C   UNL     1      34.747 -23.864 -15.819  0.00  0.00    +0.251 C 
ATOM     12  H   UNL     1      32.053 -22.033 -18.609  0.00  0.00    +0.153 HD
ENDROOT
BRANCH   1  13
ATOM     13  C   UNL     1      33.883 -21.369 -19.140  0.00  0.00    +0.049 C 
ATOM     14  C   UNL     1      35.271 -21.592 -19.046  0.00  0.00    +0.015 C 
ATOM     15  C   UNL     1      33.425 -20.434 -20.090  0.00  0.00    +0.015 C 
ATOM     16  C   UNL     1      36.165 -20.907 -19.868  0.00  0.00    +0.001 C 
ATOM     17  C   UNL     1      34.321 -19.750 -20.912  0.00  0.00    +0.001 C 
ATOM     18  C   UNL     1      35.691 -19.987 -20.801  0.00  0.00    +0.000 C 
ENDBRANCH   1  13
BRANCH   8  20
ATOM     19  O   UNL     1      27.978 -23.320 -17.599  0.00  0.00    -0.270 OA
ATOM     20  N   UNL     1      28.666 -22.253 -15.617  0.00  0.00    -0.281 N 
ATOM     21  C   UNL     1      27.775 -22.568 -16.654  0.00  0.00    +0.250 C 
ATOM     22  H   UNL     1      28.331 -21.625 -14.937  0.00  0.00    +0.155 HD
BRANCH  21  23
ATOM     23  C   UNL     1      26.473 -21.859 -16.495  0.00  0.00    +0.058 C 
ATOM     24  C   UNL     1      26.025 -21.038 -17.450  0.00  0.00    +0.005 C 
ENDBRANCH  21  23
ENDBRANCH   8  20
TORSDOF 3
ENDMDL
MODEL 2
REMARK VINA RESULT:     -10.3      2.819      3.777
REMARK  Name = 10401956
REMARK  3 active torsions:
REMARK  status: ('A' for Active; 'I' for Inactive)
REMARK    1  A    between atoms: N_1  and  C_13
REMARK    2  A    between atoms: C_8  and  N_20
REMARK    3  A    between atoms: C_21  and  C_23
REMARK                            x       y       z     vdW  Elec       q    Type
REMARK                         _______ _______ _______ _____ _____    ______ ____
ROOT
ATOM      1  N   UNL     1      34.788 -22.295 -17.948  0.00  0.00    -0.301 N 
ATOM      2  N   UNL     1      37.714 -22.385 -15.022  0.00  0.00    -0.248 NA
ATOM      3  N   UNL     1      36.966 -21.769 -17.228  0.00  0.00    -0.233 NA
ATOM      4  C   UNL     1      35.486 -22.940 -15.717  0.00  0.00    +0.117 C 
ATOM      5  C   UNL     1      36.517 -22.941 -14.763  0.00  0.00    +0.067 C 
ATOM      6  C   UNL     1      35.778 -22.334 -16.935  0.00  0.00    +0.115 C 
ATOM      7  C   UNL     1      34.239 -23.524 -15.435  0.00  0.00    +0.001 C 
ATOM      8  C   UNL     1      34.011 -24.114 -14.196  0.00  0.00    +0.047 C 
ATOM      9  C   UNL     1      36.261 -23.539 -13.531  0.00  0.00    +0.016 C 
ATOM     10  C   UNL     1      35.023 -24.121 -13.242  0.00  0.00    +0.016 C 
ATOM     11  C   UNL     1      37.872 -21.830 -16.241  0.00  0.00    +0.251 C 
ATOM     12  H   UNL     1      34.083 -22.980 -17.888  0.00  0.00    +0.153 HD
ENDROOT
BRANCH   1  13
ATOM     13  C   UNL     1      34.685 -21.414 -19.010  0.00  0.00    +0.049 C 
ATOM     14  C   UNL     1      35.835 -20.931 -19.666  0.00  0.00    +0.015 C 
ATOM     15  C   UNL     1      33.427 -20.974 -19.466  0.00  0.00    +0.015 C 
ATOM     16  C   UNL     1      35.730 -20.043 -20.736  0.00  0.00    +0.001 C 
ATOM     17  C   UNL     1      33.324 -20.085 -20.536  0.00  0.00    +0.001 C 
ATOM     18  C   UNL     1      34.476 -19.620 -21.171  0.00  0.00    +0.000 C 
ENDBRANCH   1  13
BRANCH   8  20
ATOM     19  O   UNL     1      31.301 -22.859 -13.879  0.00  0.00    -0.270 OA
ATOM     20  N   UNL     1      32.775 -24.694 -13.910  0.00  0.00    -0.281 N 
ATOM     21  C   UNL     1      31.533 -24.057 -13.773  0.00  0.00    +0.250 C 
ATOM     22  H   UNL     1      32.775 -25.671 -13.790  0.00  0.00    +0.155 HD
BRANCH  21  23
ATOM     23  C   UNL     1      30.447 -25.032 -13.464  0.00  0.00    +0.058 C 
ATOM     24  C   UNL     1      29.564 -25.386 -14.403  0.00  0.00    +0.005 C 
ENDBRANCH  21  23
ENDBRANCH   8  20
TORSDOF 3
ENDMDL
MODEL 3
REMARK VINA RESULT:     -10.3      1.457      2.188
REMARK  Name = 10401956
REMARK  3 active torsions:
REMARK  status: ('A' for Active; 'I' for Inactive)
REMARK    1  A    between atoms: N_1  and  C_13
REMARK    2  A    between atoms: C_8  and  N_20
REMARK    3  A    between atoms: C_21  and  C_23
REMARK                            x       y       z     vdW  Elec       q    Type
REMARK                         _______ _______ _______ _____ _____    ______ ____
ROOT
ATOM      1  N   UNL     1      34.362 -22.046 -18.301  0.00  0.00    -0.301 N 
ATOM      2  N   UNL     1      36.136 -23.202 -14.745  0.00  0.00    -0.248 NA
ATOM      3  N   UNL     1      36.293 -22.343 -16.991  0.00  0.00    -0.233 NA
ATOM      4  C   UNL     1      34.142 -22.914 -16.047  0.00  0.00    +0.117 C 
ATOM      5  C   UNL     1      34.800 -23.292 -14.865  0.00  0.00    +0.067 C 
ATOM      6  C   UNL     1      34.953 -22.446 -17.077  0.00  0.00    +0.115 C 
ATOM      7  C   UNL     1      32.745 -23.012 -16.161  0.00  0.00    +0.001 C 
ATOM      8  C   UNL     1      31.992 -23.490 -15.093  0.00  0.00    +0.047 C 
ATOM      9  C   UNL     1      34.021 -23.766 -13.811  0.00  0.00    +0.016 C 
ATOM     10  C   UNL     1      32.630 -23.867 -13.917  0.00  0.00    +0.016 C 
ATOM     11  C   UNL     1      36.810 -22.732 -15.814  0.00  0.00    +0.251 C 
ATOM     12  H   UNL     1      33.478 -22.433 -18.498  0.00  0.00    +0.153 HD
ENDROOT
BRANCH   1  13
ATOM     13  C   UNL     1      34.869 -21.181 -19.253  0.00  0.00    +0.049 C 
ATOM     14  C   UNL     1      34.013 -20.484 -20.129  0.00  0.00    +0.015 C 
ATOM     15  C   UNL     1      36.257 -20.971 -19.376  0.00  0.00    +0.015 C 
ATOM     16  C   UNL     1      34.524 -19.613 -21.090  0.00  0.00    +0.001 C 
ATOM     17  C   UNL     1      36.767 -20.099 -20.339  0.00  0.00    +0.001 C 
ATOM     18  C   UNL     1      35.901 -19.420 -21.195  0.00  0.00    +0.000 C 
ENDBRANCH   1  13
BRANCH   8  20
ATOM     19  O   UNL     1      30.080 -22.100 -16.946  0.00  0.00    -0.270 OA
ATOM     20  N   UNL     1      30.604 -23.589 -15.200  0.00  0.00    -0.281 N 
ATOM     21  C   UNL     1      29.756 -22.913 -16.089  0.00  0.00    +0.250 C 
ATOM     22  H   UNL     1      30.167 -24.210 -14.574  0.00  0.00    +0.155 HD
BRANCH  21  23
ATOM     23  C   UNL     1      28.329 -23.295 -15.885  0.00  0.00    +0.058 C 
ATOM     24  C   UNL     1      27.424 -22.377 -15.530  0.00  0.00    +0.005 C 
ENDBRANCH  21  23
ENDBRANCH   8  20
TORSDOF 3
ENDMDL
MODEL 4
REMARK VINA RESULT:     -10.2      3.269      7.502
REMARK  Name = 10401956
REMARK  3 active torsions:
REMARK  status: ('A' for Active; 'I' for Inactive)
REMARK    1  A    between atoms: N_1  and  C_13
REMARK    2  A    between atoms: C_8  and  N_20
REMARK    3  A    between atoms: C_21  and  C_23
REMARK                            x       y       z     vdW  Elec       q    Type
REMARK                         _______ _______ _______ _____ _____    ______ ____
ROOT
ATOM      1  N   UNL     1      32.707 -23.589 -16.104  0.00  0.00    -0.301 N 
ATOM      2  N   UNL     1      34.846 -21.487 -18.956  0.00  0.00    -0.248 NA
ATOM      3  N   UNL     1      32.788 -22.457 -18.164  0.00  0.00    -0.233 NA
ATOM      4  C   UNL     1      34.808 -22.633 -16.849  0.00  0.00    +0.117 C 
ATOM      5  C   UNL     1      35.482 -21.915 -17.851  0.00  0.00    +0.067 C 
ATOM      6  C   UNL     1      33.454 -22.871 -17.070  0.00  0.00    +0.115 C 
ATOM      7  C   UNL     1      35.482 -23.075 -15.698  0.00  0.00    +0.001 C 
ATOM      8  C   UNL     1      36.838 -22.804 -15.538  0.00  0.00    +0.047 C 
ATOM      9  C   UNL     1      36.838 -21.658 -17.664  0.00  0.00    +0.016 C 
ATOM     10  C   UNL     1      37.516 -22.094 -16.522  0.00  0.00    +0.016 C 
ATOM     11  C   UNL     1      33.534 -21.781 -19.052  0.00  0.00    +0.251 C 
ATOM     12  H   UNL     1      33.227 -24.177 -15.508  0.00  0.00    +0.153 HD
ENDROOT
BRANCH   1  13
ATOM     13  C   UNL     1      31.341 -23.568 -15.890  0.00  0.00    +0.049 C 
ATOM     14  C   UNL     1      30.683 -24.661 -15.293  0.00  0.00    +0.015 C 
ATOM     15  C   UNL     1      30.566 -22.452 -16.265  0.00  0.00    +0.015 C 
ATOM     16  C   UNL     1      29.306 -24.640 -15.079  0.00  0.00    +0.001 C 
ATOM     17  C   UNL     1      29.188 -22.433 -16.051  0.00  0.00    +0.001 C 
ATOM     18  C   UNL     1      28.558 -23.527 -15.457  0.00  0.00    +0.000 C 
ENDBRANCH   1  13
BRANCH   8  20
ATOM     19  O   UNL     1      37.761 -25.553 -14.758  0.00  0.00    -0.270 OA
ATOM     20  N   UNL     1      37.512 -23.240 -14.397  0.00  0.00    -0.281 N 
ATOM     21  C   UNL     1      37.922 -24.544 -14.082  0.00  0.00    +0.250 C 
ATOM     22  H   UNL     1      37.726 -22.547 -13.731  0.00  0.00    +0.155 HD
BRANCH  21  23
ATOM     23  C   UNL     1      38.616 -24.598 -12.762  0.00  0.00    +0.058 C 
ATOM     24  C   UNL     1      38.072 -24.023 -11.685  0.00  0.00    +0.005 C 
ENDBRANCH  21  23
ENDBRANCH   8  20
TORSDOF 3
ENDMDL
MODEL 5
REMARK VINA RESULT:      -9.6     11.402     14.283
REMARK  Name = 10401956
REMARK  3 active torsions:
REMARK  status: ('A' for Active; 'I' for Inactive)
REMARK    1  A    between atoms: N_1  and  C_13
REMARK    2  A    between atoms: C_8  and  N_20
REMARK    3  A    between atoms: C_21  and  C_23
REMARK                            x       y       z     vdW  Elec       q    Type
REMARK                         _______ _______ _______ _____ _____    ______ ____
ROOT
ATOM      1  N   UNL     1      33.217  -8.379 -23.024  0.00  0.00    -0.301 N 
ATOM      2  N   UNL     1      31.785  -9.760 -19.395  0.00  0.00    -0.248 NA
ATOM      3  N   UNL     1      32.417  -7.949 -20.853  0.00  0.00    -0.233 NA
ATOM      4  C   UNL     1      32.596 -10.242 -21.600  0.00  0.00    +0.117 C 
ATOM      5  C   UNL     1      32.106 -10.651 -20.349  0.00  0.00    +0.067 C 
ATOM      6  C   UNL     1      32.728  -8.869 -21.787  0.00  0.00    +0.115 C 
ATOM      7  C   UNL     1      32.927 -11.182 -22.591  0.00  0.00    +0.001 C 
ATOM      8  C   UNL     1      32.771 -12.542 -22.339  0.00  0.00    +0.047 C 
ATOM      9  C   UNL     1      31.959 -12.018 -20.125  0.00  0.00    +0.016 C 
ATOM     10  C   UNL     1      32.287 -12.960 -21.105  0.00  0.00    +0.016 C 
ATOM     11  C   UNL     1      31.958  -8.458 -19.699  0.00  0.00    +0.251 C 
ATOM     12  H   UNL     1      33.759  -9.009 -23.552  0.00  0.00    +0.153 HD
ENDROOT
BRANCH   1  13
ATOM     13  C   UNL     1      33.029  -7.128 -23.583  0.00  0.00    +0.049 C 
ATOM     14  C   UNL     1      31.750  -6.700 -23.990  0.00  0.00    +0.015 C 
ATOM     15  C   UNL     1      34.112  -6.245 -23.763  0.00  0.00    +0.015 C 
ATOM     16  C   UNL     1      31.561  -5.440 -24.556  0.00  0.00    +0.001 C 
ATOM     17  C   UNL     1      33.922  -4.984 -24.329  0.00  0.00    +0.001 C 
ATOM     18  C   UNL     1      32.646  -4.582 -24.725  0.00  0.00    +0.000 C 
ENDBRANCH   1  13
BRANCH   8  20
ATOM     19  O   UNL     1      35.224 -14.244 -22.659  0.00  0.00    -0.270 OA
ATOM     20  N   UNL     1      33.098 -13.479 -23.318  0.00  0.00    -0.281 N 
ATOM     21  C   UNL     1      34.265 -14.251 -23.420  0.00  0.00    +0.250 C 
ATOM     22  H   UNL     1      32.427 -13.616 -24.026  0.00  0.00    +0.155 HD
BRANCH  21  23
ATOM     23  C   UNL     1      34.234 -15.140 -24.618  0.00  0.00    +0.058 C 
ATOM     24  C   UNL     1      34.764 -16.366 -24.568  0.00  0.00    +0.005 C 
ENDBRANCH  21  23
ENDBRANCH   8  20
TORSDOF 3
ENDMDL
MODEL 6
REMARK VINA RESULT:      -9.5      2.881      5.755
REMARK  Name = 10401956
REMARK  3 active torsions:
REMARK  status: ('A' for Active; 'I' for Inactive)
REMARK    1  A    between atoms: N_1  and  C_13
REMARK    2  A    between atoms: C_8  and  N_20
REMARK    3  A    between atoms: C_21  and  C_23
REMARK                            x       y       z     vdW  Elec       q    Type
REMARK                         _______ _______ _______ _____ _____    ______ ____
ROOT
ATOM      1  N   UNL     1      35.700 -23.371 -14.456  0.00  0.00    -0.301 N 
ATOM      2  N   UNL     1      36.686 -21.631 -18.080  0.00  0.00    -0.248 NA
ATOM      3  N   UNL     1      37.317 -22.483 -15.916  0.00  0.00    -0.233 NA
ATOM      4  C   UNL     1      35.005 -22.528 -16.621  0.00  0.00    +0.117 C 
ATOM      5  C   UNL     1      35.399 -21.936 -17.832  0.00  0.00    +0.067 C 
ATOM      6  C   UNL     1      36.020 -22.776 -15.701  0.00  0.00    +0.115 C 
ATOM      7  C   UNL     1      33.658 -22.842 -16.374  0.00  0.00    +0.001 C 
ATOM      8  C   UNL     1      32.692 -22.568 -17.337  0.00  0.00    +0.047 C 
ATOM      9  C   UNL     1      34.411 -21.673 -18.779  0.00  0.00    +0.016 C 
ATOM     10  C   UNL     1      33.069 -21.982 -18.541  0.00  0.00    +0.016 C 
ATOM     11  C   UNL     1      37.574 -21.922 -17.107  0.00  0.00    +0.251 C 
ATOM     12  H   UNL     1      34.768 -23.264 -14.155  0.00  0.00    +0.153 HD
ENDROOT
BRANCH   1  13
ATOM     13  C   UNL     1      36.529 -24.084 -13.610  0.00  0.00    +0.049 C 
ATOM     14  C   UNL     1      36.819 -25.441 -13.852  0.00  0.00    +0.015 C 
ATOM     15  C   UNL     1      37.108 -23.474 -12.480  0.00  0.00    +0.015 C 
ATOM     16  C   UNL     1      37.654 -26.160 -12.998  0.00  0.00    +0.001 C 
ATOM     17  C   UNL     1      37.944 -24.195 -11.625  0.00  0.00    +0.001 C 
ATOM     18  C   UNL     1      38.217 -25.538 -11.885  0.00  0.00    +0.000 C 
ENDBRANCH   1  13
BRANCH   8  20
ATOM     19  O   UNL     1      31.082 -22.411 -14.807  0.00  0.00    -0.270 OA
ATOM     20  N   UNL     1      31.353 -22.878 -17.098  0.00  0.00    -0.281 N 
ATOM     21  C   UNL     1      30.648 -22.785 -15.889  0.00  0.00    +0.250 C 
ATOM     22  H   UNL     1      30.840 -23.202 -17.873  0.00  0.00    +0.155 HD
BRANCH  21  23
ATOM     23  C   UNL     1      29.227 -23.213 -16.047  0.00  0.00    +0.058 C 
ATOM     24  C   UNL     1      28.232 -22.451 -15.582  0.00  0.00    +0.005 C 
ENDBRANCH  21  23
ENDBRANCH   8  20
TORSDOF 3
ENDMDL
MODEL 7
REMARK VINA RESULT:      -9.5      2.673      6.932
REMARK  Name = 10401956
REMARK  3 active torsions:
REMARK  status: ('A' for Active; 'I' for Inactive)
REMARK    1  A    between atoms: N_1  and  C_13
REMARK    2  A    between atoms: C_8  and  N_20
REMARK    3  A    between atoms: C_21  and  C_23
REMARK                            x       y       z     vdW  Elec       q    Type
REMARK                         _______ _______ _______ _____ _____    ______ ____
ROOT
ATOM      1  N   UNL     1      32.794 -22.947 -15.120  0.00  0.00    -0.301 N 
ATOM      2  N   UNL     1      36.206 -24.058 -13.060  0.00  0.00    -0.248 NA
ATOM      3  N   UNL     1      33.807 -23.972 -13.261  0.00  0.00    -0.233 NA
ATOM      4  C   UNL     1      35.214 -23.004 -14.972  0.00  0.00    +0.117 C 
ATOM      5  C   UNL     1      36.335 -23.405 -14.228  0.00  0.00    +0.067 C 
ATOM      6  C   UNL     1      33.972 -23.320 -14.428  0.00  0.00    +0.115 C 
ATOM      7  C   UNL     1      35.361 -22.322 -16.192  0.00  0.00    +0.001 C 
ATOM      8  C   UNL     1      36.632 -22.036 -16.681  0.00  0.00    +0.047 C 
ATOM      9  C   UNL     1      37.596 -23.106 -14.741  0.00  0.00    +0.016 C 
ATOM     10  C   UNL     1      37.750 -22.429 -15.955  0.00  0.00    +0.016 C 
ATOM     11  C   UNL     1      34.949 -24.306 -12.640  0.00  0.00    +0.251 C 
ATOM     12  H   UNL     1      32.885 -22.197 -15.753  0.00  0.00    +0.153 HD
ENDROOT
BRANCH   1  13
ATOM     13  C   UNL     1      31.531 -23.503 -15.022  0.00  0.00    +0.049 C 
ATOM     14  C   UNL     1      30.381 -22.750 -15.331  0.00  0.00    +0.015 C 
ATOM     15  C   UNL     1      31.358 -24.839 -14.608  0.00  0.00    +0.015 C 
ATOM     16  C   UNL     1      29.108 -23.311 -15.230  0.00  0.00    +0.001 C 
ATOM     17  C   UNL     1      30.084 -25.398 -14.508  0.00  0.00    +0.001 C 
ATOM     18  C   UNL     1      28.959 -24.634 -14.819  0.00  0.00    +0.000 C 
ENDBRANCH   1  13
BRANCH   8  20
ATOM     19  O   UNL     1      35.214 -22.402 -19.303  0.00  0.00    -0.270 OA
ATOM     20  N   UNL     1      36.783 -21.360 -17.892  0.00  0.00    -0.281 N 
ATOM     21  C   UNL     1      36.090 -21.573 -19.092  0.00  0.00    +0.250 C 
ATOM     22  H   UNL     1      37.461 -20.646 -17.905  0.00  0.00    +0.155 HD
BRANCH  21  23
ATOM     23  C   UNL     1      36.547 -20.640 -20.163  0.00  0.00    +0.058 C 
ATOM     24  C   UNL     1      35.688 -19.789 -20.735  0.00  0.00    +0.005 C 
ENDBRANCH  21  23
ENDBRANCH   8  20
TORSDOF 3
ENDMDL
MODEL 8
REMARK VINA RESULT:      -9.4     11.109     14.283
REMARK  Name = 10401956
REMARK  3 active torsions:
REMARK  status: ('A' for Active; 'I' for Inactive)
REMARK    1  A    between atoms: N_1  and  C_13
REMARK    2  A    between atoms: C_8  and  N_20
REMARK    3  A    between atoms: C_21  and  C_23
REMARK                            x       y       z     vdW  Elec       q    Type
REMARK                         _______ _______ _______ _____ _____    ______ ____
ROOT
ATOM      1  N   UNL     1      33.272 -12.132 -23.510  0.00  0.00    -0.301 N 
ATOM      2  N   UNL     1      31.512 -10.669 -20.062  0.00  0.00    -0.248 NA
ATOM      3  N   UNL     1      32.164 -12.512 -21.470  0.00  0.00    -0.233 NA
ATOM      4  C   UNL     1      32.640 -10.237 -22.134  0.00  0.00    +0.117 C 
ATOM      5  C   UNL     1      32.030  -9.799 -20.947  0.00  0.00    +0.067 C 
ATOM      6  C   UNL     1      32.674 -11.614 -22.335  0.00  0.00    +0.115 C 
ATOM      7  C   UNL     1      33.179  -9.319 -23.052  0.00  0.00    +0.001 C 
ATOM      8  C   UNL     1      33.112  -7.954 -22.792  0.00  0.00    +0.047 C 
ATOM      9  C   UNL     1      31.978  -8.427 -20.712  0.00  0.00    +0.016 C 
ATOM     10  C   UNL     1      32.511  -7.508 -21.620  0.00  0.00    +0.016 C 
ATOM     11  C   UNL     1      31.608 -11.978 -20.372  0.00  0.00    +0.251 C 
ATOM     12  H   UNL     1      33.321 -11.515 -24.276  0.00  0.00    +0.153 HD
ENDROOT
BRANCH   1  13
ATOM     13  C   UNL     1      33.799 -13.394 -23.717  0.00  0.00    +0.049 C 
ATOM     14  C   UNL     1      34.731 -13.948 -22.818  0.00  0.00    +0.015 C 
ATOM     15  C   UNL     1      33.419 -14.162 -24.836  0.00  0.00    +0.015 C 
ATOM     16  C   UNL     1      35.262 -15.220 -23.028  0.00  0.00    +0.001 C 
ATOM     17  C   UNL     1      33.952 -15.435 -25.045  0.00  0.00    +0.001 C 
ATOM     18  C   UNL     1      34.873 -15.964 -24.141  0.00  0.00    +0.000 C 
ENDBRANCH   1  13
BRANCH   8  20
ATOM     19  O   UNL     1      35.964  -7.179 -23.323  0.00  0.00    -0.270 OA
ATOM     20  N   UNL     1      33.645  -7.039 -23.699  0.00  0.00    -0.281 N 
ATOM     21  C   UNL     1      34.993  -6.714 -23.907  0.00  0.00    +0.250 C 
ATOM     22  H   UNL     1      32.994  -6.562 -24.263  0.00  0.00    +0.155 HD
BRANCH  21  23
ATOM     23  C   UNL     1      35.152  -5.681 -24.972  0.00  0.00    +0.058 C 
ATOM     24  C   UNL     1      34.205  -4.759 -25.171  0.00  0.00    +0.005 C 
ENDBRANCH  21  23
ENDBRANCH   8  20
TORSDOF 3
ENDMDL
MODEL 9
REMARK VINA RESULT:      -9.4     12.299     15.018
REMARK  Name = 10401956
REMARK  3 active torsions:
REMARK  status: ('A' for Active; 'I' for Inactive)
REMARK    1  A    between atoms: N_1  and  C_13
REMARK    2  A    between atoms: C_8  and  N_20
REMARK    3  A    between atoms: C_21  and  C_23
REMARK                            x       y       z     vdW  Elec       q    Type
REMARK                         _______ _______ _______ _____ _____    ______ ____
ROOT
ATOM      1  N   UNL     1      33.329  -7.592 -23.185  0.00  0.00    -0.301 N 
ATOM      2  N   UNL     1      31.961  -8.296 -19.344  0.00  0.00    -0.248 NA
ATOM      3  N   UNL     1      32.718  -6.786 -21.061  0.00  0.00    -0.233 NA
ATOM      4  C   UNL     1      32.575  -9.160 -21.496  0.00  0.00    +0.117 C 
ATOM      5  C   UNL     1      32.115  -9.338 -20.181  0.00  0.00    +0.067 C 
ATOM      6  C   UNL     1      32.860  -7.851 -21.874  0.00  0.00    +0.115 C 
ATOM      7  C   UNL     1      32.731 -10.255 -22.362  0.00  0.00    +0.001 C 
ATOM      8  C   UNL     1      32.428 -11.540 -21.921  0.00  0.00    +0.047 C 
ATOM      9  C   UNL     1      31.818 -10.634 -19.766  0.00  0.00    +0.016 C 
ATOM     10  C   UNL     1      31.971 -11.729 -20.622  0.00  0.00    +0.016 C 
ATOM     11  C   UNL     1      32.271  -7.077 -19.830  0.00  0.00    +0.251 C 
ATOM     12  H   UNL     1      33.758  -8.349 -23.646  0.00  0.00    +0.153 HD
ENDROOT
BRANCH   1  13
ATOM     13  C   UNL     1      33.260  -6.411 -23.902  0.00  0.00    +0.049 C 
ATOM     14  C   UNL     1      34.427  -5.775 -24.368  0.00  0.00    +0.015 C 
ATOM     15  C   UNL     1      32.018  -5.808 -24.185  0.00  0.00    +0.015 C 
ATOM     16  C   UNL     1      34.357  -4.584 -25.088  0.00  0.00    +0.001 C 
ATOM     17  C   UNL     1      31.949  -4.615 -24.906  0.00  0.00    +0.001 C 
ATOM     18  C   UNL     1      33.119  -4.003 -25.358  0.00  0.00    +0.000 C 
ENDBRANCH   1  13
BRANCH   8  20
ATOM     19  O   UNL     1      34.888 -13.086 -22.679  0.00  0.00    -0.270 OA
ATOM     20  N   UNL     1      32.581 -12.631 -22.777  0.00  0.00    -0.281 N 
ATOM     21  C   UNL     1      33.760 -13.319 -23.097  0.00  0.00    +0.250 C 
ATOM     22  H   UNL     1      31.759 -12.958 -23.210  0.00  0.00    +0.155 HD
BRANCH  21  23
ATOM     23  C   UNL     1      33.503 -14.433 -24.055  0.00  0.00    +0.058 C 
ATOM     24  C   UNL     1      33.561 -14.221 -25.374  0.00  0.00    +0.005 C 
ENDBRANCH  21  23
ENDBRANCH   8  20
TORSDOF 3
ENDMDL
