MODEL 1
REMARK VINA RESULT:     -12.4      0.000      0.000
REMARK  Name = 25174099
REMARK  5 active torsions:
REMARK  status: ('A' for Active; 'I' for Inactive)
REMARK    1  A    between atoms: C_5  and  C_33
REMARK    2  A    between atoms: C_14  and  C_18
REMARK    3  A    between atoms: N_17  and  C_20
REMARK    4  A    between atoms: C_20  and  C_24
REMARK    5  A    between atoms: C_33  and  C_36
REMARK                            x       y       z     vdW  Elec       q    Type
REMARK                         _______ _______ _______ _____ _____    ______ ____
ROOT
ATOM      1  S   UNL     1      34.624 -23.893 -14.463  0.00  0.00    -0.064 S 
ATOM      2  O   UNL     1      31.783 -22.289 -18.175  0.00  0.00    -0.274 OA
ATOM      3  N   UNL     1      35.586 -22.555 -16.573  0.00  0.00    -0.379 NA
ATOM      4  N   UNL     1      34.052 -21.855 -18.269  0.00  0.00    -0.255 N 
ATOM      5  C   UNL     1      30.767 -23.783 -15.611  0.00  0.00    +0.028 C 
ATOM      6  C   UNL     1      30.234 -24.924 -14.710  0.00  0.00    +0.005 C 
ATOM      7  C   UNL     1      32.267 -23.662 -15.486  0.00  0.00    -0.027 C 
ATOM      8  C   UNL     1      30.814 -24.867 -13.289  0.00  0.00    +0.006 C 
ATOM      9  C   UNL     1      32.343 -24.991 -13.293  0.00  0.00    +0.032 C 
ATOM     10  C   UNL     1      32.950 -24.190 -14.404  0.00  0.00    +0.002 C 
ATOM     11  C   UNL     1      33.173 -23.028 -16.399  0.00  0.00    +0.154 C 
ATOM     12  C   UNL     1      34.487 -23.072 -15.953  0.00  0.00    +0.152 C 
ATOM     13  C   UNL     1      32.901 -22.371 -17.675  0.00  0.00    +0.239 C 
ATOM     14  C   UNL     1      35.310 -21.971 -17.699  0.00  0.00    +0.240 C 
ATOM     15  H   UNL     1      33.967 -21.387 -19.131  0.00  0.00    +0.157 HD
ENDROOT
BRANCH  14  18
ATOM     16  O   UNL     1      37.559 -21.668 -18.186  0.00  0.00    -0.266 OA
ATOM     17  N   UNL     1      35.975 -20.506 -19.467  0.00  0.00    -0.294 N 
ATOM     18  C   UNL     1      36.411 -21.363 -18.480  0.00  0.00    +0.290 C 
ATOM     19  H   UNL     1      35.006 -20.369 -19.573  0.00  0.00    +0.150 HD
BRANCH  17  20
ATOM     20  C   UNL     1      36.872 -19.801 -20.354  0.00  0.00    +0.117 C 
BRANCH  20  24
ATOM     21  O   UNL     1      34.021 -17.115 -24.435  0.00  0.00    -0.464 OA
ATOM     22  O   UNL     1      34.680 -13.683 -23.513  0.00  0.00    -0.271 OA
ATOM     23  N   UNL     1      35.396 -15.608 -22.476  0.00  0.00    -0.279 N 
ATOM     24  C   UNL     1      36.130 -19.072 -21.437  0.00  0.00    -0.001 C 
ATOM     25  C   UNL     1      35.437 -17.005 -22.472  0.00  0.00    +0.085 C 
ATOM     26  C   UNL     1      36.122 -17.677 -21.458  0.00  0.00    +0.015 C 
ATOM     27  C   UNL     1      34.755 -17.721 -23.455  0.00  0.00    +0.153 C 
ATOM     28  C   UNL     1      35.446 -19.791 -22.418  0.00  0.00    +0.001 C 
ATOM     29  C   UNL     1      34.752 -19.116 -23.423  0.00  0.00    +0.038 C 
ATOM     30  C   UNL     1      34.380 -15.768 -24.677  0.00  0.00    +0.290 C 
ATOM     31  C   UNL     1      34.801 -14.906 -23.499  0.00  0.00    +0.271 C 
ATOM     32  H   UNL     1      35.803 -15.113 -21.728  0.00  0.00    +0.155 HD
ENDBRANCH  20  24
ENDBRANCH  17  20
ENDBRANCH  14  18
BRANCH   5  33
ATOM     33  C   UNL     1      30.074 -22.458 -15.275  0.00  0.00    +0.089 C 
BRANCH  33  36
ATOM     34  O   UNL     1      27.699 -21.966 -15.258  0.00  0.00    -0.275 OA
ATOM     35  N   UNL     1      28.652 -22.838 -17.161  0.00  0.00    -0.329 N 
ATOM     36  C   UNL     1      28.685 -22.383 -15.860  0.00  0.00    +0.220 C 
ATOM     37  H   UNL     1      27.803 -22.842 -17.660  0.00  0.00    +0.145 HD
ATOM     38  H   UNL     1      29.477 -23.160 -17.590  0.00  0.00    +0.145 HD
ENDBRANCH  33  36
ENDBRANCH   5  33
TORSDOF 5
ENDMDL
MODEL 2
REMARK VINA RESULT:     -12.1      4.839     12.036
REMARK  Name = 25174099
REMARK  5 active torsions:
REMARK  status: ('A' for Active; 'I' for Inactive)
REMARK    1  A    between atoms: C_5  and  C_33
REMARK    2  A    between atoms: C_14  and  C_18
REMARK    3  A    between atoms: N_17  and  C_20
REMARK    4  A    between atoms: C_20  and  C_24
REMARK    5  A    between atoms: C_33  and  C_36
REMARK                            x       y       z     vdW  Elec       q    Type
REMARK                         _______ _______ _______ _____ _____    ______ ____
ROOT
ATOM      1  S   UNL     1      32.226 -12.258 -20.944  0.00  0.00    -0.064 S 
ATOM      2  O   UNL     1      34.091 -10.624 -25.219  0.00  0.00    -0.274 OA
ATOM      3  N   UNL     1      33.268 -13.878 -22.803  0.00  0.00    -0.379 NA
ATOM      4  N   UNL     1      34.128 -12.899 -24.809  0.00  0.00    -0.255 N 
ATOM      5  C   UNL     1      32.929  -8.825 -22.927  0.00  0.00    +0.028 C 
ATOM      6  C   UNL     1      31.945  -7.914 -22.152  0.00  0.00    +0.005 C 
ATOM      7  C   UNL     1      32.801 -10.259 -22.471  0.00  0.00    -0.027 C 
ATOM      8  C   UNL     1      31.978  -8.172 -20.639  0.00  0.00    +0.006 C 
ATOM      9  C   UNL     1      31.596  -9.619 -20.298  0.00  0.00    +0.032 C 
ATOM     10  C   UNL     1      32.222 -10.585 -21.256  0.00  0.00    +0.002 C 
ATOM     11  C   UNL     1      33.222 -11.440 -23.167  0.00  0.00    +0.154 C 
ATOM     12  C   UNL     1      32.979 -12.596 -22.438  0.00  0.00    +0.152 C 
ATOM     13  C   UNL     1      33.847 -11.574 -24.481  0.00  0.00    +0.239 C 
ATOM     14  C   UNL     1      33.830 -13.962 -23.970  0.00  0.00    +0.240 C 
ATOM     15  H   UNL     1      34.557 -13.089 -25.675  0.00  0.00    +0.157 HD
ENDROOT
BRANCH  14  18
ATOM     16  O   UNL     1      33.678 -15.667 -25.537  0.00  0.00    -0.266 OA
ATOM     17  N   UNL     1      35.114 -15.961 -23.706  0.00  0.00    -0.294 N 
ATOM     18  C   UNL     1      34.200 -15.297 -24.494  0.00  0.00    +0.290 C 
ATOM     19  H   UNL     1      35.439 -15.517 -22.889  0.00  0.00    +0.150 HD
BRANCH  17  20
ATOM     20  C   UNL     1      35.621 -17.277 -24.022  0.00  0.00    +0.117 C 
BRANCH  20  24
ATOM     21  O   UNL     1      36.087 -20.492 -19.392  0.00  0.00    -0.464 OA
ATOM     22  O   UNL     1      32.657 -21.570 -19.022  0.00  0.00    -0.271 OA
ATOM     23  N   UNL     1      33.562 -20.196 -20.631  0.00  0.00    -0.279 N 
ATOM     24  C   UNL     1      35.729 -18.144 -22.801  0.00  0.00    -0.001 C 
ATOM     25  C   UNL     1      34.702 -19.588 -21.163  0.00  0.00    +0.085 C 
ATOM     26  C   UNL     1      34.594 -18.778 -22.294  0.00  0.00    +0.015 C 
ATOM     27  C   UNL     1      35.935 -19.758 -20.535  0.00  0.00    +0.153 C 
ATOM     28  C   UNL     1      36.963 -18.310 -22.172  0.00  0.00    +0.001 C 
ATOM     29  C   UNL     1      37.066 -19.111 -21.034  0.00  0.00    +0.038 C 
ATOM     30  C   UNL     1      35.056 -21.434 -19.168  0.00  0.00    +0.290 C 
ATOM     31  C   UNL     1      33.637 -21.065 -19.567  0.00  0.00    +0.271 C 
ATOM     32  H   UNL     1      32.682 -19.998 -21.026  0.00  0.00    +0.155 HD
ENDBRANCH  20  24
ENDBRANCH  17  20
ENDBRANCH  14  18
BRANCH   5  33
ATOM     33  C   UNL     1      34.369  -8.322 -22.773  0.00  0.00    +0.089 C 
BRANCH  33  36
ATOM     34  O   UNL     1      34.488  -6.394 -24.240  0.00  0.00    -0.275 OA
ATOM     35  N   UNL     1      35.684  -8.285 -24.771  0.00  0.00    -0.329 N 
ATOM     36  C   UNL     1      34.829  -7.546 -23.982  0.00  0.00    +0.220 C 
ATOM     37  H   UNL     1      36.058  -7.894 -25.593  0.00  0.00    +0.145 HD
ATOM     38  H   UNL     1      35.921  -9.205 -24.511  0.00  0.00    +0.145 HD
ENDBRANCH  33  36
ENDBRANCH   5  33
TORSDOF 5
ENDMDL
MODEL 3
REMARK VINA RESULT:     -12.0      2.164      3.272
REMARK  Name = 25174099
REMARK  5 active torsions:
REMARK  status: ('A' for Active; 'I' for Inactive)
REMARK    1  A    between atoms: C_5  and  C_33
REMARK    2  A    between atoms: C_14  and  C_18
REMARK    3  A    between atoms: N_17  and  C_20
REMARK    4  A    between atoms: C_20  and  C_24
REMARK    5  A    between atoms: C_33  and  C_36
REMARK                            x       y       z     vdW  Elec       q    Type
REMARK                         _______ _______ _______ _____ _____    ______ ____
ROOT
ATOM      1  S   UNL     1      37.525 -21.667 -16.433  0.00  0.00    -0.064 S 
ATOM      2  O   UNL     1      33.281 -22.388 -18.859  0.00  0.00    -0.274 OA
ATOM      3  N   UNL     1      36.998 -20.578 -18.821  0.00  0.00    -0.379 NA
ATOM      4  N   UNL     1      34.883 -21.040 -19.838  0.00  0.00    -0.255 N 
ATOM      5  C   UNL     1      33.979 -23.529 -16.023  0.00  0.00    +0.028 C 
ATOM      6  C   UNL     1      34.385 -24.542 -14.923  0.00  0.00    +0.005 C 
ATOM      7  C   UNL     1      35.178 -22.738 -16.487  0.00  0.00    -0.027 C 
ATOM      8  C   UNL     1      35.266 -23.906 -13.838  0.00  0.00    +0.006 C 
ATOM      9  C   UNL     1      36.570 -23.344 -14.419  0.00  0.00    +0.032 C 
ATOM     10  C   UNL     1      36.327 -22.644 -15.721  0.00  0.00    +0.002 C 
ATOM     11  C   UNL     1      35.321 -22.004 -17.712  0.00  0.00    +0.154 C 
ATOM     12  C   UNL     1      36.550 -21.363 -17.800  0.00  0.00    +0.152 C 
ATOM     13  C   UNL     1      34.384 -21.852 -18.821  0.00  0.00    +0.239 C 
ATOM     14  C   UNL     1      36.140 -20.455 -19.786  0.00  0.00    +0.240 C 
ATOM     15  H   UNL     1      34.319 -20.872 -20.627  0.00  0.00    +0.157 HD
ENDROOT
BRANCH  14  18
ATOM     16  O   UNL     1      37.631 -19.178 -21.023  0.00  0.00    -0.266 OA
ATOM     17  N   UNL     1      35.459 -19.475 -21.858  0.00  0.00    -0.294 N 
ATOM     18  C   UNL     1      36.495 -19.628 -20.962  0.00  0.00    +0.290 C 
ATOM     19  H   UNL     1      34.599 -19.908 -21.657  0.00  0.00    +0.150 HD
BRANCH  17  20
ATOM     20  C   UNL     1      35.577 -18.710 -23.078  0.00  0.00    +0.117 C 
BRANCH  20  24
ATOM     21  O   UNL     1      34.396 -13.246 -22.214  0.00  0.00    -0.464 OA
ATOM     22  O   UNL     1      33.768 -12.190 -25.612  0.00  0.00    -0.271 OA
ATOM     23  N   UNL     1      34.347 -14.280 -24.846  0.00  0.00    -0.279 N 
ATOM     24  C   UNL     1      35.249 -17.260 -22.865  0.00  0.00    -0.001 C 
ATOM     25  C   UNL     1      34.625 -15.104 -23.752  0.00  0.00    +0.085 C 
ATOM     26  C   UNL     1      34.937 -16.449 -23.956  0.00  0.00    +0.015 C 
ATOM     27  C   UNL     1      34.635 -14.568 -22.465  0.00  0.00    +0.153 C 
ATOM     28  C   UNL     1      35.262 -16.725 -21.577  0.00  0.00    +0.001 C 
ATOM     29  C   UNL     1      34.963 -15.377 -21.376  0.00  0.00    +0.038 C 
ATOM     30  C   UNL     1      33.683 -12.582 -23.239  0.00  0.00    +0.290 C 
ATOM     31  C   UNL     1      33.957 -12.971 -24.682  0.00  0.00    +0.271 C 
ATOM     32  H   UNL     1      34.431 -14.645 -25.756  0.00  0.00    +0.155 HD
ENDBRANCH  20  24
ENDBRANCH  17  20
ENDBRANCH  14  18
BRANCH   5  33
ATOM     33  C   UNL     1      32.865 -22.604 -15.521  0.00  0.00    +0.089 C 
BRANCH  33  36
ATOM     34  O   UNL     1      30.966 -24.106 -15.368  0.00  0.00    -0.275 OA
ATOM     35  N   UNL     1      30.899 -22.359 -16.863  0.00  0.00    -0.329 N 
ATOM     36  C   UNL     1      31.494 -23.123 -15.882  0.00  0.00    +0.220 C 
ATOM     37  H   UNL     1      30.000 -22.591 -17.190  0.00  0.00    +0.145 HD
ATOM     38  H   UNL     1      31.374 -21.582 -17.237  0.00  0.00    +0.145 HD
ENDBRANCH  33  36
ENDBRANCH   5  33
TORSDOF 5
ENDMDL
MODEL 4
REMARK VINA RESULT:     -11.3      3.103      4.594
REMARK  Name = 25174099
REMARK  5 active torsions:
REMARK  status: ('A' for Active; 'I' for Inactive)
REMARK    1  A    between atoms: C_5  and  C_33
REMARK    2  A    between atoms: C_14  and  C_18
REMARK    3  A    between atoms: N_17  and  C_20
REMARK    4  A    between atoms: C_20  and  C_24
REMARK    5  A    between atoms: C_33  and  C_36
REMARK                            x       y       z     vdW  Elec       q    Type
REMARK                         _______ _______ _______ _____ _____    ______ ____
ROOT
ATOM      1  S   UNL     1      33.221 -22.548 -17.885  0.00  0.00    -0.064 S 
ATOM      2  O   UNL     1      37.821 -21.480 -16.430  0.00  0.00    -0.274 OA
ATOM      3  N   UNL     1      34.948 -21.158 -19.386  0.00  0.00    -0.379 NA
ATOM      4  N   UNL     1      37.135 -20.745 -18.511  0.00  0.00    -0.255 N 
ATOM      5  C   UNL     1      35.739 -23.174 -14.807  0.00  0.00    +0.028 C 
ATOM      6  C   UNL     1      34.688 -23.541 -13.730  0.00  0.00    +0.005 C 
ATOM      7  C   UNL     1      35.063 -22.756 -16.091  0.00  0.00    -0.027 C 
ATOM      8  C   UNL     1      33.591 -24.466 -14.276  0.00  0.00    +0.006 C 
ATOM      9  C   UNL     1      32.822 -23.818 -15.434  0.00  0.00    +0.032 C 
ATOM     10  C   UNL     1      33.749 -23.094 -16.362  0.00  0.00    +0.002 C 
ATOM     11  C   UNL     1      35.626 -21.993 -17.168  0.00  0.00    +0.154 C 
ATOM     12  C   UNL     1      34.729 -21.820 -18.214  0.00  0.00    +0.152 C 
ATOM     13  C   UNL     1      36.957 -21.406 -17.297  0.00  0.00    +0.239 C 
ATOM     14  C   UNL     1      36.141 -20.656 -19.474  0.00  0.00    +0.240 C 
ATOM     15  H   UNL     1      38.005 -20.322 -18.693  0.00  0.00    +0.157 HD
ENDROOT
BRANCH  14  18
ATOM     16  O   UNL     1      37.678 -19.538 -20.806  0.00  0.00    -0.266 OA
ATOM     17  N   UNL     1      35.470 -19.732 -21.574  0.00  0.00    -0.294 N 
ATOM     18  C   UNL     1      36.517 -19.910 -20.697  0.00  0.00    +0.290 C 
ATOM     19  H   UNL     1      34.590 -20.098 -21.333  0.00  0.00    +0.150 HD
BRANCH  17  20
ATOM     20  C   UNL     1      35.605 -19.034 -22.833  0.00  0.00    +0.117 C 
BRANCH  20  24
ATOM     21  O   UNL     1      34.483 -13.518 -22.272  0.00  0.00    -0.464 OA
ATOM     22  O   UNL     1      33.652 -12.692 -25.691  0.00  0.00    -0.271 OA
ATOM     23  N   UNL     1      34.274 -14.729 -24.820  0.00  0.00    -0.279 N 
ATOM     24  C   UNL     1      35.291 -17.572 -22.699  0.00  0.00    -0.001 C 
ATOM     25  C   UNL     1      34.617 -15.478 -23.691  0.00  0.00    +0.085 C 
ATOM     26  C   UNL     1      34.914 -16.835 -23.823  0.00  0.00    +0.015 C 
ATOM     27  C   UNL     1      34.705 -14.856 -22.447  0.00  0.00    +0.153 C 
ATOM     28  C   UNL     1      35.384 -16.951 -21.454  0.00  0.00    +0.001 C 
ATOM     29  C   UNL     1      35.098 -15.591 -21.328  0.00  0.00    +0.038 C 
ATOM     30  C   UNL     1      33.710 -12.922 -23.296  0.00  0.00    +0.290 C 
ATOM     31  C   UNL     1      33.896 -13.409 -24.723  0.00  0.00    +0.271 C 
ATOM     32  H   UNL     1      34.302 -15.155 -25.707  0.00  0.00    +0.155 HD
ENDBRANCH  20  24
ENDBRANCH  17  20
ENDBRANCH  14  18
BRANCH   5  33
ATOM     33  C   UNL     1      36.704 -24.341 -15.043  0.00  0.00    +0.089 C 
BRANCH  33  36
ATOM     34  O   UNL     1      38.296 -23.769 -13.305  0.00  0.00    -0.275 OA
ATOM     35  N   UNL     1      39.059 -24.187 -15.434  0.00  0.00    -0.329 N 
ATOM     36  C   UNL     1      38.075 -24.066 -14.476  0.00  0.00    +0.220 C 
ATOM     37  H   UNL     1      40.001 -24.033 -15.194  0.00  0.00    +0.145 HD
ATOM     38  H   UNL     1      38.819 -24.428 -16.357  0.00  0.00    +0.145 HD
ENDBRANCH  33  36
ENDBRANCH   5  33
TORSDOF 5
ENDMDL
MODEL 5
REMARK VINA RESULT:     -11.0      5.077     11.746
REMARK  Name = 25174099
REMARK  5 active torsions:
REMARK  status: ('A' for Active; 'I' for Inactive)
REMARK    1  A    between atoms: C_5  and  C_33
REMARK    2  A    between atoms: C_14  and  C_18
REMARK    3  A    between atoms: N_17  and  C_20
REMARK    4  A    between atoms: C_20  and  C_24
REMARK    5  A    between atoms: C_33  and  C_36
REMARK                            x       y       z     vdW  Elec       q    Type
REMARK                         _______ _______ _______ _____ _____    ______ ____
ROOT
ATOM      1  S   UNL     1      34.729 -10.351 -25.240  0.00  0.00    -0.064 S 
ATOM      2  O   UNL     1      32.740 -12.410 -21.212  0.00  0.00    -0.274 OA
ATOM      3  N   UNL     1      34.411 -12.994 -24.949  0.00  0.00    -0.379 NA
ATOM      4  N   UNL     1      33.422 -13.802 -22.926  0.00  0.00    -0.255 N 
ATOM      5  C   UNL     1      33.081  -9.332 -21.711  0.00  0.00    +0.028 C 
ATOM      6  C   UNL     1      33.654  -7.897 -21.604  0.00  0.00    +0.005 C 
ATOM      7  C   UNL     1      33.640 -10.041 -22.922  0.00  0.00    -0.027 C 
ATOM      8  C   UNL     1      33.600  -7.144 -22.941  0.00  0.00    +0.006 C 
ATOM      9  C   UNL     1      34.410  -7.859 -24.031  0.00  0.00    +0.032 C 
ATOM     10  C   UNL     1      34.206  -9.342 -23.974  0.00  0.00    +0.002 C 
ATOM     11  C   UNL     1      33.680 -11.453 -23.169  0.00  0.00    +0.154 C 
ATOM     12  C   UNL     1      34.237 -11.755 -24.404  0.00  0.00    +0.152 C 
ATOM     13  C   UNL     1      33.229 -12.558 -22.328  0.00  0.00    +0.239 C 
ATOM     14  C   UNL     1      33.992 -13.953 -24.182  0.00  0.00    +0.240 C 
ATOM     15  H   UNL     1      33.142 -14.609 -22.437  0.00  0.00    +0.157 HD
ENDROOT
BRANCH  14  18
ATOM     16  O   UNL     1      33.445 -15.699 -25.610  0.00  0.00    -0.266 OA
ATOM     17  N   UNL     1      35.011 -16.098 -23.910  0.00  0.00    -0.294 N 
ATOM     18  C   UNL     1      34.119 -15.352 -24.649  0.00  0.00    +0.290 C 
ATOM     19  H   UNL     1      35.477 -15.663 -23.160  0.00  0.00    +0.150 HD
BRANCH  17  20
ATOM     20  C   UNL     1      35.296 -17.488 -24.184  0.00  0.00    +0.117 C 
BRANCH  20  24
ATOM     21  O   UNL     1      36.154 -20.400 -19.412  0.00  0.00    -0.464 OA
ATOM     22  O   UNL     1      32.842 -21.750 -18.891  0.00  0.00    -0.271 OA
ATOM     23  N   UNL     1      33.583 -20.390 -20.592  0.00  0.00    -0.279 N 
ATOM     24  C   UNL     1      35.510 -18.276 -22.925  0.00  0.00    -0.001 C 
ATOM     25  C   UNL     1      34.653 -19.715 -21.186  0.00  0.00    +0.085 C 
ATOM     26  C   UNL     1      34.447 -18.978 -22.354  0.00  0.00    +0.015 C 
ATOM     27  C   UNL     1      35.911 -19.744 -20.586  0.00  0.00    +0.153 C 
ATOM     28  C   UNL     1      36.768 -18.301 -22.323  0.00  0.00    +0.001 C 
ATOM     29  C   UNL     1      36.968 -19.028 -21.149  0.00  0.00    +0.038 C 
ATOM     30  C   UNL     1      35.215 -21.415 -19.111  0.00  0.00    +0.290 C 
ATOM     31  C   UNL     1      33.760 -21.192 -19.488  0.00  0.00    +0.271 C 
ATOM     32  H   UNL     1      32.681 -20.290 -20.972  0.00  0.00    +0.155 HD
ENDBRANCH  20  24
ENDBRANCH  17  20
ENDBRANCH  14  18
BRANCH   5  33
ATOM     33  C   UNL     1      31.549  -9.302 -21.746  0.00  0.00    +0.089 C 
BRANCH  33  36
ATOM     34  O   UNL     1      31.072  -9.713 -19.403  0.00  0.00    -0.275 OA
ATOM     35  N   UNL     1      30.220 -11.143 -20.990  0.00  0.00    -0.329 N 
ATOM     36  C   UNL     1      30.942 -10.044 -20.579  0.00  0.00    +0.220 C 
ATOM     37  H   UNL     1      29.771 -11.714 -20.326  0.00  0.00    +0.145 HD
ATOM     38  H   UNL     1      30.152 -11.356 -21.949  0.00  0.00    +0.145 HD
ENDBRANCH  33  36
ENDBRANCH   5  33
TORSDOF 5
ENDMDL
MODEL 6
REMARK VINA RESULT:     -10.9      4.593     11.701
REMARK  Name = 25174099
REMARK  5 active torsions:
REMARK  status: ('A' for Active; 'I' for Inactive)
REMARK    1  A    between atoms: C_5  and  C_33
REMARK    2  A    between atoms: C_14  and  C_18
REMARK    3  A    between atoms: N_17  and  C_20
REMARK    4  A    between atoms: C_20  and  C_24
REMARK    5  A    between atoms: C_33  and  C_36
REMARK                            x       y       z     vdW  Elec       q    Type
REMARK                         _______ _______ _______ _____ _____    ______ ____
ROOT
ATOM      1  S   UNL     1      32.655 -12.783 -20.732  0.00  0.00    -0.064 S 
ATOM      2  O   UNL     1      34.128 -11.412 -25.246  0.00  0.00    -0.274 OA
ATOM      3  N   UNL     1      33.978 -14.407 -22.399  0.00  0.00    -0.379 NA
ATOM      4  N   UNL     1      34.613 -13.561 -24.544  0.00  0.00    -0.255 N 
ATOM      5  C   UNL     1      32.657  -9.579 -23.169  0.00  0.00    +0.028 C 
ATOM      6  C   UNL     1      31.520  -8.778 -22.486  0.00  0.00    +0.005 C 
ATOM      7  C   UNL     1      32.815 -10.936 -22.526  0.00  0.00    -0.027 C 
ATOM      8  C   UNL     1      31.616  -8.819 -20.954  0.00  0.00    +0.006 C 
ATOM      9  C   UNL     1      31.527 -10.252 -20.415  0.00  0.00    +0.032 C 
ATOM     10  C   UNL     1      32.322 -11.200 -21.260  0.00  0.00    +0.002 C 
ATOM     11  C   UNL     1      33.454 -12.096 -23.077  0.00  0.00    +0.154 C 
ATOM     12  C   UNL     1      33.447 -13.168 -22.194  0.00  0.00    +0.152 C 
ATOM     13  C   UNL     1      34.081 -12.283 -24.382  0.00  0.00    +0.239 C 
ATOM     14  C   UNL     1      34.536 -14.538 -23.564  0.00  0.00    +0.240 C 
ATOM     15  H   UNL     1      35.063 -13.779 -25.392  0.00  0.00    +0.157 HD
ENDROOT
BRANCH  14  18
ATOM     16  O   UNL     1      35.177 -16.153 -25.103  0.00  0.00    -0.266 OA
ATOM     17  N   UNL     1      35.639 -16.530 -22.834  0.00  0.00    -0.294 N 
ATOM     18  C   UNL     1      35.155 -15.835 -23.921  0.00  0.00    +0.290 C 
ATOM     19  H   UNL     1      35.541 -16.129 -21.941  0.00  0.00    +0.150 HD
BRANCH  17  20
ATOM     20  C   UNL     1      36.285 -17.818 -22.944  0.00  0.00    +0.117 C 
BRANCH  20  24
ATOM     21  O   UNL     1      34.238 -21.545 -19.215  0.00  0.00    -0.464 OA
ATOM     22  O   UNL     1      37.218 -22.206 -17.281  0.00  0.00    -0.271 OA
ATOM     23  N   UNL     1      36.963 -20.801 -19.084  0.00  0.00    -0.279 N 
ATOM     24  C   UNL     1      35.755 -18.799 -21.939  0.00  0.00    -0.001 C 
ATOM     25  C   UNL     1      36.106 -20.238 -20.034  0.00  0.00    +0.085 C 
ATOM     26  C   UNL     1      36.606 -19.331 -20.970  0.00  0.00    +0.015 C 
ATOM     27  C   UNL     1      34.765 -20.618 -20.069  0.00  0.00    +0.153 C 
ATOM     28  C   UNL     1      34.414 -19.181 -21.979  0.00  0.00    +0.001 C 
ATOM     29  C   UNL     1      33.920 -20.097 -21.049  0.00  0.00    +0.038 C 
ATOM     30  C   UNL     1      34.980 -21.723 -18.024  0.00  0.00    +0.290 C 
ATOM     31  C   UNL     1      36.496 -21.635 -18.095  0.00  0.00    +0.271 C 
ATOM     32  H   UNL     1      37.925 -20.595 -19.123  0.00  0.00    +0.155 HD
ENDBRANCH  20  24
ENDBRANCH  17  20
ENDBRANCH  14  18
BRANCH   5  33
ATOM     33  C   UNL     1      33.972  -8.791 -23.132  0.00  0.00    +0.089 C 
BRANCH  33  36
ATOM     34  O   UNL     1      33.214  -6.739 -24.179  0.00  0.00    -0.275 OA
ATOM     35  N   UNL     1      34.196  -6.644 -22.102  0.00  0.00    -0.329 N 
ATOM     36  C   UNL     1      33.742  -7.303 -23.224  0.00  0.00    +0.220 C 
ATOM     37  H   UNL     1      34.106  -5.666 -22.035  0.00  0.00    +0.145 HD
ATOM     38  H   UNL     1      34.610  -7.151 -21.367  0.00  0.00    +0.145 HD
ENDBRANCH  33  36
ENDBRANCH   5  33
TORSDOF 5
ENDMDL
MODEL 7
REMARK VINA RESULT:     -10.8      3.467     10.433
REMARK  Name = 25174099
REMARK  5 active torsions:
REMARK  status: ('A' for Active; 'I' for Inactive)
REMARK    1  A    between atoms: C_5  and  C_33
REMARK    2  A    between atoms: C_14  and  C_18
REMARK    3  A    between atoms: N_17  and  C_20
REMARK    4  A    between atoms: C_20  and  C_24
REMARK    5  A    between atoms: C_33  and  C_36
REMARK                            x       y       z     vdW  Elec       q    Type
REMARK                         _______ _______ _______ _____ _____    ______ ____
ROOT
ATOM      1  S   UNL     1      34.994 -15.923 -24.897  0.00  0.00    -0.064 S 
ATOM      2  O   UNL     1      34.680 -14.557 -20.158  0.00  0.00    -0.274 OA
ATOM      3  N   UNL     1      35.765 -17.488 -22.866  0.00  0.00    -0.379 NA
ATOM      4  N   UNL     1      35.530 -16.653 -20.637  0.00  0.00    -0.255 N 
ATOM      5  C   UNL     1      33.729 -12.857 -22.615  0.00  0.00    +0.028 C 
ATOM      6  C   UNL     1      33.720 -11.757 -23.706  0.00  0.00    +0.005 C 
ATOM      7  C   UNL     1      34.294 -14.146 -23.163  0.00  0.00    -0.027 C 
ATOM      8  C   UNL     1      33.150 -12.259 -25.040  0.00  0.00    +0.006 C 
ATOM      9  C   UNL     1      33.966 -13.429 -25.604  0.00  0.00    +0.032 C 
ATOM     10  C   UNL     1      34.356 -14.390 -24.524  0.00  0.00    +0.002 C 
ATOM     11  C   UNL     1      34.826 -15.252 -22.421  0.00  0.00    +0.154 C 
ATOM     12  C   UNL     1      35.230 -16.293 -23.248  0.00  0.00    +0.152 C 
ATOM     13  C   UNL     1      34.985 -15.417 -20.979  0.00  0.00    +0.239 C 
ATOM     14  C   UNL     1      35.885 -17.606 -21.579  0.00  0.00    +0.240 C 
ATOM     15  H   UNL     1      35.670 -16.858 -19.684  0.00  0.00    +0.157 HD
ENDROOT
BRANCH  14  18
ATOM     16  O   UNL     1      37.670 -18.957 -20.967  0.00  0.00    -0.266 OA
ATOM     17  N   UNL     1      35.494 -19.766 -20.632  0.00  0.00    -0.294 N 
ATOM     18  C   UNL     1      36.452 -18.856 -21.023  0.00  0.00    +0.290 C 
ATOM     19  H   UNL     1      34.546 -19.527 -20.746  0.00  0.00    +0.150 HD
BRANCH  17  20
ATOM     20  C   UNL     1      35.815 -21.054 -20.060  0.00  0.00    +0.117 C 
BRANCH  20  24
ATOM     21  O   UNL     1      31.771 -22.836 -16.529  0.00  0.00    -0.464 OA
ATOM     22  O   UNL     1      33.793 -24.517 -14.049  0.00  0.00    -0.271 OA
ATOM     23  N   UNL     1      34.478 -23.426 -15.956  0.00  0.00    -0.279 N 
ATOM     24  C   UNL     1      34.756 -21.523 -19.105  0.00  0.00    -0.001 C 
ATOM     25  C   UNL     1      34.126 -22.673 -17.079  0.00  0.00    +0.085 C 
ATOM     26  C   UNL     1      35.114 -22.245 -17.966  0.00  0.00    +0.015 C 
ATOM     27  C   UNL     1      32.784 -22.391 -17.332  0.00  0.00    +0.153 C 
ATOM     28  C   UNL     1      33.413 -21.243 -19.362  0.00  0.00    +0.001 C 
ATOM     29  C   UNL     1      32.426 -21.683 -18.480  0.00  0.00    +0.038 C 
ATOM     30  C   UNL     1      32.178 -23.165 -15.215  0.00  0.00    +0.290 C 
ATOM     31  C   UNL     1      33.545 -23.798 -15.016  0.00  0.00    +0.271 C 
ATOM     32  H   UNL     1      35.416 -23.697 -15.833  0.00  0.00    +0.155 HD
ENDBRANCH  20  24
ENDBRANCH  17  20
ENDBRANCH  14  18
BRANCH   5  33
ATOM     33  C   UNL     1      32.320 -13.067 -22.047  0.00  0.00    +0.089 C 
BRANCH  33  36
ATOM     34  O   UNL     1      32.520 -11.884 -19.939  0.00  0.00    -0.275 OA
ATOM     35  N   UNL     1      30.924 -11.217 -21.455  0.00  0.00    -0.329 N 
ATOM     36  C   UNL     1      31.961 -12.017 -21.025  0.00  0.00    +0.220 C 
ATOM     37  H   UNL     1      30.592 -10.490 -20.880  0.00  0.00    +0.145 HD
ATOM     38  H   UNL     1      30.516 -11.372 -22.336  0.00  0.00    +0.145 HD
ENDBRANCH  33  36
ENDBRANCH   5  33
TORSDOF 5
ENDMDL
MODEL 8
REMARK VINA RESULT:     -10.4      2.697      3.777
REMARK  Name = 25174099
REMARK  5 active torsions:
REMARK  status: ('A' for Active; 'I' for Inactive)
REMARK    1  A    between atoms: C_5  and  C_33
REMARK    2  A    between atoms: C_14  and  C_18
REMARK    3  A    between atoms: N_17  and  C_20
REMARK    4  A    between atoms: C_20  and  C_24
REMARK    5  A    between atoms: C_33  and  C_36
REMARK                            x       y       z     vdW  Elec       q    Type
REMARK                         _______ _______ _______ _____ _____    ______ ____
ROOT
ATOM      1  S   UNL     1      32.774 -22.780 -17.471  0.00  0.00    -0.064 S 
ATOM      2  O   UNL     1      37.233 -22.372 -15.381  0.00  0.00    -0.274 OA
ATOM      3  N   UNL     1      34.905 -21.780 -18.746  0.00  0.00    -0.379 NA
ATOM      4  N   UNL     1      36.984 -21.668 -17.568  0.00  0.00    -0.255 N 
ATOM      5  C   UNL     1      34.688 -23.607 -14.027  0.00  0.00    +0.028 C 
ATOM      6  C   UNL     1      33.447 -23.734 -13.108  0.00  0.00    +0.005 C 
ATOM      7  C   UNL     1      34.281 -23.168 -15.414  0.00  0.00    -0.027 C 
ATOM      8  C   UNL     1      32.300 -24.504 -13.777  0.00  0.00    +0.006 C 
ATOM      9  C   UNL     1      31.824 -23.815 -15.062  0.00  0.00    +0.032 C 
ATOM     10  C   UNL     1      32.981 -23.308 -15.867  0.00  0.00    +0.002 C 
ATOM     11  C   UNL     1      35.111 -22.573 -16.421  0.00  0.00    +0.154 C 
ATOM     12  C   UNL     1      34.414 -22.324 -17.596  0.00  0.00    +0.152 C 
ATOM     13  C   UNL     1      36.526 -22.216 -16.371  0.00  0.00    +0.239 C 
ATOM     14  C   UNL     1      36.166 -21.482 -18.673  0.00  0.00    +0.240 C 
ATOM     15  H   UNL     1      37.929 -21.402 -17.633  0.00  0.00    +0.157 HD
ENDROOT
BRANCH  14  18
ATOM     16  O   UNL     1      37.361 -21.639 -20.657  0.00  0.00    -0.266 OA
ATOM     17  N   UNL     1      36.761 -19.508 -19.883  0.00  0.00    -0.294 N 
ATOM     18  C   UNL     1      36.832 -20.883 -19.852  0.00  0.00    +0.290 C 
ATOM     19  H   UNL     1      36.293 -19.047 -19.150  0.00  0.00    +0.150 HD
BRANCH  17  20
ATOM     20  C   UNL     1      37.339 -18.710 -20.940  0.00  0.00    +0.117 C 
BRANCH  20  24
ATOM     21  O   UNL     1      33.468 -17.376 -24.842  0.00  0.00    -0.464 OA
ATOM     22  O   UNL     1      33.582 -13.770 -24.639  0.00  0.00    -0.271 OA
ATOM     23  N   UNL     1      34.795 -15.311 -23.437  0.00  0.00    -0.279 N 
ATOM     24  C   UNL     1      36.323 -18.338 -21.981  0.00  0.00    -0.001 C 
ATOM     25  C   UNL     1      35.104 -16.655 -23.207  0.00  0.00    +0.085 C 
ATOM     26  C   UNL     1      36.044 -16.995 -22.233  0.00  0.00    +0.015 C 
ATOM     27  C   UNL     1      34.438 -17.651 -23.920  0.00  0.00    +0.153 C 
ATOM     28  C   UNL     1      35.656 -19.337 -22.691  0.00  0.00    +0.001 C 
ATOM     29  C   UNL     1      34.708 -18.994 -23.655  0.00  0.00    +0.038 C 
ATOM     30  C   UNL     1      33.522 -16.063 -25.366  0.00  0.00    +0.290 C 
ATOM     31  C   UNL     1      33.936 -14.931 -24.442  0.00  0.00    +0.271 C 
ATOM     32  H   UNL     1      35.203 -14.620 -22.868  0.00  0.00    +0.155 HD
ENDBRANCH  20  24
ENDBRANCH  17  20
ENDBRANCH  14  18
BRANCH   5  33
ATOM     33  C   UNL     1      35.467 -24.927 -14.071  0.00  0.00    +0.089 C 
BRANCH  33  36
ATOM     34  O   UNL     1      36.400 -25.264 -11.857  0.00  0.00    -0.275 OA
ATOM     35  N   UNL     1      37.790 -24.633 -13.578  0.00  0.00    -0.329 N 
ATOM     36  C   UNL     1      36.567 -24.968 -13.038  0.00  0.00    +0.220 C 
ATOM     37  H   UNL     1      38.593 -24.621 -13.009  0.00  0.00    +0.145 HD
ATOM     38  H   UNL     1      37.860 -24.405 -14.533  0.00  0.00    +0.145 HD
ENDBRANCH  33  36
ENDBRANCH   5  33
TORSDOF 5
ENDMDL
MODEL 9
REMARK VINA RESULT:     -10.4      1.587      2.026
REMARK  Name = 25174099
REMARK  5 active torsions:
REMARK  status: ('A' for Active; 'I' for Inactive)
REMARK    1  A    between atoms: C_5  and  C_33
REMARK    2  A    between atoms: C_14  and  C_18
REMARK    3  A    between atoms: N_17  and  C_20
REMARK    4  A    between atoms: C_20  and  C_24
REMARK    5  A    between atoms: C_33  and  C_36
REMARK                            x       y       z     vdW  Elec       q    Type
REMARK                         _______ _______ _______ _____ _____    ______ ____
ROOT
ATOM      1  S   UNL     1      36.725 -22.410 -15.949  0.00  0.00    -0.064 S 
ATOM      2  O   UNL     1      32.392 -22.337 -18.323  0.00  0.00    -0.274 OA
ATOM      3  N   UNL     1      36.401 -21.328 -18.376  0.00  0.00    -0.379 NA
ATOM      4  N   UNL     1      34.223 -21.384 -19.363  0.00  0.00    -0.255 N 
ATOM      5  C   UNL     1      32.879 -23.489 -15.447  0.00  0.00    +0.028 C 
ATOM      6  C   UNL     1      33.083 -24.521 -14.310  0.00  0.00    +0.005 C 
ATOM      7  C   UNL     1      34.208 -22.978 -15.949  0.00  0.00    -0.027 C 
ATOM      8  C   UNL     1      34.090 -24.038 -13.256  0.00  0.00    +0.006 C 
ATOM      9  C   UNL     1      35.473 -23.778 -13.865  0.00  0.00    +0.032 C 
ATOM     10  C   UNL     1      35.362 -23.093 -15.192  0.00  0.00    +0.002 C 
ATOM     11  C   UNL     1      34.482 -22.337 -17.202  0.00  0.00    +0.154 C 
ATOM     12  C   UNL     1      35.815 -21.965 -17.322  0.00  0.00    +0.152 C 
ATOM     13  C   UNL     1      33.582 -22.038 -18.312  0.00  0.00    +0.239 C 
ATOM     14  C   UNL     1      35.574 -21.069 -19.341  0.00  0.00    +0.240 C 
ATOM     15  H   UNL     1      33.695 -21.135 -20.155  0.00  0.00    +0.157 HD
ENDROOT
BRANCH  14  18
ATOM     16  O   UNL     1      35.633 -20.729 -21.636  0.00  0.00    -0.266 OA
ATOM     17  N   UNL     1      37.004 -19.397 -20.277  0.00  0.00    -0.294 N 
ATOM     18  C   UNL     1      36.075 -20.377 -20.551  0.00  0.00    +0.290 C 
ATOM     19  H   UNL     1      37.253 -19.238 -19.338  0.00  0.00    +0.150 HD
BRANCH  17  20
ATOM     20  C   UNL     1      37.628 -18.592 -21.301  0.00  0.00    +0.117 C 
BRANCH  20  24
ATOM     21  O   UNL     1      33.805 -16.561 -24.942  0.00  0.00    -0.464 OA
ATOM     22  O   UNL     1      33.199 -13.314 -23.475  0.00  0.00    -0.271 OA
ATOM     23  N   UNL     1      34.619 -14.971 -22.748  0.00  0.00    -0.279 N 
ATOM     24  C   UNL     1      36.622 -18.033 -22.265  0.00  0.00    -0.001 C 
ATOM     25  C   UNL     1      35.171 -16.237 -22.966  0.00  0.00    +0.085 C 
ATOM     26  C   UNL     1      36.100 -16.755 -22.063  0.00  0.00    +0.015 C 
ATOM     27  C   UNL     1      34.756 -16.994 -24.061  0.00  0.00    +0.153 C 
ATOM     28  C   UNL     1      36.206 -18.794 -23.358  0.00  0.00    +0.001 C 
ATOM     29  C   UNL     1      35.267 -18.279 -24.252  0.00  0.00    +0.038 C 
ATOM     30  C   UNL     1      33.632 -15.157 -24.961  0.00  0.00    +0.290 C 
ATOM     31  C   UNL     1      33.761 -14.392 -23.654  0.00  0.00    +0.271 C 
ATOM     32  H   UNL     1      34.849 -14.482 -21.925  0.00  0.00    +0.155 HD
ENDBRANCH  20  24
ENDBRANCH  17  20
ENDBRANCH  14  18
BRANCH   5  33
ATOM     33  C   UNL     1      31.984 -22.336 -14.977  0.00  0.00    +0.089 C 
BRANCH  33  36
ATOM     34  O   UNL     1      29.671 -22.702 -14.346  0.00  0.00    -0.275 OA
ATOM     35  N   UNL     1      30.252 -22.768 -16.570  0.00  0.00    -0.329 N 
ATOM     36  C   UNL     1      30.522 -22.617 -15.227  0.00  0.00    +0.220 C 
ATOM     37  H   UNL     1      29.333 -22.955 -16.869  0.00  0.00    +0.145 HD
ATOM     38  H   UNL     1      30.978 -22.688 -17.230  0.00  0.00    +0.145 HD
ENDBRANCH  33  36
ENDBRANCH   5  33
TORSDOF 5
ENDMDL
