MODEL 1
REMARK VINA RESULT:     -12.0      0.000      0.000
REMARK  Name = 6102777
REMARK  2 active torsions:
REMARK  status: ('A' for Active; 'I' for Inactive)
REMARK    1  A    between atoms: C_4  and  S_16
REMARK    2  A    between atoms: S_16  and  N_19
REMARK                            x       y       z     vdW  Elec       q    Type
REMARK                         _______ _______ _______ _____ _____    ______ ____
ROOT
ATOM      1  O   UNL     1      36.877 -20.622 -18.965  0.00  0.00    -0.453 OA
ATOM      2  O   UNL     1      32.983 -21.864 -18.779  0.00  0.00    -0.286 OA
ATOM      3  C   UNL     1      35.132 -21.888 -17.817  0.00  0.00    +0.075 A 
ATOM      4  C   UNL     1      35.722 -23.066 -15.796  0.00  0.00    +0.126 C 
ATOM      5  C   UNL     1      36.443 -21.428 -17.942  0.00  0.00    +0.148 A 
ATOM      6  C   UNL     1      34.766 -22.706 -16.746  0.00  0.00    +0.026 C 
ATOM      7  C   UNL     1      34.630 -20.628 -19.921  0.00  0.00    +0.074 A 
ATOM      8  C   UNL     1      34.146 -21.492 -18.834  0.00  0.00    +0.201 A 
ATOM      9  C   UNL     1      35.970 -20.242 -19.924  0.00  0.00    +0.148 A 
ATOM     10  C   UNL     1      37.035 -22.610 -15.916  0.00  0.00    +0.023 C 
ATOM     11  C   UNL     1      37.396 -21.792 -16.988  0.00  0.00    +0.039 C 
ATOM     12  C   UNL     1      33.766 -20.200 -20.932  0.00  0.00    +0.006 C 
ATOM     13  C   UNL     1      36.451 -19.422 -20.946  0.00  0.00    +0.038 C 
ATOM     14  C   UNL     1      34.253 -19.381 -21.951  0.00  0.00    +0.000 C 
ATOM     15  C   UNL     1      35.592 -18.992 -21.959  0.00  0.00    +0.003 C 
ENDROOT
BRANCH   4  16
ATOM     16  S   UNL     1      35.276 -24.089 -14.453  0.00  0.00    +0.081 S 
ATOM     17  O   UNL     1      33.884 -23.816 -14.117  0.00  0.00    -0.149 OA
ATOM     18  O   UNL     1      35.685 -25.452 -14.767  0.00  0.00    -0.149 OA
BRANCH  16  19
ATOM     19  N   UNL     1      36.280 -23.475 -13.216  0.00  0.00    -0.156 N 
ATOM     20  N   UNL     1      37.018 -23.329 -10.930  0.00  0.00    -0.094 NA
ATOM     21  N   UNL     1      35.307 -24.741 -11.387  0.00  0.00    -0.071 NA
ATOM     22  N   UNL     1      36.548 -23.984  -9.858  0.00  0.00    -0.139 N 
ATOM     23  N   UNL     1      35.534 -24.830 -10.082  0.00  0.00    -0.020 NA
ATOM     24  C   UNL     1      36.209 -23.840 -11.850  0.00  0.00    +0.145 C 
ATOM     25  H   UNL     1      36.963 -22.813 -13.473  0.00  0.00    +0.186 HD
ATOM     26  H   UNL     1      36.927 -23.850  -8.959  0.00  0.00    +0.197 HD
ENDBRANCH  16  19
ENDBRANCH   4  16
TORSDOF 2
ENDMDL
MODEL 2
REMARK VINA RESULT:     -11.6      4.495      5.375
REMARK  Name = 6102777
REMARK  2 active torsions:
REMARK  status: ('A' for Active; 'I' for Inactive)
REMARK    1  A    between atoms: C_4  and  S_16
REMARK    2  A    between atoms: S_16  and  N_19
REMARK                            x       y       z     vdW  Elec       q    Type
REMARK                         _______ _______ _______ _____ _____    ______ ____
ROOT
ATOM      1  O   UNL     1      35.755 -22.547 -16.815  0.00  0.00    -0.453 OA
ATOM      2  O   UNL     1      32.128 -21.854 -18.579  0.00  0.00    -0.286 OA
ATOM      3  C   UNL     1      33.326 -22.802 -16.787  0.00  0.00    +0.075 A 
ATOM      4  C   UNL     1      32.327 -23.997 -14.943  0.00  0.00    +0.126 C 
ATOM      5  C   UNL     1      34.594 -23.003 -16.241  0.00  0.00    +0.148 A 
ATOM      6  C   UNL     1      32.190 -23.297 -16.142  0.00  0.00    +0.026 C 
ATOM      7  C   UNL     1      34.466 -21.579 -18.650  0.00  0.00    +0.074 A 
ATOM      8  C   UNL     1      33.211 -22.060 -18.051  0.00  0.00    +0.201 A 
ATOM      9  C   UNL     1      35.667 -21.851 -17.996  0.00  0.00    +0.148 A 
ATOM     10  C   UNL     1      33.593 -24.201 -14.394  0.00  0.00    +0.023 C 
ATOM     11  C   UNL     1      34.725 -23.705 -15.041  0.00  0.00    +0.039 C 
ATOM     12  C   UNL     1      34.457 -20.865 -19.850  0.00  0.00    +0.006 C 
ATOM     13  C   UNL     1      36.870 -21.405 -18.546  0.00  0.00    +0.038 C 
ATOM     14  C   UNL     1      35.662 -20.422 -20.396  0.00  0.00    +0.000 C 
ATOM     15  C   UNL     1      36.866 -20.691 -19.745  0.00  0.00    +0.003 C 
ENDROOT
BRANCH   4  16
ATOM     16  S   UNL     1      30.914 -24.621 -14.130  0.00  0.00    +0.081 S 
ATOM     17  O   UNL     1      30.417 -25.760 -14.891  0.00  0.00    -0.149 OA
ATOM     18  O   UNL     1      31.240 -24.787 -12.719  0.00  0.00    -0.149 OA
BRANCH  16  19
ATOM     19  N   UNL     1      29.826 -23.316 -14.302  0.00  0.00    -0.156 N 
ATOM     20  N   UNL     1      28.082 -22.118 -15.448  0.00  0.00    -0.094 NA
ATOM     21  N   UNL     1      28.804 -24.053 -16.378  0.00  0.00    -0.071 NA
ATOM     22  N   UNL     1      27.459 -22.442 -16.591  0.00  0.00    -0.139 N 
ATOM     23  N   UNL     1      27.856 -23.580 -17.176  0.00  0.00    -0.020 NA
ATOM     24  C   UNL     1      28.906 -23.155 -15.366  0.00  0.00    +0.145 C 
ATOM     25  H   UNL     1      29.839 -22.620 -13.605  0.00  0.00    +0.186 HD
ATOM     26  H   UNL     1      26.751 -21.876 -16.976  0.00  0.00    +0.197 HD
ENDBRANCH  16  19
ENDBRANCH   4  16
TORSDOF 2
ENDMDL
MODEL 3
REMARK VINA RESULT:     -11.6      1.038      2.286
REMARK  Name = 6102777
REMARK  2 active torsions:
REMARK  status: ('A' for Active; 'I' for Inactive)
REMARK    1  A    between atoms: C_4  and  S_16
REMARK    2  A    between atoms: S_16  and  N_19
REMARK                            x       y       z     vdW  Elec       q    Type
REMARK                         _______ _______ _______ _____ _____    ______ ____
ROOT
ATOM      1  O   UNL     1      32.901 -21.288 -19.039  0.00  0.00    -0.453 OA
ATOM      2  O   UNL     1      36.902 -21.634 -18.253  0.00  0.00    -0.286 OA
ATOM      3  C   UNL     1      34.693 -22.164 -17.630  0.00  0.00    +0.075 A 
ATOM      4  C   UNL     1      34.086 -23.500 -15.715  0.00  0.00    +0.126 C 
ATOM      5  C   UNL     1      33.346 -22.005 -17.957  0.00  0.00    +0.148 A 
ATOM      6  C   UNL     1      35.069 -22.911 -16.511  0.00  0.00    +0.026 C 
ATOM      7  C   UNL     1      35.210 -20.768 -19.643  0.00  0.00    +0.074 A 
ATOM      8  C   UNL     1      35.707 -21.532 -18.488  0.00  0.00    +0.201 A 
ATOM      9  C   UNL     1      33.833 -20.690 -19.852  0.00  0.00    +0.148 A 
ATOM     10  C   UNL     1      32.738 -23.343 -16.036  0.00  0.00    +0.023 C 
ATOM     11  C   UNL     1      32.367 -22.597 -17.155  0.00  0.00    +0.039 C 
ATOM     12  C   UNL     1      36.097 -20.133 -20.515  0.00  0.00    +0.006 C 
ATOM     13  C   UNL     1      33.339 -19.971 -20.942  0.00  0.00    +0.038 C 
ATOM     14  C   UNL     1      35.598 -19.415 -21.602  0.00  0.00    +0.000 C 
ATOM     15  C   UNL     1      34.222 -19.334 -21.815  0.00  0.00    +0.003 C 
ENDROOT
BRANCH   4  16
ATOM     16  S   UNL     1      34.544 -24.435 -14.313  0.00  0.00    +0.081 S 
ATOM     17  O   UNL     1      33.343 -24.702 -13.533  0.00  0.00    -0.149 OA
ATOM     18  O   UNL     1      35.372 -25.547 -14.761  0.00  0.00    -0.149 OA
BRANCH  16  19
ATOM     19  N   UNL     1      35.520 -23.316 -13.469  0.00  0.00    -0.156 N 
ATOM     20  N   UNL     1      36.921 -22.657 -11.627  0.00  0.00    -0.094 NA
ATOM     21  N   UNL     1      36.076 -24.759 -11.597  0.00  0.00    -0.071 NA
ATOM     22  N   UNL     1      37.284 -23.378 -10.555  0.00  0.00    -0.139 N 
ATOM     23  N   UNL     1      36.805 -24.628 -10.496  0.00  0.00    -0.020 NA
ATOM     24  C   UNL     1      36.172 -23.567 -12.238  0.00  0.00    +0.145 C 
ATOM     25  H   UNL     1      35.640 -22.425 -13.872  0.00  0.00    +0.186 HD
ATOM     26  H   UNL     1      37.867 -23.009  -9.853  0.00  0.00    +0.197 HD
ENDBRANCH  16  19
ENDBRANCH   4  16
TORSDOF 2
ENDMDL
MODEL 4
REMARK VINA RESULT:     -11.3      2.900      4.160
REMARK  Name = 6102777
REMARK  2 active torsions:
REMARK  status: ('A' for Active; 'I' for Inactive)
REMARK    1  A    between atoms: C_4  and  S_16
REMARK    2  A    between atoms: S_16  and  N_19
REMARK                            x       y       z     vdW  Elec       q    Type
REMARK                         _______ _______ _______ _____ _____    ______ ____
ROOT
ATOM      1  O   UNL     1      34.186 -22.968 -16.633  0.00  0.00    -0.453 OA
ATOM      2  O   UNL     1      38.117 -21.838 -16.520  0.00  0.00    -0.286 OA
ATOM      3  C   UNL     1      36.331 -22.954 -15.466  0.00  0.00    +0.075 A 
ATOM      4  C   UNL     1      36.476 -24.075 -13.334  0.00  0.00    +0.126 C 
ATOM      5  C   UNL     1      34.986 -23.306 -15.569  0.00  0.00    +0.148 A 
ATOM      6  C   UNL     1      37.081 -23.336 -14.351  0.00  0.00    +0.026 C 
ATOM      7  C   UNL     1      36.071 -21.825 -17.685  0.00  0.00    +0.074 A 
ATOM      8  C   UNL     1      36.943 -22.176 -16.554  0.00  0.00    +0.201 A 
ATOM      9  C   UNL     1      34.740 -22.241 -17.659  0.00  0.00    +0.148 A 
ATOM     10  C   UNL     1      35.130 -24.428 -13.431  0.00  0.00    +0.023 C 
ATOM     11  C   UNL     1      34.385 -24.044 -14.547  0.00  0.00    +0.039 C 
ATOM     12  C   UNL     1      36.563 -21.087 -18.764  0.00  0.00    +0.006 C 
ATOM     13  C   UNL     1      33.893 -21.919 -18.721  0.00  0.00    +0.038 C 
ATOM     14  C   UNL     1      35.712 -20.768 -19.823  0.00  0.00    +0.000 C 
ATOM     15  C   UNL     1      34.380 -21.182 -19.802  0.00  0.00    +0.003 C 
ENDROOT
BRANCH   4  16
ATOM     16  S   UNL     1      37.403 -24.557 -11.935  0.00  0.00    +0.081 S 
ATOM     17  O   UNL     1      37.331 -23.484 -10.951  0.00  0.00    -0.149 OA
ATOM     18  O   UNL     1      36.991 -25.903 -11.561  0.00  0.00    -0.149 OA
BRANCH  16  19
ATOM     19  N   UNL     1      38.982 -24.614 -12.584  0.00  0.00    -0.156 N 
ATOM     20  N   UNL     1      40.695 -25.583 -13.968  0.00  0.00    -0.094 NA
ATOM     21  N   UNL     1      38.670 -26.598 -13.948  0.00  0.00    -0.071 NA
ATOM     22  N   UNL     1      40.620 -26.669 -14.752  0.00  0.00    -0.139 N 
ATOM     23  N   UNL     1      39.438 -27.302 -14.770  0.00  0.00    -0.020 NA
ATOM     24  C   UNL     1      39.455 -25.589 -13.494  0.00  0.00    +0.145 C 
ATOM     25  H   UNL     1      39.613 -23.913 -12.302  0.00  0.00    +0.186 HD
ATOM     26  H   UNL     1      41.387 -26.982 -15.283  0.00  0.00    +0.197 HD
ENDBRANCH  16  19
ENDBRANCH   4  16
TORSDOF 2
ENDMDL
MODEL 5
REMARK VINA RESULT:     -11.1      6.602      9.351
REMARK  Name = 6102777
REMARK  2 active torsions:
REMARK  status: ('A' for Active; 'I' for Inactive)
REMARK    1  A    between atoms: C_4  and  S_16
REMARK    2  A    between atoms: S_16  and  N_19
REMARK                            x       y       z     vdW  Elec       q    Type
REMARK                         _______ _______ _______ _____ _____    ______ ____
ROOT
ATOM      1  O   UNL     1      32.745 -21.544 -18.674  0.00  0.00    -0.453 OA
ATOM      2  O   UNL     1      36.760 -21.878 -17.955  0.00  0.00    -0.286 OA
ATOM      3  C   UNL     1      35.041 -20.978 -19.289  0.00  0.00    +0.075 A 
ATOM      4  C   UNL     1      35.388 -19.548 -21.202  0.00  0.00    +0.126 C 
ATOM      5  C   UNL     1      33.660 -20.907 -19.476  0.00  0.00    +0.148 A 
ATOM      6  C   UNL     1      35.909 -20.300 -20.148  0.00  0.00    +0.026 C 
ATOM      7  C   UNL     1      34.566 -22.451 -17.322  0.00  0.00    +0.074 A 
ATOM      8  C   UNL     1      35.561 -21.778 -18.170  0.00  0.00    +0.201 A 
ATOM      9  C   UNL     1      33.213 -22.296 -17.624  0.00  0.00    +0.148 A 
ATOM     10  C   UNL     1      34.008 -19.476 -21.394  0.00  0.00    +0.023 C 
ATOM     11  C   UNL     1      33.145 -20.154 -20.533  0.00  0.00    +0.039 C 
ATOM     12  C   UNL     1      34.965 -23.233 -16.235  0.00  0.00    +0.006 C 
ATOM     13  C   UNL     1      32.251 -22.926 -16.833  0.00  0.00    +0.038 C 
ATOM     14  C   UNL     1      33.998 -23.861 -15.448  0.00  0.00    +0.000 C 
ATOM     15  C   UNL     1      32.645 -23.708 -15.746  0.00  0.00    +0.003 C 
ENDROOT
BRANCH   4  16
ATOM     16  S   UNL     1      36.465 -18.698 -22.282  0.00  0.00    +0.081 S 
ATOM     17  O   UNL     1      37.809 -18.757 -21.723  0.00  0.00    -0.149 OA
ATOM     18  O   UNL     1      36.228 -19.187 -23.634  0.00  0.00    -0.149 OA
BRANCH  16  19
ATOM     19  N   UNL     1      35.875 -17.101 -22.153  0.00  0.00    -0.156 N 
ATOM     20  N   UNL     1      34.826 -15.125 -23.042  0.00  0.00    -0.094 NA
ATOM     21  N   UNL     1      35.095 -16.885 -24.442  0.00  0.00    -0.071 NA
ATOM     22  N   UNL     1      34.364 -14.912 -24.282  0.00  0.00    -0.139 N 
ATOM     23  N   UNL     1      34.503 -15.928 -25.146  0.00  0.00    -0.020 NA
ATOM     24  C   UNL     1      35.268 -16.367 -23.200  0.00  0.00    +0.145 C 
ATOM     25  H   UNL     1      35.965 -16.654 -21.280  0.00  0.00    +0.186 HD
ATOM     26  H   UNL     1      33.948 -14.059 -24.543  0.00  0.00    +0.197 HD
ENDBRANCH  16  19
ENDBRANCH   4  16
TORSDOF 2
ENDMDL
MODEL 6
REMARK VINA RESULT:     -11.1      2.332      2.853
REMARK  Name = 6102777
REMARK  2 active torsions:
REMARK  status: ('A' for Active; 'I' for Inactive)
REMARK    1  A    between atoms: C_4  and  S_16
REMARK    2  A    between atoms: S_16  and  N_19
REMARK                            x       y       z     vdW  Elec       q    Type
REMARK                         _______ _______ _______ _____ _____    ______ ____
ROOT
ATOM      1  O   UNL     1      37.079 -20.295 -19.198  0.00  0.00    -0.453 OA
ATOM      2  O   UNL     1      33.187 -21.511 -19.549  0.00  0.00    -0.286 OA
ATOM      3  C   UNL     1      35.197 -21.584 -18.324  0.00  0.00    +0.075 A 
ATOM      4  C   UNL     1      35.521 -22.833 -16.285  0.00  0.00    +0.126 C 
ATOM      5  C   UNL     1      36.515 -21.132 -18.266  0.00  0.00    +0.148 A 
ATOM      6  C   UNL     1      34.695 -22.435 -17.337  0.00  0.00    +0.026 C 
ATOM      7  C   UNL     1      34.971 -20.251 -20.431  0.00  0.00    +0.074 A 
ATOM      8  C   UNL     1      34.349 -21.147 -19.444  0.00  0.00    +0.201 A 
ATOM      9  C   UNL     1      36.302 -19.876 -20.251  0.00  0.00    +0.148 A 
ATOM     10  C   UNL     1      36.840 -22.385 -16.223  0.00  0.00    +0.023 C 
ATOM     11  C   UNL     1      37.338 -21.535 -17.212  0.00  0.00    +0.039 C 
ATOM     12  C   UNL     1      34.244 -19.783 -21.528  0.00  0.00    +0.006 C 
ATOM     13  C   UNL     1      36.913 -19.026 -21.175  0.00  0.00    +0.038 C 
ATOM     14  C   UNL     1      34.860 -18.934 -22.449  0.00  0.00    +0.000 C 
ATOM     15  C   UNL     1      36.191 -18.556 -22.273  0.00  0.00    +0.003 C 
ENDROOT
BRANCH   4  16
ATOM     16  S   UNL     1      34.903 -23.897 -15.045  0.00  0.00    +0.081 S 
ATOM     17  O   UNL     1      35.376 -25.246 -15.328  0.00  0.00    -0.149 OA
ATOM     18  O   UNL     1      35.186 -23.294 -13.750  0.00  0.00    -0.149 OA
BRANCH  16  19
ATOM     19  N   UNL     1      33.224 -23.819 -15.344  0.00  0.00    -0.156 N 
ATOM     20  N   UNL     1      30.921 -24.145 -14.728  0.00  0.00    -0.094 NA
ATOM     21  N   UNL     1      32.501 -24.738 -13.216  0.00  0.00    -0.071 NA
ATOM     22  N   UNL     1      30.425 -24.640 -13.584  0.00  0.00    -0.139 N 
ATOM     23  N   UNL     1      31.325 -25.006 -12.661  0.00  0.00    -0.020 NA
ATOM     24  C   UNL     1      32.214 -24.229 -14.441  0.00  0.00    +0.145 C 
ATOM     25  H   UNL     1      32.935 -23.460 -16.215  0.00  0.00    +0.186 HD
ATOM     26  H   UNL     1      29.457 -24.731 -13.433  0.00  0.00    +0.197 HD
ENDBRANCH  16  19
ENDBRANCH   4  16
TORSDOF 2
ENDMDL
MODEL 7
REMARK VINA RESULT:     -11.0      4.477      6.115
REMARK  Name = 6102777
REMARK  2 active torsions:
REMARK  status: ('A' for Active; 'I' for Inactive)
REMARK    1  A    between atoms: C_4  and  S_16
REMARK    2  A    between atoms: S_16  and  N_19
REMARK                            x       y       z     vdW  Elec       q    Type
REMARK                         _______ _______ _______ _____ _____    ______ ____
ROOT
ATOM      1  O   UNL     1      32.996 -23.739 -13.234  0.00  0.00    -0.453 OA
ATOM      2  O   UNL     1      34.328 -23.127 -17.055  0.00  0.00    -0.286 OA
ATOM      3  C   UNL     1      34.843 -23.712 -14.832  0.00  0.00    +0.075 A 
ATOM      4  C   UNL     1      37.049 -24.279 -14.034  0.00  0.00    +0.126 C 
ATOM      5  C   UNL     1      34.322 -23.903 -13.553  0.00  0.00    +0.148 A 
ATOM      6  C   UNL     1      36.205 -23.898 -15.079  0.00  0.00    +0.026 C 
ATOM      7  C   UNL     1      32.514 -23.142 -15.552  0.00  0.00    +0.074 A 
ATOM      8  C   UNL     1      33.930 -23.311 -15.914  0.00  0.00    +0.201 A 
ATOM      9  C   UNL     1      32.129 -23.366 -14.231  0.00  0.00    +0.148 A 
ATOM     10  C   UNL     1      36.533 -24.470 -12.753  0.00  0.00    +0.023 C 
ATOM     11  C   UNL     1      35.171 -24.283 -12.511  0.00  0.00    +0.039 C 
ATOM     12  C   UNL     1      31.572 -22.764 -16.512  0.00  0.00    +0.006 C 
ATOM     13  C   UNL     1      30.790 -23.211 -13.865  0.00  0.00    +0.038 C 
ATOM     14  C   UNL     1      30.236 -22.610 -16.141  0.00  0.00    +0.000 C 
ATOM     15  C   UNL     1      29.845 -22.833 -14.821  0.00  0.00    +0.003 C 
ENDROOT
BRANCH   4  16
ATOM     16  S   UNL     1      38.753 -24.514 -14.332  0.00  0.00    +0.081 S 
ATOM     17  O   UNL     1      39.191 -23.507 -15.290  0.00  0.00    -0.149 OA
ATOM     18  O   UNL     1      39.427 -24.620 -13.044  0.00  0.00    -0.149 OA
BRANCH  16  19
ATOM     19  N   UNL     1      38.753 -26.044 -15.090  0.00  0.00    -0.156 N 
ATOM     20  N   UNL     1      39.776 -28.136 -15.695  0.00  0.00    -0.094 NA
ATOM     21  N   UNL     1      41.007 -26.689 -14.461  0.00  0.00    -0.071 NA
ATOM     22  N   UNL     1      41.006 -28.580 -15.397  0.00  0.00    -0.139 N 
ATOM     23  N   UNL     1      41.770 -27.755 -14.668  0.00  0.00    -0.020 NA
ATOM     24  C   UNL     1      39.834 -26.957 -15.088  0.00  0.00    +0.145 C 
ATOM     25  H   UNL     1      37.934 -26.312 -15.568  0.00  0.00    +0.186 HD
ATOM     26  H   UNL     1      41.328 -29.461 -15.696  0.00  0.00    +0.197 HD
ENDBRANCH  16  19
ENDBRANCH   4  16
TORSDOF 2
ENDMDL
MODEL 8
REMARK VINA RESULT:     -11.0      3.935      5.998
REMARK  Name = 6102777
REMARK  2 active torsions:
REMARK  status: ('A' for Active; 'I' for Inactive)
REMARK    1  A    between atoms: C_4  and  S_16
REMARK    2  A    between atoms: S_16  and  N_19
REMARK                            x       y       z     vdW  Elec       q    Type
REMARK                         _______ _______ _______ _____ _____    ______ ____
ROOT
ATOM      1  O   UNL     1      32.115 -22.814 -16.694  0.00  0.00    -0.453 OA
ATOM      2  O   UNL     1      32.863 -24.695 -13.137  0.00  0.00    -0.286 OA
ATOM      3  C   UNL     1      33.725 -23.586 -15.028  0.00  0.00    +0.075 A 
ATOM      4  C   UNL     1      36.068 -23.167 -15.428  0.00  0.00    +0.126 C 
ATOM      5  C   UNL     1      33.399 -22.958 -16.229  0.00  0.00    +0.148 A 
ATOM      6  C   UNL     1      35.058 -23.694 -14.622  0.00  0.00    +0.026 C 
ATOM      7  C   UNL     1      31.271 -23.967 -14.713  0.00  0.00    +0.074 A 
ATOM      8  C   UNL     1      32.640 -24.132 -14.199  0.00  0.00    +0.201 A 
ATOM      9  C   UNL     1      31.088 -23.316 -15.932  0.00  0.00    +0.148 A 
ATOM     10  C   UNL     1      35.747 -22.538 -16.631  0.00  0.00    +0.023 C 
ATOM     11  C   UNL     1      34.414 -22.433 -17.032  0.00  0.00    +0.039 C 
ATOM     12  C   UNL     1      30.175 -24.452 -13.995  0.00  0.00    +0.006 C 
ATOM     13  C   UNL     1      29.798 -23.149 -16.440  0.00  0.00    +0.038 C 
ATOM     14  C   UNL     1      28.888 -24.282 -14.507  0.00  0.00    +0.000 C 
ATOM     15  C   UNL     1      28.699 -23.632 -15.726  0.00  0.00    +0.003 C 
ENDROOT
BRANCH   4  16
ATOM     16  S   UNL     1      37.737 -23.296 -14.931  0.00  0.00    +0.081 S 
ATOM     17  O   UNL     1      38.561 -22.627 -15.929  0.00  0.00    -0.149 OA
ATOM     18  O   UNL     1      37.826 -22.888 -13.535  0.00  0.00    -0.149 OA
BRANCH  16  19
ATOM     19  N   UNL     1      37.988 -24.982 -15.038  0.00  0.00    -0.156 N 
ATOM     20  N   UNL     1      39.349 -26.960 -14.872  0.00  0.00    -0.094 NA
ATOM     21  N   UNL     1      40.331 -24.974 -14.399  0.00  0.00    -0.071 NA
ATOM     22  N   UNL     1      40.641 -27.057 -14.529  0.00  0.00    -0.139 N 
ATOM     23  N   UNL     1      41.263 -25.905 -14.241  0.00  0.00    -0.020 NA
ATOM     24  C   UNL     1      39.211 -25.643 -14.773  0.00  0.00    +0.145 C 
ATOM     25  H   UNL     1      37.221 -25.539 -15.305  0.00  0.00    +0.186 HD
ATOM     26  H   UNL     1      41.106 -27.924 -14.492  0.00  0.00    +0.197 HD
ENDBRANCH  16  19
ENDBRANCH   4  16
TORSDOF 2
ENDMDL
MODEL 9
REMARK VINA RESULT:     -10.8      2.199      3.364
REMARK  Name = 6102777
REMARK  2 active torsions:
REMARK  status: ('A' for Active; 'I' for Inactive)
REMARK    1  A    between atoms: C_4  and  S_16
REMARK    2  A    between atoms: S_16  and  N_19
REMARK                            x       y       z     vdW  Elec       q    Type
REMARK                         _______ _______ _______ _____ _____    ______ ____
ROOT
ATOM      1  O   UNL     1      32.853 -21.238 -18.967  0.00  0.00    -0.453 OA
ATOM      2  O   UNL     1      36.789 -21.892 -18.057  0.00  0.00    -0.286 OA
ATOM      3  C   UNL     1      34.528 -22.245 -17.502  0.00  0.00    +0.075 A 
ATOM      4  C   UNL     1      33.761 -23.521 -15.602  0.00  0.00    +0.126 C 
ATOM      5  C   UNL     1      33.208 -21.983 -17.870  0.00  0.00    +0.148 A 
ATOM      6  C   UNL     1      34.810 -23.013 -16.370  0.00  0.00    +0.026 C 
ATOM      7  C   UNL     1      35.213 -20.903 -19.501  0.00  0.00    +0.074 A 
ATOM      8  C   UNL     1      35.614 -21.698 -18.329  0.00  0.00    +0.201 A 
ATOM      9  C   UNL     1      33.854 -20.719 -19.752  0.00  0.00    +0.148 A 
ATOM     10  C   UNL     1      32.439 -23.261 -15.965  0.00  0.00    +0.023 C 
ATOM     11  C   UNL     1      32.162 -22.493 -17.097  0.00  0.00    +0.039 C 
ATOM     12  C   UNL     1      36.174 -20.343 -20.347  0.00  0.00    +0.006 C 
ATOM     13  C   UNL     1      33.450 -19.969 -20.858  0.00  0.00    +0.038 C 
ATOM     14  C   UNL     1      35.765 -19.594 -21.450  0.00  0.00    +0.000 C 
ATOM     15  C   UNL     1      34.407 -19.407 -21.706  0.00  0.00    +0.003 C 
ENDROOT
BRANCH   4  16
ATOM     16  S   UNL     1      34.102 -24.482 -14.185  0.00  0.00    +0.081 S 
ATOM     17  O   UNL     1      34.953 -23.698 -13.299  0.00  0.00    -0.149 OA
ATOM     18  O   UNL     1      32.841 -25.013 -13.684  0.00  0.00    -0.149 OA
BRANCH  16  19
ATOM     19  N   UNL     1      35.019 -25.756 -14.857  0.00  0.00    -0.156 N 
ATOM     20  N   UNL     1      37.093 -26.833 -15.429  0.00  0.00    -0.094 NA
ATOM     21  N   UNL     1      37.211 -24.830 -14.378  0.00  0.00    -0.071 NA
ATOM     22  N   UNL     1      38.344 -26.405 -15.206  0.00  0.00    -0.139 N 
ATOM     23  N   UNL     1      38.461 -25.222 -14.587  0.00  0.00    -0.020 NA
ATOM     24  C   UNL     1      36.432 -25.814 -14.892  0.00  0.00    +0.145 C 
ATOM     25  H   UNL     1      34.524 -26.511 -15.252  0.00  0.00    +0.186 HD
ATOM     26  H   UNL     1      39.131 -26.929 -15.483  0.00  0.00    +0.197 HD
ENDBRANCH  16  19
ENDBRANCH   4  16
TORSDOF 2
ENDMDL
