MODEL 1
REMARK VINA RESULT:     -12.7      0.000      0.000
REMARK  Name = 657077
REMARK  7 active torsions:
REMARK  status: ('A' for Active; 'I' for Inactive)
REMARK    1  A    between atoms: C_3  and  C_23
REMARK    2  A    between atoms: C_8  and  C_10
REMARK    3  A    between atoms: C_12  and  C_15
REMARK    4  A    between atoms: C_15  and  C_16
REMARK    5  A    between atoms: C_16  and  C_17
REMARK    6  A    between atoms: C_26  and  C_29
REMARK    7  A    between atoms: C_29  and  N_30
REMARK                            x       y       z     vdW  Elec       q    Type
REMARK                         _______ _______ _______ _____ _____    ______ ____
ROOT
ATOM      1  O   UNL     1      33.365 -15.481 -25.757  0.00  0.00    -0.270 OA
ATOM      2  N   UNL     1      34.807 -16.189 -24.058  0.00  0.00    -0.276 N 
ATOM      3  C   UNL     1      35.376 -18.380 -22.256  0.00  0.00    +0.026 C 
ATOM      4  C   UNL     1      35.208 -16.935 -21.747  0.00  0.00    +0.026 C 
ATOM      5  C   UNL     1      34.594 -18.588 -23.567  0.00  0.00    +0.026 C 
ATOM      6  C   UNL     1      35.577 -15.927 -22.836  0.00  0.00    +0.094 C 
ATOM      7  C   UNL     1      34.973 -17.535 -24.608  0.00  0.00    +0.094 C 
ATOM      8  C   UNL     1      33.989 -15.269 -24.718  0.00  0.00    +0.251 C 
ENDROOT
BRANCH   8  10
ATOM      9  N   UNL     1      33.107 -12.570 -22.278  0.00  0.00    -0.242 NA
ATOM     10  C   UNL     1      33.835 -13.933 -24.130  0.00  0.00    +0.072 C 
ATOM     11  C   UNL     1      34.248 -12.802 -24.819  0.00  0.00    +0.003 C 
ATOM     12  C   UNL     1      34.090 -11.549 -24.237  0.00  0.00    -0.003 C 
ATOM     13  C   UNL     1      33.277 -13.771 -22.877  0.00  0.00    +0.103 C 
ATOM     14  C   UNL     1      33.519 -11.488 -22.975  0.00  0.00    +0.095 C 
BRANCH  12  15
ATOM     15  C   UNL     1      34.521 -10.314 -24.944  0.00  0.00    +0.033 C 
BRANCH  15  16
ATOM     16  C   UNL     1      35.415  -9.382 -24.099  0.00  0.00    +0.031 C 
BRANCH  16  17
ATOM     17  C   UNL     1      34.783  -8.036 -23.833  0.00  0.00    -0.022 C 
ATOM     18  C   UNL     1      35.318  -6.905 -24.429  0.00  0.00    -0.004 C 
ATOM     19  C   UNL     1      33.680  -7.958 -22.998  0.00  0.00    -0.004 C 
ATOM     20  C   UNL     1      34.734  -5.662 -24.182  0.00  0.00    -0.000 C 
ATOM     21  C   UNL     1      33.096  -6.715 -22.752  0.00  0.00    -0.000 C 
ATOM     22  C   UNL     1      33.624  -5.567 -23.344  0.00  0.00    -0.000 C 
ENDBRANCH  16  17
ENDBRANCH  15  16
ENDBRANCH  12  15
ENDBRANCH   8  10
BRANCH   3  23
ATOM     23  C   UNL     1      34.999 -19.402 -21.200  0.00  0.00    -0.023 C 
ATOM     24  C   UNL     1      35.992 -19.996 -20.423  0.00  0.00    -0.011 C 
ATOM     25  C   UNL     1      33.661 -19.742 -21.008  0.00  0.00    -0.004 C 
ATOM     26  C   UNL     1      35.646 -20.934 -19.451  0.00  0.00    -0.045 C 
ATOM     27  C   UNL     1      33.315 -20.681 -20.036  0.00  0.00    -0.001 C 
ATOM     28  C   UNL     1      34.307 -21.277 -19.258  0.00  0.00    -0.006 C 
BRANCH  26  29
ATOM     29  C   UNL     1      36.706 -21.572 -18.617  0.00  0.00    -0.059 C 
BRANCH  29  30
ATOM     30  N   UNL     1      37.164 -20.698 -17.535  0.00  0.00    +0.383 N 
ATOM     31  H   UNL     1      37.512 -21.267 -16.763  0.00  0.00    -0.089 HD
ATOM     32  H   UNL     1      36.387 -20.123 -17.211  0.00  0.00    -0.089 HD
ATOM     33  H   UNL     1      37.912 -20.097 -17.879  0.00  0.00    -0.089 HD
ENDBRANCH  29  30
ENDBRANCH  26  29
ENDBRANCH   3  23
TORSDOF 7
ENDMDL
MODEL 2
REMARK VINA RESULT:     -12.5      1.681      2.500
REMARK  Name = 657077
REMARK  7 active torsions:
REMARK  status: ('A' for Active; 'I' for Inactive)
REMARK    1  A    between atoms: C_3  and  C_23
REMARK    2  A    between atoms: C_8  and  C_10
REMARK    3  A    between atoms: C_12  and  C_15
REMARK    4  A    between atoms: C_15  and  C_16
REMARK    5  A    between atoms: C_16  and  C_17
REMARK    6  A    between atoms: C_26  and  C_29
REMARK    7  A    between atoms: C_29  and  N_30
REMARK                            x       y       z     vdW  Elec       q    Type
REMARK                         _______ _______ _______ _____ _____    ______ ____
ROOT
ATOM      1  O   UNL     1      33.292 -15.590 -25.789  0.00  0.00    -0.270 OA
ATOM      2  N   UNL     1      34.769 -16.293 -24.119  0.00  0.00    -0.276 N 
ATOM      3  C   UNL     1      35.341 -18.456 -22.283  0.00  0.00    +0.026 C 
ATOM      4  C   UNL     1      35.223 -16.995 -21.804  0.00  0.00    +0.026 C 
ATOM      5  C   UNL     1      34.513 -18.674 -23.564  0.00  0.00    +0.026 C 
ATOM      6  C   UNL     1      35.582 -16.022 -22.927  0.00  0.00    +0.094 C 
ATOM      7  C   UNL     1      34.886 -17.656 -24.641  0.00  0.00    +0.094 C 
ATOM      8  C   UNL     1      33.953 -15.369 -24.775  0.00  0.00    +0.251 C 
ENDROOT
BRANCH   8  10
ATOM      9  N   UNL     1      34.353 -11.665 -24.409  0.00  0.00    -0.242 NA
ATOM     10  C   UNL     1      33.850 -14.017 -24.215  0.00  0.00    +0.072 C 
ATOM     11  C   UNL     1      33.188 -13.792 -23.018  0.00  0.00    +0.003 C 
ATOM     12  C   UNL     1      33.107 -12.499 -22.511  0.00  0.00    -0.003 C 
ATOM     13  C   UNL     1      34.411 -12.936 -24.868  0.00  0.00    +0.103 C 
ATOM     14  C   UNL     1      33.700 -11.480 -23.240  0.00  0.00    +0.095 C 
BRANCH  12  15
ATOM     15  C   UNL     1      32.404 -12.218 -21.231  0.00  0.00    +0.033 C 
BRANCH  15  16
ATOM     16  C   UNL     1      31.225 -11.231 -21.361  0.00  0.00    +0.031 C 
BRANCH  16  17
ATOM     17  C   UNL     1      31.615  -9.800 -21.080  0.00  0.00    -0.022 C 
ATOM     18  C   UNL     1      31.986  -9.437 -19.795  0.00  0.00    -0.004 C 
ATOM     19  C   UNL     1      31.596  -8.876 -22.112  0.00  0.00    -0.004 C 
ATOM     20  C   UNL     1      32.347  -8.115 -19.536  0.00  0.00    -0.000 C 
ATOM     21  C   UNL     1      31.958  -7.554 -21.853  0.00  0.00    -0.000 C 
ATOM     22  C   UNL     1      32.333  -7.173 -20.564  0.00  0.00    -0.000 C 
ENDBRANCH  16  17
ENDBRANCH  15  16
ENDBRANCH  12  15
ENDBRANCH   8  10
BRANCH   3  23
ATOM     23  C   UNL     1      34.972 -19.443 -21.191  0.00  0.00    -0.023 C 
ATOM     24  C   UNL     1      35.973 -20.032 -20.421  0.00  0.00    -0.011 C 
ATOM     25  C   UNL     1      33.634 -19.756 -20.961  0.00  0.00    -0.004 C 
ATOM     26  C   UNL     1      35.634 -20.939 -19.417  0.00  0.00    -0.045 C 
ATOM     27  C   UNL     1      33.295 -20.664 -19.957  0.00  0.00    -0.001 C 
ATOM     28  C   UNL     1      34.295 -21.254 -19.185  0.00  0.00    -0.006 C 
BRANCH  26  29
ATOM     29  C   UNL     1      36.703 -21.571 -18.590  0.00  0.00    -0.059 C 
BRANCH  29  30
ATOM     30  N   UNL     1      37.249 -20.652 -17.589  0.00  0.00    +0.383 N 
ATOM     31  H   UNL     1      36.547 -19.949 -17.354  0.00  0.00    -0.089 HD
ATOM     32  H   UNL     1      38.078 -20.193 -17.965  0.00  0.00    -0.089 HD
ATOM     33  H   UNL     1      37.500 -21.174 -16.749  0.00  0.00    -0.089 HD
ENDBRANCH  29  30
ENDBRANCH  26  29
ENDBRANCH   3  23
TORSDOF 7
ENDMDL
MODEL 3
REMARK VINA RESULT:     -11.1      1.689     10.593
REMARK  Name = 657077
REMARK  7 active torsions:
REMARK  status: ('A' for Active; 'I' for Inactive)
REMARK    1  A    between atoms: C_3  and  C_23
REMARK    2  A    between atoms: C_8  and  C_10
REMARK    3  A    between atoms: C_12  and  C_15
REMARK    4  A    between atoms: C_15  and  C_16
REMARK    5  A    between atoms: C_16  and  C_17
REMARK    6  A    between atoms: C_26  and  C_29
REMARK    7  A    between atoms: C_29  and  N_30
REMARK                            x       y       z     vdW  Elec       q    Type
REMARK                         _______ _______ _______ _____ _____    ______ ____
ROOT
ATOM      1  O   UNL     1      35.290 -15.134 -25.411  0.00  0.00    -0.270 OA
ATOM      2  N   UNL     1      33.961 -13.593 -24.260  0.00  0.00    -0.276 N 
ATOM      3  C   UNL     1      33.499 -10.764 -23.861  0.00  0.00    +0.026 C 
ATOM      4  C   UNL     1      33.713 -11.726 -22.676  0.00  0.00    +0.026 C 
ATOM      5  C   UNL     1      34.189 -11.305 -25.128  0.00  0.00    +0.026 C 
ATOM      6  C   UNL     1      33.279 -13.146 -23.039  0.00  0.00    +0.094 C 
ATOM      7  C   UNL     1      33.747 -12.737 -25.427  0.00  0.00    +0.094 C 
ATOM      8  C   UNL     1      34.740 -14.746 -24.381  0.00  0.00    +0.251 C 
ENDROOT
BRANCH   8  10
ATOM      9  N   UNL     1      35.087 -15.715 -20.782  0.00  0.00    -0.242 NA
ATOM     10  C   UNL     1      34.944 -15.572 -23.186  0.00  0.00    +0.072 C 
ATOM     11  C   UNL     1      35.177 -16.936 -23.296  0.00  0.00    +0.003 C 
ATOM     12  C   UNL     1      35.366 -17.694 -22.145  0.00  0.00    -0.003 C 
ATOM     13  C   UNL     1      34.908 -15.012 -21.924  0.00  0.00    +0.103 C 
ATOM     14  C   UNL     1      35.311 -17.041 -20.923  0.00  0.00    +0.095 C 
BRANCH  12  15
ATOM     15  C   UNL     1      35.617 -19.157 -22.222  0.00  0.00    +0.033 C 
BRANCH  15  16
ATOM     16  C   UNL     1      36.236 -19.760 -20.944  0.00  0.00    +0.031 C 
BRANCH  16  17
ATOM     17  C   UNL     1      35.241 -20.536 -20.113  0.00  0.00    -0.022 C 
ATOM     18  C   UNL     1      35.702 -21.482 -19.211  0.00  0.00    -0.004 C 
ATOM     19  C   UNL     1      33.887 -20.288 -20.269  0.00  0.00    -0.004 C 
ATOM     20  C   UNL     1      34.783 -22.199 -18.444  0.00  0.00    -0.000 C 
ATOM     21  C   UNL     1      32.969 -21.004 -19.500  0.00  0.00    -0.000 C 
ATOM     22  C   UNL     1      33.417 -21.960 -18.588  0.00  0.00    -0.000 C 
ENDBRANCH  16  17
ENDBRANCH  15  16
ENDBRANCH  12  15
ENDBRANCH   8  10
BRANCH   3  23
ATOM     23  C   UNL     1      33.939  -9.350 -23.533  0.00  0.00    -0.023 C 
ATOM     24  C   UNL     1      33.275  -8.629 -22.542  0.00  0.00    -0.011 C 
ATOM     25  C   UNL     1      35.006  -8.777 -24.222  0.00  0.00    -0.004 C 
ATOM     26  C   UNL     1      33.680  -7.330 -22.239  0.00  0.00    -0.045 C 
ATOM     27  C   UNL     1      35.411  -7.477 -23.919  0.00  0.00    -0.001 C 
ATOM     28  C   UNL     1      34.748  -6.753 -22.927  0.00  0.00    -0.006 C 
BRANCH  26  29
ATOM     29  C   UNL     1      32.973  -6.555 -21.178  0.00  0.00    -0.059 C 
BRANCH  29  30
ATOM     30  N   UNL     1      33.363  -6.973 -19.830  0.00  0.00    +0.383 N 
ATOM     31  H   UNL     1      34.126  -7.647 -19.891  0.00  0.00    -0.089 HD
ATOM     32  H   UNL     1      32.564  -7.404 -19.363  0.00  0.00    -0.089 HD
ATOM     33  H   UNL     1      33.670  -6.159 -19.297  0.00  0.00    -0.089 HD
ENDBRANCH  29  30
ENDBRANCH  26  29
ENDBRANCH   3  23
TORSDOF 7
ENDMDL
MODEL 4
REMARK VINA RESULT:     -10.9      4.271      7.124
REMARK  Name = 657077
REMARK  7 active torsions:
REMARK  status: ('A' for Active; 'I' for Inactive)
REMARK    1  A    between atoms: C_3  and  C_23
REMARK    2  A    between atoms: C_8  and  C_10
REMARK    3  A    between atoms: C_12  and  C_15
REMARK    4  A    between atoms: C_15  and  C_16
REMARK    5  A    between atoms: C_16  and  C_17
REMARK    6  A    between atoms: C_26  and  C_29
REMARK    7  A    between atoms: C_29  and  N_30
REMARK                            x       y       z     vdW  Elec       q    Type
REMARK                         _______ _______ _______ _____ _____    ______ ____
ROOT
ATOM      1  O   UNL     1      32.209  -7.490 -18.837  0.00  0.00    -0.270 OA
ATOM      2  N   UNL     1      31.671  -9.131 -20.413  0.00  0.00    -0.276 N 
ATOM      3  C   UNL     1      32.161 -11.882 -21.164  0.00  0.00    +0.026 C 
ATOM      4  C   UNL     1      32.327 -10.726 -22.169  0.00  0.00    +0.026 C 
ATOM      5  C   UNL     1      32.376 -11.382 -19.723  0.00  0.00    +0.026 C 
ATOM      6  C   UNL     1      31.425  -9.548 -21.800  0.00  0.00    +0.094 C 
ATOM      7  C   UNL     1      31.478 -10.184 -19.416  0.00  0.00    +0.094 C 
ATOM      8  C   UNL     1      32.029  -7.846 -20.001  0.00  0.00    +0.251 C 
ENDROOT
BRANCH   8  10
ATOM      9  N   UNL     1      31.518  -4.738 -22.026  0.00  0.00    -0.242 NA
ATOM     10  C   UNL     1      32.227  -6.819 -21.030  0.00  0.00    +0.072 C 
ATOM     11  C   UNL     1      33.256  -6.927 -21.954  0.00  0.00    +0.003 C 
ATOM     12  C   UNL     1      33.419  -5.937 -22.918  0.00  0.00    -0.003 C 
ATOM     13  C   UNL     1      31.392  -5.720 -21.104  0.00  0.00    +0.103 C 
ATOM     14  C   UNL     1      32.531  -4.873 -22.910  0.00  0.00    +0.095 C 
BRANCH  12  15
ATOM     15  C   UNL     1      34.512  -6.018 -23.924  0.00  0.00    +0.033 C 
BRANCH  15  16
ATOM     16  C   UNL     1      35.613  -7.042 -23.578  0.00  0.00    +0.031 C 
BRANCH  16  17
ATOM     17  C   UNL     1      35.437  -8.365 -24.286  0.00  0.00    -0.022 C 
ATOM     18  C   UNL     1      34.425  -9.222 -23.882  0.00  0.00    -0.004 C 
ATOM     19  C   UNL     1      36.290  -8.696 -25.326  0.00  0.00    -0.004 C 
ATOM     20  C   UNL     1      34.263 -10.443 -24.536  0.00  0.00    -0.000 C 
ATOM     21  C   UNL     1      36.127  -9.917 -25.981  0.00  0.00    -0.000 C 
ATOM     22  C   UNL     1      35.113 -10.791 -25.585  0.00  0.00    -0.000 C 
ENDBRANCH  16  17
ENDBRANCH  15  16
ENDBRANCH  12  15
ENDBRANCH   8  10
BRANCH   3  23
ATOM     23  C   UNL     1      33.059 -13.059 -21.498  0.00  0.00    -0.023 C 
ATOM     24  C   UNL     1      33.258 -13.425 -22.828  0.00  0.00    -0.011 C 
ATOM     25  C   UNL     1      33.684 -13.768 -20.474  0.00  0.00    -0.004 C 
ATOM     26  C   UNL     1      34.084 -14.505 -23.135  0.00  0.00    -0.045 C 
ATOM     27  C   UNL     1      34.511 -14.849 -20.782  0.00  0.00    -0.001 C 
ATOM     28  C   UNL     1      34.711 -15.217 -22.112  0.00  0.00    -0.006 C 
BRANCH  26  29
ATOM     29  C   UNL     1      34.300 -14.900 -24.558  0.00  0.00    -0.059 C 
BRANCH  29  30
ATOM     30  N   UNL     1      33.215 -14.448 -25.432  0.00  0.00    +0.383 N 
ATOM     31  H   UNL     1      33.182 -15.037 -26.264  0.00  0.00    -0.089 HD
ATOM     32  H   UNL     1      33.380 -13.480 -25.706  0.00  0.00    -0.089 HD
ATOM     33  H   UNL     1      32.328 -14.515 -24.933  0.00  0.00    -0.089 HD
ENDBRANCH  29  30
ENDBRANCH  26  29
ENDBRANCH   3  23
TORSDOF 7
ENDMDL
MODEL 5
REMARK VINA RESULT:     -10.5      4.464      7.361
REMARK  Name = 657077
REMARK  7 active torsions:
REMARK  status: ('A' for Active; 'I' for Inactive)
REMARK    1  A    between atoms: C_3  and  C_23
REMARK    2  A    between atoms: C_8  and  C_10
REMARK    3  A    between atoms: C_12  and  C_15
REMARK    4  A    between atoms: C_15  and  C_16
REMARK    5  A    between atoms: C_16  and  C_17
REMARK    6  A    between atoms: C_26  and  C_29
REMARK    7  A    between atoms: C_29  and  N_30
REMARK                            x       y       z     vdW  Elec       q    Type
REMARK                         _______ _______ _______ _____ _____    ______ ____
ROOT
ATOM      1  O   UNL     1      32.360  -7.333 -19.122  0.00  0.00    -0.270 OA
ATOM      2  N   UNL     1      31.788  -8.972 -20.688  0.00  0.00    -0.276 N 
ATOM      3  C   UNL     1      32.246 -11.729 -21.439  0.00  0.00    +0.026 C 
ATOM      4  C   UNL     1      32.409 -10.576 -22.448  0.00  0.00    +0.026 C 
ATOM      5  C   UNL     1      32.483 -11.228 -20.001  0.00  0.00    +0.026 C 
ATOM      6  C   UNL     1      31.522  -9.390 -22.070  0.00  0.00    +0.094 C 
ATOM      7  C   UNL     1      31.599 -10.021 -19.686  0.00  0.00    +0.094 C 
ATOM      8  C   UNL     1      32.163  -7.689 -20.283  0.00  0.00    +0.251 C 
ENDROOT
BRANCH   8  10
ATOM      9  N   UNL     1      31.568  -4.660 -22.401  0.00  0.00    -0.242 NA
ATOM     10  C   UNL     1      32.356  -6.666 -21.317  0.00  0.00    +0.072 C 
ATOM     11  C   UNL     1      33.454  -6.710 -22.164  0.00  0.00    +0.003 C 
ATOM     12  C   UNL     1      33.611  -5.727 -23.135  0.00  0.00    -0.003 C 
ATOM     13  C   UNL     1      31.450  -5.634 -21.471  0.00  0.00    +0.103 C 
ATOM     14  C   UNL     1      32.649  -4.732 -23.211  0.00  0.00    +0.095 C 
BRANCH  12  15
ATOM     15  C   UNL     1      34.775  -5.741 -24.061  0.00  0.00    +0.033 C 
BRANCH  15  16
ATOM     16  C   UNL     1      34.397  -5.611 -25.551  0.00  0.00    +0.031 C 
BRANCH  16  17
ATOM     17  C   UNL     1      35.055  -4.433 -26.229  0.00  0.00    -0.022 C 
ATOM     18  C   UNL     1      34.397  -3.214 -26.264  0.00  0.00    -0.004 C 
ATOM     19  C   UNL     1      36.306  -4.593 -26.804  0.00  0.00    -0.004 C 
ATOM     20  C   UNL     1      35.004  -2.126 -26.891  0.00  0.00    -0.000 C 
ATOM     21  C   UNL     1      36.914  -3.504 -27.430  0.00  0.00    -0.000 C 
ATOM     22  C   UNL     1      36.263  -2.271 -27.474  0.00  0.00    -0.000 C 
ENDBRANCH  16  17
ENDBRANCH  15  16
ENDBRANCH  12  15
ENDBRANCH   8  10
BRANCH   3  23
ATOM     23  C   UNL     1      33.130 -12.914 -21.781  0.00  0.00    -0.023 C 
ATOM     24  C   UNL     1      33.276 -13.310 -23.109  0.00  0.00    -0.011 C 
ATOM     25  C   UNL     1      33.794 -13.601 -20.767  0.00  0.00    -0.004 C 
ATOM     26  C   UNL     1      34.089 -14.398 -23.424  0.00  0.00    -0.045 C 
ATOM     27  C   UNL     1      34.607 -14.690 -21.083  0.00  0.00    -0.001 C 
ATOM     28  C   UNL     1      34.755 -15.088 -22.411  0.00  0.00    -0.006 C 
BRANCH  26  29
ATOM     29  C   UNL     1      34.249 -14.824 -24.845  0.00  0.00    -0.059 C 
BRANCH  29  30
ATOM     30  N   UNL     1      32.985 -14.784 -25.584  0.00  0.00    +0.383 N 
ATOM     31  H   UNL     1      32.990 -13.986 -26.221  0.00  0.00    -0.089 HD
ATOM     32  H   UNL     1      32.211 -14.691 -24.928  0.00  0.00    -0.089 HD
ATOM     33  H   UNL     1      32.877 -15.645 -26.120  0.00  0.00    -0.089 HD
ENDBRANCH  29  30
ENDBRANCH  26  29
ENDBRANCH   3  23
TORSDOF 7
ENDMDL
MODEL 6
REMARK VINA RESULT:     -10.3      4.452     12.496
REMARK  Name = 657077
REMARK  7 active torsions:
REMARK  status: ('A' for Active; 'I' for Inactive)
REMARK    1  A    between atoms: C_3  and  C_23
REMARK    2  A    between atoms: C_8  and  C_10
REMARK    3  A    between atoms: C_12  and  C_15
REMARK    4  A    between atoms: C_15  and  C_16
REMARK    5  A    between atoms: C_16  and  C_17
REMARK    6  A    between atoms: C_26  and  C_29
REMARK    7  A    between atoms: C_29  and  N_30
REMARK                            x       y       z     vdW  Elec       q    Type
REMARK                         _______ _______ _______ _____ _____    ______ ____
ROOT
ATOM      1  O   UNL     1      37.304 -20.983 -17.760  0.00  0.00    -0.270 OA
ATOM      2  N   UNL     1      36.297 -20.629 -19.840  0.00  0.00    -0.276 N 
ATOM      3  C   UNL     1      35.861 -18.648 -21.904  0.00  0.00    +0.026 C 
ATOM      4  C   UNL     1      34.694 -19.440 -21.281  0.00  0.00    +0.026 C 
ATOM      5  C   UNL     1      37.036 -18.544 -20.913  0.00  0.00    +0.026 C 
ATOM      6  C   UNL     1      35.171 -20.798 -20.766  0.00  0.00    +0.094 C 
ATOM      7  C   UNL     1      37.450 -19.925 -20.403  0.00  0.00    +0.094 C 
ATOM      8  C   UNL     1      36.350 -21.102 -18.527  0.00  0.00    +0.251 C 
ENDROOT
BRANCH   8  10
ATOM      9  N   UNL     1      32.856 -22.421 -18.259  0.00  0.00    -0.242 NA
ATOM     10  C   UNL     1      35.170 -21.792 -17.992  0.00  0.00    +0.072 C 
ATOM     11  C   UNL     1      35.223 -22.448 -16.771  0.00  0.00    +0.003 C 
ATOM     12  C   UNL     1      34.089 -23.093 -16.289  0.00  0.00    -0.003 C 
ATOM     13  C   UNL     1      33.980 -21.805 -18.693  0.00  0.00    +0.103 C 
ATOM     14  C   UNL     1      32.941 -23.051 -17.065  0.00  0.00    +0.095 C 
BRANCH  12  15
ATOM     15  C   UNL     1      34.107 -23.807 -14.985  0.00  0.00    +0.033 C 
BRANCH  15  16
ATOM     16  C   UNL     1      35.199 -24.892 -14.875  0.00  0.00    +0.031 C 
BRANCH  16  17
ATOM     17  C   UNL     1      36.216 -24.603 -13.796  0.00  0.00    -0.022 C 
ATOM     18  C   UNL     1      37.115 -25.591 -13.428  0.00  0.00    -0.004 C 
ATOM     19  C   UNL     1      36.231 -23.354 -13.195  0.00  0.00    -0.004 C 
ATOM     20  C   UNL     1      38.054 -25.323 -12.431  0.00  0.00    -0.000 C 
ATOM     21  C   UNL     1      37.171 -23.087 -12.200  0.00  0.00    -0.000 C 
ATOM     22  C   UNL     1      38.082 -24.072 -11.817  0.00  0.00    -0.000 C 
ENDBRANCH  16  17
ENDBRANCH  15  16
ENDBRANCH  12  15
ENDBRANCH   8  10
BRANCH   3  23
ATOM     23  C   UNL     1      35.419 -17.287 -22.407  0.00  0.00    -0.023 C 
ATOM     24  C   UNL     1      35.195 -16.251 -21.502  0.00  0.00    -0.011 C 
ATOM     25  C   UNL     1      35.240 -17.075 -23.773  0.00  0.00    -0.004 C 
ATOM     26  C   UNL     1      34.790 -14.999 -21.963  0.00  0.00    -0.045 C 
ATOM     27  C   UNL     1      34.834 -15.823 -24.235  0.00  0.00    -0.001 C 
ATOM     28  C   UNL     1      34.609 -14.785 -23.330  0.00  0.00    -0.006 C 
BRANCH  26  29
ATOM     29  C   UNL     1      34.550 -13.888 -20.997  0.00  0.00    -0.059 C 
BRANCH  29  30
ATOM     30  N   UNL     1      33.158 -13.433 -21.006  0.00  0.00    +0.383 N 
ATOM     31  H   UNL     1      33.055 -12.643 -20.369  0.00  0.00    -0.089 HD
ATOM     32  H   UNL     1      32.550 -14.194 -20.706  0.00  0.00    -0.089 HD
ATOM     33  H   UNL     1      32.901 -13.144 -21.950  0.00  0.00    -0.089 HD
ENDBRANCH  29  30
ENDBRANCH  26  29
ENDBRANCH   3  23
TORSDOF 7
ENDMDL
MODEL 7
REMARK VINA RESULT:     -10.2      4.324     12.073
REMARK  Name = 657077
REMARK  7 active torsions:
REMARK  status: ('A' for Active; 'I' for Inactive)
REMARK    1  A    between atoms: C_3  and  C_23
REMARK    2  A    between atoms: C_8  and  C_10
REMARK    3  A    between atoms: C_12  and  C_15
REMARK    4  A    between atoms: C_15  and  C_16
REMARK    5  A    between atoms: C_16  and  C_17
REMARK    6  A    between atoms: C_26  and  C_29
REMARK    7  A    between atoms: C_29  and  N_30
REMARK                            x       y       z     vdW  Elec       q    Type
REMARK                         _______ _______ _______ _____ _____    ______ ____
ROOT
ATOM      1  O   UNL     1      37.259 -20.722 -17.810  0.00  0.00    -0.270 OA
ATOM      2  N   UNL     1      36.374 -20.446 -19.957  0.00  0.00    -0.276 N 
ATOM      3  C   UNL     1      35.946 -18.508 -22.062  0.00  0.00    +0.026 C 
ATOM      4  C   UNL     1      34.797 -19.375 -21.512  0.00  0.00    +0.026 C 
ATOM      5  C   UNL     1      37.042 -18.321 -20.995  0.00  0.00    +0.026 C 
ATOM      6  C   UNL     1      35.327 -20.696 -20.955  0.00  0.00    +0.094 C 
ATOM      7  C   UNL     1      37.512 -19.668 -20.446  0.00  0.00    +0.094 C 
ATOM      8  C   UNL     1      36.369 -20.909 -18.639  0.00  0.00    +0.251 C 
ENDROOT
BRANCH   8  10
ATOM      9  N   UNL     1      32.950 -22.432 -18.579  0.00  0.00    -0.242 NA
ATOM     10  C   UNL     1      35.205 -21.675 -18.179  0.00  0.00    +0.072 C 
ATOM     11  C   UNL     1      35.231 -22.348 -16.966  0.00  0.00    +0.003 C 
ATOM     12  C   UNL     1      34.113 -23.066 -16.556  0.00  0.00    -0.003 C 
ATOM     13  C   UNL     1      34.057 -21.745 -18.943  0.00  0.00    +0.103 C 
ATOM     14  C   UNL     1      33.008 -23.077 -17.392  0.00  0.00    +0.095 C 
BRANCH  12  15
ATOM     15  C   UNL     1      34.103 -23.800 -15.263  0.00  0.00    +0.033 C 
BRANCH  15  16
ATOM     16  C   UNL     1      33.120 -23.229 -14.220  0.00  0.00    +0.031 C 
BRANCH  16  17
ATOM     17  C   UNL     1      31.686 -23.628 -14.475  0.00  0.00    -0.022 C 
ATOM     18  C   UNL     1      31.322 -24.960 -14.361  0.00  0.00    -0.004 C 
ATOM     19  C   UNL     1      30.762 -22.655 -14.818  0.00  0.00    -0.004 C 
ATOM     20  C   UNL     1      29.998 -25.329 -14.597  0.00  0.00    -0.000 C 
ATOM     21  C   UNL     1      29.437 -23.024 -15.054  0.00  0.00    -0.000 C 
ATOM     22  C   UNL     1      29.055 -24.362 -14.944  0.00  0.00    -0.000 C 
ENDBRANCH  16  17
ENDBRANCH  15  16
ENDBRANCH  12  15
ENDBRANCH   8  10
BRANCH   3  23
ATOM     23  C   UNL     1      35.449 -17.182 -22.606  0.00  0.00    -0.023 C 
ATOM     24  C   UNL     1      35.201 -16.123 -21.735  0.00  0.00    -0.011 C 
ATOM     25  C   UNL     1      35.243 -17.026 -23.976  0.00  0.00    -0.004 C 
ATOM     26  C   UNL     1      34.745 -14.904 -22.234  0.00  0.00    -0.045 C 
ATOM     27  C   UNL     1      34.787 -15.806 -24.475  0.00  0.00    -0.001 C 
ATOM     28  C   UNL     1      34.538 -14.745 -23.605  0.00  0.00    -0.006 C 
BRANCH  26  29
ATOM     29  C   UNL     1      34.479 -13.768 -21.304  0.00  0.00    -0.059 C 
BRANCH  29  30
ATOM     30  N   UNL     1      33.062 -13.398 -21.267  0.00  0.00    +0.383 N 
ATOM     31  H   UNL     1      32.577 -13.833 -22.052  0.00  0.00    -0.089 HD
ATOM     32  H   UNL     1      32.974 -12.385 -21.332  0.00  0.00    -0.089 HD
ATOM     33  H   UNL     1      32.649 -13.721 -20.392  0.00  0.00    -0.089 HD
ENDBRANCH  29  30
ENDBRANCH  26  29
ENDBRANCH   3  23
TORSDOF 7
ENDMDL
MODEL 8
REMARK VINA RESULT:     -10.1      3.255     12.176
REMARK  Name = 657077
REMARK  7 active torsions:
REMARK  status: ('A' for Active; 'I' for Inactive)
REMARK    1  A    between atoms: C_3  and  C_23
REMARK    2  A    between atoms: C_8  and  C_10
REMARK    3  A    between atoms: C_12  and  C_15
REMARK    4  A    between atoms: C_15  and  C_16
REMARK    5  A    between atoms: C_16  and  C_17
REMARK    6  A    between atoms: C_26  and  C_29
REMARK    7  A    between atoms: C_29  and  N_30
REMARK                            x       y       z     vdW  Elec       q    Type
REMARK                         _______ _______ _______ _____ _____    ______ ____
ROOT
ATOM      1  O   UNL     1      31.886  -9.795 -22.122  0.00  0.00    -0.270 OA
ATOM      2  N   UNL     1      33.666  -8.468 -22.854  0.00  0.00    -0.276 N 
ATOM      3  C   UNL     1      34.340  -5.858 -23.906  0.00  0.00    +0.026 C 
ATOM      4  C   UNL     1      34.795  -7.156 -24.603  0.00  0.00    +0.026 C 
ATOM      5  C   UNL     1      33.051  -6.101 -23.098  0.00  0.00    +0.026 C 
ATOM      6  C   UNL     1      34.921  -8.300 -23.597  0.00  0.00    +0.094 C 
ATOM      7  C   UNL     1      33.219  -7.275 -22.134  0.00  0.00    +0.094 C 
ATOM      8  C   UNL     1      32.923  -9.648 -22.767  0.00  0.00    +0.251 C 
ENDROOT
BRANCH   8  10
ATOM      9  N   UNL     1      33.992 -11.809 -25.631  0.00  0.00    -0.242 NA
ATOM     10  C   UNL     1      33.395 -10.820 -23.513  0.00  0.00    +0.072 C 
ATOM     11  C   UNL     1      33.687 -12.008 -22.859  0.00  0.00    +0.003 C 
ATOM     12  C   UNL     1      34.133 -13.102 -23.593  0.00  0.00    -0.003 C 
ATOM     13  C   UNL     1      33.560 -10.767 -24.883  0.00  0.00    +0.103 C 
ATOM     14  C   UNL     1      34.268 -12.952 -24.964  0.00  0.00    +0.095 C 
BRANCH  12  15
ATOM     15  C   UNL     1      34.457 -14.392 -22.927  0.00  0.00    +0.033 C 
BRANCH  15  16
ATOM     16  C   UNL     1      35.265 -15.371 -23.806  0.00  0.00    +0.031 C 
BRANCH  16  17
ATOM     17  C   UNL     1      35.235 -16.791 -23.293  0.00  0.00    -0.022 C 
ATOM     18  C   UNL     1      35.552 -17.041 -21.967  0.00  0.00    -0.004 C 
ATOM     19  C   UNL     1      34.891 -17.817 -24.157  0.00  0.00    -0.004 C 
ATOM     20  C   UNL     1      35.525 -18.352 -21.493  0.00  0.00    -0.000 C 
ATOM     21  C   UNL     1      34.863 -19.129 -23.683  0.00  0.00    -0.000 C 
ATOM     22  C   UNL     1      35.181 -19.397 -22.351  0.00  0.00    -0.000 C 
ENDBRANCH  16  17
ENDBRANCH  15  16
ENDBRANCH  12  15
ENDBRANCH   8  10
BRANCH   3  23
ATOM     23  C   UNL     1      34.190  -4.710 -24.886  0.00  0.00    -0.023 C 
ATOM     24  C   UNL     1      33.112  -3.833 -24.769  0.00  0.00    -0.011 C 
ATOM     25  C   UNL     1      35.131  -4.533 -25.899  0.00  0.00    -0.004 C 
ATOM     26  C   UNL     1      32.975  -2.777 -25.668  0.00  0.00    -0.045 C 
ATOM     27  C   UNL     1      34.992  -3.476 -26.799  0.00  0.00    -0.001 C 
ATOM     28  C   UNL     1      33.915  -2.598 -26.683  0.00  0.00    -0.006 C 
BRANCH  26  29
ATOM     29  C   UNL     1      31.823  -1.836 -25.545  0.00  0.00    -0.059 C 
BRANCH  29  30
ATOM     30  N   UNL     1      30.748  -2.378 -24.710  0.00  0.00    +0.383 N 
ATOM     31  H   UNL     1      30.873  -3.385 -24.607  0.00  0.00    -0.089 HD
ATOM     32  H   UNL     1      29.848  -2.190 -25.151  0.00  0.00    -0.089 HD
ATOM     33  H   UNL     1      30.776  -1.937 -23.792  0.00  0.00    -0.089 HD
ENDBRANCH  29  30
ENDBRANCH  26  29
ENDBRANCH   3  23
TORSDOF 7
ENDMDL
MODEL 9
REMARK VINA RESULT:     -10.1      3.926      6.975
REMARK  Name = 657077
REMARK  7 active torsions:
REMARK  status: ('A' for Active; 'I' for Inactive)
REMARK    1  A    between atoms: C_3  and  C_23
REMARK    2  A    between atoms: C_8  and  C_10
REMARK    3  A    between atoms: C_12  and  C_15
REMARK    4  A    between atoms: C_15  and  C_16
REMARK    5  A    between atoms: C_16  and  C_17
REMARK    6  A    between atoms: C_26  and  C_29
REMARK    7  A    between atoms: C_29  and  N_30
REMARK                            x       y       z     vdW  Elec       q    Type
REMARK                         _______ _______ _______ _____ _____    ______ ____
ROOT
ATOM      1  O   UNL     1      32.649 -20.003 -20.366  0.00  0.00    -0.270 OA
ATOM      2  N   UNL     1      34.321 -21.445 -19.598  0.00  0.00    -0.276 N 
ATOM      3  C   UNL     1      35.280 -22.855 -17.259  0.00  0.00    +0.026 C 
ATOM      4  C   UNL     1      36.205 -21.950 -18.097  0.00  0.00    +0.026 C 
ATOM      5  C   UNL     1      33.814 -22.400 -17.390  0.00  0.00    +0.026 C 
ATOM      6  C   UNL     1      35.725 -21.871 -19.546  0.00  0.00    +0.094 C 
ATOM      7  C   UNL     1      33.396 -22.303 -18.857  0.00  0.00    +0.094 C 
ATOM      8  C   UNL     1      33.829 -20.344 -20.301  0.00  0.00    +0.251 C 
ENDROOT
BRANCH   8  10
ATOM      9  N   UNL     1      37.043 -18.667 -21.237  0.00  0.00    -0.242 NA
ATOM     10  C   UNL     1      34.789 -19.498 -21.022  0.00  0.00    +0.072 C 
ATOM     11  C   UNL     1      34.393 -18.754 -22.123  0.00  0.00    +0.003 C 
ATOM     12  C   UNL     1      35.325 -17.961 -22.786  0.00  0.00    -0.003 C 
ATOM     13  C   UNL     1      36.108 -19.425 -20.619  0.00  0.00    +0.103 C 
ATOM     14  C   UNL     1      36.625 -17.954 -22.307  0.00  0.00    +0.095 C 
BRANCH  12  15
ATOM     15  C   UNL     1      34.938 -17.150 -23.970  0.00  0.00    +0.033 C 
BRANCH  15  16
ATOM     16  C   UNL     1      35.472 -15.702 -23.946  0.00  0.00    +0.031 C 
BRANCH  16  17
ATOM     17  C   UNL     1      34.651 -14.783 -23.073  0.00  0.00    -0.022 C 
ATOM     18  C   UNL     1      33.695 -13.967 -23.657  0.00  0.00    -0.004 C 
ATOM     19  C   UNL     1      34.870 -14.771 -21.706  0.00  0.00    -0.004 C 
ATOM     20  C   UNL     1      32.937 -13.117 -22.852  0.00  0.00    -0.000 C 
ATOM     21  C   UNL     1      34.111 -13.922 -20.899  0.00  0.00    -0.000 C 
ATOM     22  C   UNL     1      33.145 -13.094 -21.473  0.00  0.00    -0.000 C 
ENDBRANCH  16  17
ENDBRANCH  15  16
ENDBRANCH  12  15
ENDBRANCH   8  10
BRANCH   3  23
ATOM     23  C   UNL     1      35.724 -22.937 -15.811  0.00  0.00    -0.023 C 
ATOM     24  C   UNL     1      34.882 -23.506 -14.858  0.00  0.00    -0.011 C 
ATOM     25  C   UNL     1      36.974 -22.445 -15.439  0.00  0.00    -0.004 C 
ATOM     26  C   UNL     1      35.290 -23.583 -13.527  0.00  0.00    -0.045 C 
ATOM     27  C   UNL     1      37.382 -22.522 -14.107  0.00  0.00    -0.001 C 
ATOM     28  C   UNL     1      36.540 -23.091 -13.151  0.00  0.00    -0.006 C 
BRANCH  26  29
ATOM     29  C   UNL     1      34.391 -24.192 -12.504  0.00  0.00    -0.059 C 
BRANCH  29  30
ATOM     30  N   UNL     1      33.179 -24.763 -13.096  0.00  0.00    +0.383 N 
ATOM     31  H   UNL     1      32.471 -24.883 -12.372  0.00  0.00    -0.089 HD
ATOM     32  H   UNL     1      33.398 -25.668 -13.511  0.00  0.00    -0.089 HD
ATOM     33  H   UNL     1      32.825 -24.134 -13.817  0.00  0.00    -0.089 HD
ENDBRANCH  29  30
ENDBRANCH  26  29
ENDBRANCH   3  23
TORSDOF 7
ENDMDL
