MODEL 1
REMARK VINA RESULT:     -12.0      0.000      0.000
REMARK  Name = 6852141
REMARK  6 active torsions:
REMARK  status: ('A' for Active; 'I' for Inactive)
REMARK    1  A    between atoms: C_3  and  N_18
REMARK    2  A    between atoms: C_7  and  C_31
REMARK    3  A    between atoms: C_9  and  C_13
REMARK    4  A    between atoms: C_19  and  C_21
REMARK    5  A    between atoms: C_24  and  O_28
REMARK    6  A    between atoms: C_31  and  O_32
REMARK                            x       y       z     vdW  Elec       q    Type
REMARK                         _______ _______ _______ _____ _____    ______ ____
ROOT
ATOM      1  C   UNL     1      31.980 -23.562 -15.320  0.00  0.00    +0.014 C 
ATOM      2  C   UNL     1      31.805 -24.363 -14.167  0.00  0.00    +0.001 C 
ATOM      3  C   UNL     1      33.264 -23.092 -15.641  0.00  0.00    +0.051 C 
ATOM      4  C   UNL     1      30.866 -23.253 -16.117  0.00  0.00    +0.004 C 
ATOM      5  C   UNL     1      32.918 -24.673 -13.369  0.00  0.00    +0.007 C 
ATOM      6  C   UNL     1      34.359 -23.411 -14.837  0.00  0.00    +0.021 C 
ATOM      7  C   UNL     1      34.187 -24.199 -13.703  0.00  0.00    +0.077 C 
ATOM      8  C   UNL     1      30.520 -24.832 -13.846  0.00  0.00    +0.000 C 
ATOM      9  C   UNL     1      29.598 -23.727 -15.783  0.00  0.00    +0.031 C 
ATOM     10  C   UNL     1      29.425 -24.516 -14.650  0.00  0.00    +0.003 C 
ENDROOT
BRANCH   9  13
ATOM     11  N   UNL     1      27.960 -22.098 -16.694  0.00  0.00    -0.343 N 
ATOM     12  N   UNL     1      27.863 -24.345 -17.328  0.00  0.00    -0.285 NA
ATOM     13  C   UNL     1      28.455 -23.399 -16.620  0.00  0.00    +0.117 C 
ATOM     14  H   UNL     1      27.186 -21.897 -17.267  0.00  0.00    +0.144 HD
ATOM     15  H   UNL     1      28.386 -21.379 -16.171  0.00  0.00    +0.144 HD
ATOM     16  H   UNL     1      27.089 -24.125 -17.895  0.00  0.00    +0.188 HD
ENDBRANCH   9  13
BRANCH   3  18
ATOM     17  O   UNL     1      33.826 -23.868 -18.481  0.00  0.00    -0.270 OA
ATOM     18  N   UNL     1      33.499 -22.294 -16.768  0.00  0.00    -0.280 N 
ATOM     19  C   UNL     1      33.757 -22.713 -18.076  0.00  0.00    +0.249 C 
ATOM     20  H   UNL     1      33.480 -21.322 -16.620  0.00  0.00    +0.155 HD
BRANCH  19  21
ATOM     21  C   UNL     1      33.995 -21.620 -19.054  0.00  0.00    +0.053 C 
ATOM     22  C   UNL     1      35.271 -21.136 -19.257  0.00  0.00    +0.016 C 
ATOM     23  C   UNL     1      32.904 -21.121 -19.738  0.00  0.00    +0.004 C 
ATOM     24  C   UNL     1      35.465 -20.109 -20.182  0.00  0.00    +0.130 C 
ATOM     25  C   UNL     1      36.443 -21.688 -18.508  0.00  0.00    +0.034 C 
ATOM     26  C   UNL     1      33.098 -20.095 -20.663  0.00  0.00    +0.003 C 
ATOM     27  C   UNL     1      34.379 -19.590 -20.884  0.00  0.00    +0.036 C 
BRANCH  24  28
ATOM     28  O   UNL     1      36.710 -19.603 -20.413  0.00  0.00    -0.506 OA
ATOM     29  H   UNL     1      36.977 -19.399 -21.288  0.00  0.00    +0.292 HD
ENDBRANCH  24  28
ENDBRANCH  19  21
ENDBRANCH   3  18
BRANCH   7  31
ATOM     30  O   UNL     1      36.478 -24.720 -13.292  0.00  0.00    -0.245 OA
ATOM     31  C   UNL     1      35.330 -24.528 -12.866  0.00  0.00    +0.341 C 
BRANCH  31  32
ATOM     32  O   UNL     1      34.983 -24.600 -11.545  0.00  0.00    -0.441 OA
ATOM     33  C   UNL     1      36.005 -24.297 -10.590  0.00  0.00    +0.256 C 
ENDBRANCH  31  32
ENDBRANCH   7  31
TORSDOF 6
ENDMDL
MODEL 2
REMARK VINA RESULT:     -11.7      2.512      5.320
REMARK  Name = 6852141
REMARK  6 active torsions:
REMARK  status: ('A' for Active; 'I' for Inactive)
REMARK    1  A    between atoms: C_3  and  N_18
REMARK    2  A    between atoms: C_7  and  C_31
REMARK    3  A    between atoms: C_9  and  C_13
REMARK    4  A    between atoms: C_19  and  C_21
REMARK    5  A    between atoms: C_24  and  O_28
REMARK    6  A    between atoms: C_31  and  O_32
REMARK                            x       y       z     vdW  Elec       q    Type
REMARK                         _______ _______ _______ _____ _____    ______ ____
ROOT
ATOM      1  C   UNL     1      32.261 -23.272 -15.425  0.00  0.00    +0.014 C 
ATOM      2  C   UNL     1      31.230 -23.880 -14.671  0.00  0.00    +0.001 C 
ATOM      3  C   UNL     1      31.935 -22.584 -16.606  0.00  0.00    +0.051 C 
ATOM      4  C   UNL     1      33.588 -23.371 -14.978  0.00  0.00    +0.004 C 
ATOM      5  C   UNL     1      29.902 -23.781 -15.118  0.00  0.00    +0.007 C 
ATOM      6  C   UNL     1      30.611 -22.495 -17.034  0.00  0.00    +0.021 C 
ATOM      7  C   UNL     1      29.596 -23.093 -16.293  0.00  0.00    +0.077 C 
ATOM      8  C   UNL     1      31.556 -24.569 -13.492  0.00  0.00    +0.000 C 
ATOM      9  C   UNL     1      33.894 -24.059 -13.803  0.00  0.00    +0.031 C 
ATOM     10  C   UNL     1      32.880 -24.656 -13.061  0.00  0.00    +0.003 C 
ENDROOT
BRANCH   9  13
ATOM     11  N   UNL     1      36.033 -25.300 -13.573  0.00  0.00    -0.343 N 
ATOM     12  N   UNL     1      35.830 -23.134 -12.719  0.00  0.00    -0.285 NA
ATOM     13  C   UNL     1      35.274 -24.151 -13.354  0.00  0.00    +0.117 C 
ATOM     14  H   UNL     1      36.965 -25.341 -13.260  0.00  0.00    +0.144 HD
ATOM     15  H   UNL     1      35.636 -26.070 -14.042  0.00  0.00    +0.144 HD
ATOM     16  H   UNL     1      36.763 -23.195 -12.413  0.00  0.00    +0.188 HD
ENDBRANCH   9  13
BRANCH   3  18
ATOM     17  O   UNL     1      33.630 -23.691 -18.817  0.00  0.00    -0.270 OA
ATOM     18  N   UNL     1      32.914 -21.964 -17.393  0.00  0.00    -0.280 N 
ATOM     19  C   UNL     1      33.677 -22.533 -18.417  0.00  0.00    +0.249 C 
ATOM     20  H   UNL     1      33.084 -21.014 -17.203  0.00  0.00    +0.155 HD
BRANCH  19  21
ATOM     21  C   UNL     1      34.662 -21.620 -19.053  0.00  0.00    +0.053 C 
ATOM     22  C   UNL     1      34.248 -20.693 -19.986  0.00  0.00    +0.016 C 
ATOM     23  C   UNL     1      35.985 -21.740 -18.674  0.00  0.00    +0.004 C 
ATOM     24  C   UNL     1      35.196 -19.849 -20.567  0.00  0.00    +0.130 C 
ATOM     25  C   UNL     1      32.811 -20.576 -20.385  0.00  0.00    +0.034 C 
ATOM     26  C   UNL     1      36.932 -20.896 -19.255  0.00  0.00    +0.003 C 
ATOM     27  C   UNL     1      36.537 -19.951 -20.200  0.00  0.00    +0.036 C 
BRANCH  24  28
ATOM     28  O   UNL     1      34.828 -18.918 -21.492  0.00  0.00    -0.506 OA
ATOM     29  H   UNL     1      33.941 -18.880 -21.792  0.00  0.00    +0.292 HD
ENDBRANCH  24  28
ENDBRANCH  19  21
ENDBRANCH   3  18
BRANCH   7  31
ATOM     30  O   UNL     1      27.621 -23.888 -17.368  0.00  0.00    -0.245 OA
ATOM     31  C   UNL     1      28.215 -22.999 -16.743  0.00  0.00    +0.341 C 
BRANCH  31  32
ATOM     32  O   UNL     1      27.651 -21.804 -16.389  0.00  0.00    -0.441 OA
ATOM     33  C   UNL     1      26.531 -21.363 -17.164  0.00  0.00    +0.256 C 
ENDBRANCH  31  32
ENDBRANCH   7  31
TORSDOF 6
ENDMDL
MODEL 3
REMARK VINA RESULT:     -11.6      2.440      4.999
REMARK  Name = 6852141
REMARK  6 active torsions:
REMARK  status: ('A' for Active; 'I' for Inactive)
REMARK    1  A    between atoms: C_3  and  N_18
REMARK    2  A    between atoms: C_7  and  C_31
REMARK    3  A    between atoms: C_9  and  C_13
REMARK    4  A    between atoms: C_19  and  C_21
REMARK    5  A    between atoms: C_24  and  O_28
REMARK    6  A    between atoms: C_31  and  O_32
REMARK                            x       y       z     vdW  Elec       q    Type
REMARK                         _______ _______ _______ _____ _____    ______ ____
ROOT
ATOM      1  C   UNL     1      33.599 -23.319 -15.262  0.00  0.00    +0.014 C 
ATOM      2  C   UNL     1      33.080 -24.132 -14.228  0.00  0.00    +0.001 C 
ATOM      3  C   UNL     1      32.732 -22.836 -16.257  0.00  0.00    +0.051 C 
ATOM      4  C   UNL     1      34.969 -23.014 -15.274  0.00  0.00    +0.004 C 
ATOM      5  C   UNL     1      31.709 -24.438 -14.215  0.00  0.00    +0.007 C 
ATOM      6  C   UNL     1      31.373 -23.149 -16.229  0.00  0.00    +0.021 C 
ATOM      7  C   UNL     1      30.862 -23.949 -15.211  0.00  0.00    +0.077 C 
ATOM      8  C   UNL     1      33.947 -24.616 -13.234  0.00  0.00    +0.000 C 
ATOM      9  C   UNL     1      35.816 -23.503 -14.279  0.00  0.00    +0.031 C 
ATOM     10  C   UNL     1      35.305 -24.302 -13.260  0.00  0.00    +0.003 C 
ENDROOT
BRANCH   9  13
ATOM     11  N   UNL     1      37.964 -23.213 -15.491  0.00  0.00    -0.343 N 
ATOM     12  N   UNL     1      37.852 -22.840 -13.187  0.00  0.00    -0.285 NA
ATOM     13  C   UNL     1      37.233 -23.176 -14.305  0.00  0.00    +0.117 C 
ATOM     14  H   UNL     1      38.921 -22.988 -15.486  0.00  0.00    +0.144 HD
ATOM     15  H   UNL     1      37.520 -23.464 -16.334  0.00  0.00    +0.144 HD
ATOM     16  H   UNL     1      38.811 -22.619 -13.202  0.00  0.00    +0.188 HD
ENDBRANCH   9  13
BRANCH   3  18
ATOM     17  O   UNL     1      33.879 -23.588 -18.922  0.00  0.00    -0.270 OA
ATOM     18  N   UNL     1      33.189 -22.029 -17.306  0.00  0.00    -0.280 N 
ATOM     19  C   UNL     1      33.717 -22.437 -18.534  0.00  0.00    +0.249 C 
ATOM     20  H   UNL     1      33.131 -21.057 -17.160  0.00  0.00    +0.155 HD
BRANCH  19  21
ATOM     21  C   UNL     1      34.145 -21.335 -19.436  0.00  0.00    +0.053 C 
ATOM     22  C   UNL     1      35.467 -20.943 -19.475  0.00  0.00    +0.016 C 
ATOM     23  C   UNL     1      33.178 -20.734 -20.217  0.00  0.00    +0.004 C 
ATOM     24  C   UNL     1      35.839 -19.907 -20.331  0.00  0.00    +0.130 C 
ATOM     25  C   UNL     1      36.502 -21.606 -18.622  0.00  0.00    +0.034 C 
ATOM     26  C   UNL     1      33.550 -19.698 -21.073  0.00  0.00    +0.003 C 
ATOM     27  C   UNL     1      34.881 -19.285 -21.130  0.00  0.00    +0.036 C 
BRANCH  24  28
ATOM     28  O   UNL     1      37.135 -19.490 -20.401  0.00  0.00    -0.506 OA
ATOM     29  H   UNL     1      37.803 -19.955 -19.936  0.00  0.00    +0.292 HD
ENDBRANCH  24  28
ENDBRANCH  19  21
ENDBRANCH   3  18
BRANCH   7  31
ATOM     30  O   UNL     1      28.935 -25.126 -14.442  0.00  0.00    -0.245 OA
ATOM     31  C   UNL     1      29.445 -24.275 -15.184  0.00  0.00    +0.341 C 
BRANCH  31  32
ATOM     32  O   UNL     1      28.739 -23.523 -16.084  0.00  0.00    -0.441 OA
ATOM     33  C   UNL     1      27.860 -22.529 -15.547  0.00  0.00    +0.256 C 
ENDBRANCH  31  32
ENDBRANCH   7  31
TORSDOF 6
ENDMDL
MODEL 4
REMARK VINA RESULT:     -10.8      2.662      6.264
REMARK  Name = 6852141
REMARK  6 active torsions:
REMARK  status: ('A' for Active; 'I' for Inactive)
REMARK    1  A    between atoms: C_3  and  N_18
REMARK    2  A    between atoms: C_7  and  C_31
REMARK    3  A    between atoms: C_9  and  C_13
REMARK    4  A    between atoms: C_19  and  C_21
REMARK    5  A    between atoms: C_24  and  O_28
REMARK    6  A    between atoms: C_31  and  O_32
REMARK                            x       y       z     vdW  Elec       q    Type
REMARK                         _______ _______ _______ _____ _____    ______ ____
ROOT
ATOM      1  C   UNL     1      35.110 -22.103 -17.511  0.00  0.00    +0.014 C 
ATOM      2  C   UNL     1      36.498 -21.835 -17.578  0.00  0.00    +0.001 C 
ATOM      3  C   UNL     1      34.610 -22.874 -16.449  0.00  0.00    +0.051 C 
ATOM      4  C   UNL     1      34.264 -21.593 -18.509  0.00  0.00    +0.004 C 
ATOM      5  C   UNL     1      37.345 -22.345 -16.580  0.00  0.00    +0.007 C 
ATOM      6  C   UNL     1      35.466 -23.371 -15.466  0.00  0.00    +0.021 C 
ATOM      7  C   UNL     1      36.831 -23.108 -15.532  0.00  0.00    +0.077 C 
ATOM      8  C   UNL     1      36.999 -21.065 -18.641  0.00  0.00    +0.000 C 
ATOM      9  C   UNL     1      34.778 -20.830 -19.557  0.00  0.00    +0.031 C 
ATOM     10  C   UNL     1      36.143 -20.566 -19.622  0.00  0.00    +0.003 C 
ENDROOT
BRANCH   9  13
ATOM     11  N   UNL     1      34.379 -19.603 -21.679  0.00  0.00    -0.343 N 
ATOM     12  N   UNL     1      32.583 -20.497 -20.479  0.00  0.00    -0.285 NA
ATOM     13  C   UNL     1      33.887 -20.308 -20.581  0.00  0.00    +0.117 C 
ATOM     14  H   UNL     1      33.758 -19.259 -22.361  0.00  0.00    +0.144 HD
ATOM     15  H   UNL     1      35.347 -19.450 -21.771  0.00  0.00    +0.144 HD
ATOM     16  H   UNL     1      31.979 -20.145 -21.171  0.00  0.00    +0.188 HD
ENDBRANCH   9  13
BRANCH   3  18
ATOM     17  O   UNL     1      32.612 -22.030 -14.379  0.00  0.00    -0.270 OA
ATOM     18  N   UNL     1      33.246 -23.173 -16.332  0.00  0.00    -0.280 N 
ATOM     19  C   UNL     1      32.359 -22.749 -15.339  0.00  0.00    +0.249 C 
ATOM     20  H   UNL     1      32.869 -23.751 -17.032  0.00  0.00    +0.155 HD
BRANCH  19  21
ATOM     21  C   UNL     1      30.970 -23.261 -15.472  0.00  0.00    +0.053 C 
ATOM     22  C   UNL     1      30.555 -24.345 -14.725  0.00  0.00    +0.016 C 
ATOM     23  C   UNL     1      30.130 -22.617 -16.359  0.00  0.00    +0.004 C 
ATOM     24  C   UNL     1      29.246 -24.804 -14.871  0.00  0.00    +0.130 C 
ATOM     25  C   UNL     1      31.478 -25.031 -13.768  0.00  0.00    +0.034 C 
ATOM     26  C   UNL     1      28.821 -23.077 -16.504  0.00  0.00    +0.003 C 
ATOM     27  C   UNL     1      28.380 -24.170 -15.760  0.00  0.00    +0.036 C 
BRANCH  24  28
ATOM     28  O   UNL     1      28.795 -25.871 -14.151  0.00  0.00    -0.506 OA
ATOM     29  H   UNL     1      28.355 -25.733 -13.336  0.00  0.00    +0.292 HD
ENDBRANCH  24  28
ENDBRANCH  19  21
ENDBRANCH   3  18
BRANCH   7  31
ATOM     30  O   UNL     1      38.263 -24.742 -14.548  0.00  0.00    -0.245 OA
ATOM     31  C   UNL     1      37.722 -23.629 -14.506  0.00  0.00    +0.341 C 
BRANCH  31  32
ATOM     32  O   UNL     1      37.889 -22.735 -13.484  0.00  0.00    -0.441 OA
ATOM     33  C   UNL     1      37.314 -23.083 -12.220  0.00  0.00    +0.256 C 
ENDBRANCH  31  32
ENDBRANCH   7  31
TORSDOF 6
ENDMDL
MODEL 5
REMARK VINA RESULT:     -10.5      2.198      6.769
REMARK  Name = 6852141
REMARK  6 active torsions:
REMARK  status: ('A' for Active; 'I' for Inactive)
REMARK    1  A    between atoms: C_3  and  N_18
REMARK    2  A    between atoms: C_7  and  C_31
REMARK    3  A    between atoms: C_9  and  C_13
REMARK    4  A    between atoms: C_19  and  C_21
REMARK    5  A    between atoms: C_24  and  O_28
REMARK    6  A    between atoms: C_31  and  O_32
REMARK                            x       y       z     vdW  Elec       q    Type
REMARK                         _______ _______ _______ _____ _____    ______ ____
ROOT
ATOM      1  C   UNL     1      33.350 -22.921 -16.112  0.00  0.00    +0.014 C 
ATOM      2  C   UNL     1      32.511 -22.481 -17.163  0.00  0.00    +0.001 C 
ATOM      3  C   UNL     1      34.743 -22.797 -16.247  0.00  0.00    +0.051 C 
ATOM      4  C   UNL     1      32.772 -23.473 -14.958  0.00  0.00    +0.004 C 
ATOM      5  C   UNL     1      33.089 -21.929 -18.319  0.00  0.00    +0.007 C 
ATOM      6  C   UNL     1      35.299 -22.246 -17.402  0.00  0.00    +0.021 C 
ATOM      7  C   UNL     1      34.474 -21.813 -18.436  0.00  0.00    +0.077 C 
ATOM      8  C   UNL     1      31.119 -22.606 -17.029  0.00  0.00    +0.000 C 
ATOM      9  C   UNL     1      31.387 -23.589 -14.841  0.00  0.00    +0.031 C 
ATOM     10  C   UNL     1      30.562 -23.156 -15.874  0.00  0.00    +0.003 C 
ENDROOT
BRANCH   9  13
ATOM     11  N   UNL     1      29.921 -25.238 -13.701  0.00  0.00    -0.343 N 
ATOM     12  N   UNL     1      31.109 -23.658 -12.454  0.00  0.00    -0.285 NA
ATOM     13  C   UNL     1      30.805 -24.162 -13.637  0.00  0.00    +0.117 C 
ATOM     14  H   UNL     1      29.539 -25.610 -12.874  0.00  0.00    +0.144 HD
ATOM     15  H   UNL     1      29.679 -25.625 -14.574  0.00  0.00    +0.144 HD
ATOM     16  H   UNL     1      30.716 -24.044 -11.639  0.00  0.00    +0.188 HD
ENDBRANCH   9  13
BRANCH   3  18
ATOM     17  O   UNL     1      35.671 -25.550 -15.508  0.00  0.00    -0.270 OA
ATOM     18  N   UNL     1      35.623 -23.216 -15.241  0.00  0.00    -0.280 N 
ATOM     19  C   UNL     1      36.021 -24.522 -14.941  0.00  0.00    +0.249 C 
ATOM     20  H   UNL     1      36.005 -22.506 -14.679  0.00  0.00    +0.155 HD
BRANCH  19  21
ATOM     21  C   UNL     1      36.950 -24.649 -13.787  0.00  0.00    +0.053 C 
ATOM     22  C   UNL     1      36.486 -24.475 -12.500  0.00  0.00    +0.016 C 
ATOM     23  C   UNL     1      38.271 -24.945 -14.057  0.00  0.00    +0.004 C 
ATOM     24  C   UNL     1      37.381 -24.601 -11.436  0.00  0.00    +0.130 C 
ATOM     25  C   UNL     1      35.050 -24.155 -12.225  0.00  0.00    +0.034 C 
ATOM     26  C   UNL     1      39.166 -25.071 -12.994  0.00  0.00    +0.003 C 
ATOM     27  C   UNL     1      38.719 -24.899 -11.684  0.00  0.00    +0.036 C 
BRANCH  24  28
ATOM     28  O   UNL     1      36.963 -24.438 -10.149  0.00  0.00    -0.506 OA
ATOM     29  H   UNL     1      36.052 -24.503  -9.940  0.00  0.00    +0.292 HD
ENDBRANCH  24  28
ENDBRANCH  19  21
ENDBRANCH   3  18
BRANCH   7  31
ATOM     30  O   UNL     1      36.227 -21.415 -20.003  0.00  0.00    -0.245 OA
ATOM     31  C   UNL     1      35.057 -21.239 -19.639  0.00  0.00    +0.341 C 
BRANCH  31  32
ATOM     32  O   UNL     1      34.149 -20.478 -20.324  0.00  0.00    -0.441 OA
ATOM     33  C   UNL     1      34.675 -19.435 -21.152  0.00  0.00    +0.256 C 
ENDBRANCH  31  32
ENDBRANCH   7  31
TORSDOF 6
ENDMDL
MODEL 6
REMARK VINA RESULT:     -10.4      1.216      1.986
REMARK  Name = 6852141
REMARK  6 active torsions:
REMARK  status: ('A' for Active; 'I' for Inactive)
REMARK    1  A    between atoms: C_3  and  N_18
REMARK    2  A    between atoms: C_7  and  C_31
REMARK    3  A    between atoms: C_9  and  C_13
REMARK    4  A    between atoms: C_19  and  C_21
REMARK    5  A    between atoms: C_24  and  O_28
REMARK    6  A    between atoms: C_31  and  O_32
REMARK                            x       y       z     vdW  Elec       q    Type
REMARK                         _______ _______ _______ _____ _____    ______ ____
ROOT
ATOM      1  C   UNL     1      33.009 -23.455 -14.786  0.00  0.00    +0.014 C 
ATOM      2  C   UNL     1      32.763 -24.173 -13.592  0.00  0.00    +0.001 C 
ATOM      3  C   UNL     1      34.325 -23.080 -15.103  0.00  0.00    +0.051 C 
ATOM      4  C   UNL     1      31.932 -23.133 -15.627  0.00  0.00    +0.004 C 
ATOM      5  C   UNL     1      33.839 -24.496 -12.749  0.00  0.00    +0.007 C 
ATOM      6  C   UNL     1      35.382 -23.410 -14.255  0.00  0.00    +0.021 C 
ATOM      7  C   UNL     1      35.140 -24.116 -13.080  0.00  0.00    +0.077 C 
ATOM      8  C   UNL     1      31.446 -24.548 -13.274  0.00  0.00    +0.000 C 
ATOM      9  C   UNL     1      30.631 -23.513 -15.297  0.00  0.00    +0.031 C 
ATOM     10  C   UNL     1      30.389 -24.220 -14.123  0.00  0.00    +0.003 C 
ENDROOT
BRANCH   9  13
ATOM     11  N   UNL     1      28.506 -24.081 -16.449  0.00  0.00    -0.343 N 
ATOM     12  N   UNL     1      29.483 -21.980 -16.749  0.00  0.00    -0.285 NA
ATOM     13  C   UNL     1      29.528 -23.172 -16.180  0.00  0.00    +0.117 C 
ATOM     14  H   UNL     1      27.769 -23.830 -17.050  0.00  0.00    +0.144 HD
ATOM     15  H   UNL     1      28.523 -24.976 -16.037  0.00  0.00    +0.144 HD
ATOM     16  H   UNL     1      28.738 -21.747 -17.347  0.00  0.00    +0.188 HD
ENDBRANCH   9  13
BRANCH   3  18
ATOM     17  O   UNL     1      33.970 -23.834 -17.982  0.00  0.00    -0.270 OA
ATOM     18  N   UNL     1      34.629 -22.368 -16.269  0.00  0.00    -0.280 N 
ATOM     19  C   UNL     1      34.441 -22.772 -17.594  0.00  0.00    +0.249 C 
ATOM     20  H   UNL     1      35.023 -21.475 -16.140  0.00  0.00    +0.155 HD
BRANCH  19  21
ATOM     21  C   UNL     1      34.894 -21.798 -18.622  0.00  0.00    +0.053 C 
ATOM     22  C   UNL     1      33.970 -21.106 -19.378  0.00  0.00    +0.016 C 
ATOM     23  C   UNL     1      36.254 -21.621 -18.783  0.00  0.00    +0.004 C 
ATOM     24  C   UNL     1      34.425 -20.199 -20.336  0.00  0.00    +0.130 C 
ATOM     25  C   UNL     1      32.500 -21.310 -19.191  0.00  0.00    +0.034 C 
ATOM     26  C   UNL     1      36.708 -20.714 -19.741  0.00  0.00    +0.003 C 
ATOM     27  C   UNL     1      35.793 -20.004 -20.516  0.00  0.00    +0.036 C 
BRANCH  24  28
ATOM     28  O   UNL     1      33.546 -19.494 -21.103  0.00  0.00    -0.506 OA
ATOM     29  H   UNL     1      33.362 -19.772 -21.979  0.00  0.00    +0.292 HD
ENDBRANCH  24  28
ENDBRANCH  19  21
ENDBRANCH   3  18
BRANCH   7  31
ATOM     30  O   UNL     1      36.149 -25.203 -11.212  0.00  0.00    -0.245 OA
ATOM     31  C   UNL     1      36.244 -24.458 -12.197  0.00  0.00    +0.341 C 
BRANCH  31  32
ATOM     32  O   UNL     1      37.408 -23.854 -12.589  0.00  0.00    -0.441 OA
ATOM     33  C   UNL     1      38.483 -23.844 -11.643  0.00  0.00    +0.256 C 
ENDBRANCH  31  32
ENDBRANCH   7  31
TORSDOF 6
ENDMDL
MODEL 7
REMARK VINA RESULT:     -10.3      2.870      6.290
REMARK  Name = 6852141
REMARK  6 active torsions:
REMARK  status: ('A' for Active; 'I' for Inactive)
REMARK    1  A    between atoms: C_3  and  N_18
REMARK    2  A    between atoms: C_7  and  C_31
REMARK    3  A    between atoms: C_9  and  C_13
REMARK    4  A    between atoms: C_19  and  C_21
REMARK    5  A    between atoms: C_24  and  O_28
REMARK    6  A    between atoms: C_31  and  O_32
REMARK                            x       y       z     vdW  Elec       q    Type
REMARK                         _______ _______ _______ _____ _____    ______ ____
ROOT
ATOM      1  C   UNL     1      35.573 -22.794 -15.508  0.00  0.00    +0.014 C 
ATOM      2  C   UNL     1      36.925 -22.594 -15.143  0.00  0.00    +0.001 C 
ATOM      3  C   UNL     1      34.690 -23.375 -14.583  0.00  0.00    +0.051 C 
ATOM      4  C   UNL     1      35.143 -22.409 -16.788  0.00  0.00    +0.004 C 
ATOM      5  C   UNL     1      37.356 -22.978 -13.862  0.00  0.00    +0.007 C 
ATOM      6  C   UNL     1      35.135 -23.750 -13.315  0.00  0.00    +0.021 C 
ATOM      7  C   UNL     1      36.465 -23.553 -12.955  0.00  0.00    +0.077 C 
ATOM      8  C   UNL     1      37.808 -22.014 -16.068  0.00  0.00    +0.000 C 
ATOM      9  C   UNL     1      36.034 -21.834 -17.695  0.00  0.00    +0.031 C 
ATOM     10  C   UNL     1      37.364 -21.636 -17.335  0.00  0.00    +0.003 C 
ENDROOT
BRANCH   9  13
ATOM     11  N   UNL     1      34.279 -21.728 -19.448  0.00  0.00    -0.343 N 
ATOM     12  N   UNL     1      36.387 -20.798 -19.835  0.00  0.00    -0.285 NA
ATOM     13  C   UNL     1      35.572 -21.440 -19.016  0.00  0.00    +0.117 C 
ATOM     14  H   UNL     1      33.987 -21.453 -20.347  0.00  0.00    +0.144 HD
ATOM     15  H   UNL     1      33.657 -22.209 -18.854  0.00  0.00    +0.144 HD
ATOM     16  H   UNL     1      36.077 -20.531 -20.730  0.00  0.00    +0.188 HD
ENDBRANCH   9  13
BRANCH   3  18
ATOM     17  O   UNL     1      32.265 -21.720 -13.979  0.00  0.00    -0.270 OA
ATOM     18  N   UNL     1      33.342 -23.599 -14.888  0.00  0.00    -0.280 N 
ATOM     19  C   UNL     1      32.247 -22.788 -14.579  0.00  0.00    +0.249 C 
ATOM     20  H   UNL     1      33.143 -24.429 -15.379  0.00  0.00    +0.155 HD
BRANCH  19  21
ATOM     21  C   UNL     1      30.927 -23.314 -15.016  0.00  0.00    +0.053 C 
ATOM     22  C   UNL     1      30.316 -24.329 -14.308  0.00  0.00    +0.016 C 
ATOM     23  C   UNL     1      30.351 -22.753 -16.139  0.00  0.00    +0.004 C 
ATOM     24  C   UNL     1      29.077 -24.803 -14.741  0.00  0.00    +0.130 C 
ATOM     25  C   UNL     1      30.953 -24.925 -13.092  0.00  0.00    +0.034 C 
ATOM     26  C   UNL     1      29.113 -23.228 -16.571  0.00  0.00    +0.003 C 
ATOM     27  C   UNL     1      28.477 -24.252 -15.872  0.00  0.00    +0.036 C 
BRANCH  24  28
ATOM     28  O   UNL     1      28.438 -25.803 -14.069  0.00  0.00    -0.506 OA
ATOM     29  H   UNL     1      27.956 -25.610 -13.289  0.00  0.00    +0.292 HD
ENDBRANCH  24  28
ENDBRANCH  19  21
ENDBRANCH   3  18
BRANCH   7  31
ATOM     30  O   UNL     1      37.439 -23.175 -10.811  0.00  0.00    -0.245 OA
ATOM     31  C   UNL     1      36.926 -23.947 -11.633  0.00  0.00    +0.341 C 
BRANCH  31  32
ATOM     32  O   UNL     1      36.724 -25.281 -11.406  0.00  0.00    -0.441 OA
ATOM     33  C   UNL     1      37.551 -26.194 -12.136  0.00  0.00    +0.256 C 
ENDBRANCH  31  32
ENDBRANCH   7  31
TORSDOF 6
ENDMDL
MODEL 8
REMARK VINA RESULT:     -10.1      2.714      5.213
REMARK  Name = 6852141
REMARK  6 active torsions:
REMARK  status: ('A' for Active; 'I' for Inactive)
REMARK    1  A    between atoms: C_3  and  N_18
REMARK    2  A    between atoms: C_7  and  C_31
REMARK    3  A    between atoms: C_9  and  C_13
REMARK    4  A    between atoms: C_19  and  C_21
REMARK    5  A    between atoms: C_24  and  O_28
REMARK    6  A    between atoms: C_31  and  O_32
REMARK                            x       y       z     vdW  Elec       q    Type
REMARK                         _______ _______ _______ _____ _____    ______ ____
ROOT
ATOM      1  C   UNL     1      33.941 -23.137 -15.524  0.00  0.00    +0.014 C 
ATOM      2  C   UNL     1      33.197 -23.875 -14.573  0.00  0.00    +0.001 C 
ATOM      3  C   UNL     1      33.267 -22.506 -16.583  0.00  0.00    +0.051 C 
ATOM      4  C   UNL     1      35.336 -23.053 -15.389  0.00  0.00    +0.004 C 
ATOM      5  C   UNL     1      31.801 -23.960 -14.708  0.00  0.00    +0.007 C 
ATOM      6  C   UNL     1      31.880 -22.599 -16.700  0.00  0.00    +0.021 C 
ATOM      7  C   UNL     1      31.149 -23.326 -15.765  0.00  0.00    +0.077 C 
ATOM      8  C   UNL     1      33.870 -24.508 -13.515  0.00  0.00    +0.000 C 
ATOM      9  C   UNL     1      35.988 -23.687 -14.331  0.00  0.00    +0.031 C 
ATOM     10  C   UNL     1      35.256 -24.413 -13.396  0.00  0.00    +0.003 C 
ENDROOT
BRANCH   9  13
ATOM     11  N   UNL     1      38.268 -23.709 -15.316  0.00  0.00    -0.343 N 
ATOM     12  N   UNL     1      37.980 -23.387 -13.019  0.00  0.00    -0.285 NA
ATOM     13  C   UNL     1      37.433 -23.589 -14.206  0.00  0.00    +0.117 C 
ATOM     14  H   UNL     1      39.243 -23.639 -15.208  0.00  0.00    +0.144 HD
ATOM     15  H   UNL     1      37.880 -23.864 -16.208  0.00  0.00    +0.144 HD
ATOM     16  H   UNL     1      38.957 -23.320 -12.932  0.00  0.00    +0.188 HD
ENDBRANCH   9  13
BRANCH   3  18
ATOM     17  O   UNL     1      34.100 -23.254 -19.363  0.00  0.00    -0.270 OA
ATOM     18  N   UNL     1      33.951 -21.763 -17.554  0.00  0.00    -0.280 N 
ATOM     19  C   UNL     1      34.315 -22.166 -18.842  0.00  0.00    +0.249 C 
ATOM     20  H   UNL     1      34.205 -20.847 -17.298  0.00  0.00    +0.155 HD
BRANCH  19  21
ATOM     21  C   UNL     1      35.064 -21.155 -19.632  0.00  0.00    +0.053 C 
ATOM     22  C   UNL     1      34.388 -20.259 -20.435  0.00  0.00    +0.016 C 
ATOM     23  C   UNL     1      36.441 -21.152 -19.529  0.00  0.00    +0.004 C 
ATOM     24  C   UNL     1      35.117 -19.321 -21.165  0.00  0.00    +0.130 C 
ATOM     25  C   UNL     1      32.895 -20.276 -20.534  0.00  0.00    +0.034 C 
ATOM     26  C   UNL     1      37.171 -20.214 -20.260  0.00  0.00    +0.003 C 
ATOM     27  C   UNL     1      36.509 -19.299 -21.077  0.00  0.00    +0.036 C 
BRANCH  24  28
ATOM     28  O   UNL     1      34.488 -18.418 -21.969  0.00  0.00    -0.506 OA
ATOM     29  H   UNL     1      34.004 -18.713 -22.715  0.00  0.00    +0.292 HD
ENDBRANCH  24  28
ENDBRANCH  19  21
ENDBRANCH   3  18
BRANCH   7  31
ATOM     30  O   UNL     1      29.065 -23.110 -16.906  0.00  0.00    -0.245 OA
ATOM     31  C   UNL     1      29.702 -23.423 -15.891  0.00  0.00    +0.341 C 
BRANCH  31  32
ATOM     32  O   UNL     1      29.129 -23.905 -14.746  0.00  0.00    -0.441 OA
ATOM     33  C   UNL     1      28.993 -25.326 -14.639  0.00  0.00    +0.256 C 
ENDBRANCH  31  32
ENDBRANCH   7  31
TORSDOF 6
ENDMDL
MODEL 9
REMARK VINA RESULT:     -10.1      2.560      7.319
REMARK  Name = 6852141
REMARK  6 active torsions:
REMARK  status: ('A' for Active; 'I' for Inactive)
REMARK    1  A    between atoms: C_3  and  N_18
REMARK    2  A    between atoms: C_7  and  C_31
REMARK    3  A    between atoms: C_9  and  C_13
REMARK    4  A    between atoms: C_19  and  C_21
REMARK    5  A    between atoms: C_24  and  O_28
REMARK    6  A    between atoms: C_31  and  O_32
REMARK                            x       y       z     vdW  Elec       q    Type
REMARK                         _______ _______ _______ _____ _____    ______ ____
ROOT
ATOM      1  C   UNL     1      35.427 -22.919 -16.102  0.00  0.00    +0.014 C 
ATOM      2  C   UNL     1      36.733 -22.467 -16.407  0.00  0.00    +0.001 C 
ATOM      3  C   UNL     1      34.370 -22.603 -16.972  0.00  0.00    +0.051 C 
ATOM      4  C   UNL     1      35.216 -23.672 -14.936  0.00  0.00    +0.004 C 
ATOM      5  C   UNL     1      36.945 -21.714 -17.574  0.00  0.00    +0.007 C 
ATOM      6  C   UNL     1      34.599 -21.854 -18.127  0.00  0.00    +0.021 C 
ATOM      7  C   UNL     1      35.883 -21.410 -18.427  0.00  0.00    +0.077 C 
ATOM      8  C   UNL     1      37.789 -22.782 -15.537  0.00  0.00    +0.000 C 
ATOM      9  C   UNL     1      36.277 -23.975 -14.083  0.00  0.00    +0.031 C 
ATOM     10  C   UNL     1      37.562 -23.532 -14.383  0.00  0.00    +0.003 C 
ENDROOT
BRANCH   9  13
ATOM     11  N   UNL     1      36.919 -25.767 -12.488  0.00  0.00    -0.343 N 
ATOM     12  N   UNL     1      34.975 -24.518 -12.136  0.00  0.00    -0.285 NA
ATOM     13  C   UNL     1      36.041 -24.757 -12.880  0.00  0.00    +0.117 C 
ATOM     14  H   UNL     1      36.740 -26.284 -11.670  0.00  0.00    +0.144 HD
ATOM     15  H   UNL     1      37.717 -25.963 -13.030  0.00  0.00    +0.144 HD
ATOM     16  H   UNL     1      34.814 -25.046 -11.322  0.00  0.00    +0.188 HD
ENDBRANCH   9  13
BRANCH   3  18
ATOM     17  O   UNL     1      32.511 -21.908 -14.726  0.00  0.00    -0.270 OA
ATOM     18  N   UNL     1      33.057 -23.021 -16.721  0.00  0.00    -0.280 N 
ATOM     19  C   UNL     1      32.233 -22.662 -15.651  0.00  0.00    +0.249 C 
ATOM     20  H   UNL     1      32.669 -23.643 -17.378  0.00  0.00    +0.155 HD
BRANCH  19  21
ATOM     21  C   UNL     1      30.891 -23.300 -15.645  0.00  0.00    +0.053 C 
ATOM     22  C   UNL     1      30.652 -24.410 -14.861  0.00  0.00    +0.016 C 
ATOM     23  C   UNL     1      29.912 -22.742 -16.443  0.00  0.00    +0.004 C 
ATOM     24  C   UNL     1      29.382 -24.987 -14.876  0.00  0.00    +0.130 C 
ATOM     25  C   UNL     1      31.724 -25.002 -14.001  0.00  0.00    +0.034 C 
ATOM     26  C   UNL     1      28.642 -23.319 -16.458  0.00  0.00    +0.003 C 
ATOM     27  C   UNL     1      28.378 -24.441 -15.674  0.00  0.00    +0.036 C 
BRANCH  24  28
ATOM     28  O   UNL     1      29.104 -26.084 -14.116  0.00  0.00    -0.506 OA
ATOM     29  H   UNL     1      28.299 -26.547 -14.239  0.00  0.00    +0.292 HD
ENDBRANCH  24  28
ENDBRANCH  19  21
ENDBRANCH   3  18
BRANCH   7  31
ATOM     30  O   UNL     1      37.160 -20.001 -19.866  0.00  0.00    -0.245 OA
ATOM     31  C   UNL     1      36.119 -20.628 -19.631  0.00  0.00    +0.341 C 
BRANCH  31  32
ATOM     32  O   UNL     1      35.044 -20.672 -20.477  0.00  0.00    -0.441 OA
ATOM     33  C   UNL     1      34.789 -19.500 -21.259  0.00  0.00    +0.256 C 
ENDBRANCH  31  32
ENDBRANCH   7  31
TORSDOF 6
ENDMDL
