MODEL 1
REMARK VINA RESULT:     -11.6      0.000      0.000
REMARK  Name = 46937030
REMARK  7 active torsions:
REMARK  status: ('A' for Active; 'I' for Inactive)
REMARK    1  A    between atoms: C_3  and  C_10
REMARK    2  A    between atoms: C_7  and  C_25
REMARK    3  A    between atoms: N_9  and  C_12
REMARK    4  A    between atoms: C_12  and  C_13
REMARK    5  A    between atoms: C_18  and  C_21
REMARK    6  A    between atoms: C_25  and  N_26
REMARK    7  A    between atoms: N_26  and  C_29
REMARK                            x       y       z     vdW  Elec       q    Type
REMARK                         _______ _______ _______ _____ _____    ______ ____
ROOT
ATOM      1  O   UNL     1      35.513 -25.093 -11.725  0.00  0.00    -0.277 OA
ATOM      2  N   UNL     1      36.185 -23.872 -13.568  0.00  0.00    -0.275 N 
ATOM      3  C   UNL     1      36.016 -22.823 -14.572  0.00  0.00    +0.152 C 
ATOM      4  C   UNL     1      37.439 -22.450 -14.976  0.00  0.00    +0.031 C 
ATOM      5  C   UNL     1      37.561 -24.352 -13.538  0.00  0.00    +0.094 C 
ATOM      6  C   UNL     1      38.220 -23.745 -14.766  0.00  0.00    +0.024 C 
ATOM      7  C   UNL     1      35.257 -24.297 -12.631  0.00  0.00    +0.204 C 
ENDROOT
BRANCH   3  10
ATOM      8  O   UNL     1      35.064 -24.618 -15.826  0.00  0.00    -0.273 OA
ATOM      9  N   UNL     1      34.894 -22.449 -16.653  0.00  0.00    -0.299 N 
ATOM     10  C   UNL     1      35.273 -23.411 -15.733  0.00  0.00    +0.241 C 
ATOM     11  H   UNL     1      35.118 -21.508 -16.468  0.00  0.00    +0.150 HD
BRANCH   9  12
ATOM     12  C   UNL     1      34.184 -22.757 -17.874  0.00  0.00    +0.116 C 
BRANCH  12  13
ATOM     13  C   UNL     1      34.394 -21.708 -18.927  0.00  0.00    -0.003 C 
ATOM     14  C   UNL     1      33.295 -21.110 -19.544  0.00  0.00    -0.003 C 
ATOM     15  C   UNL     1      35.687 -21.331 -19.288  0.00  0.00    -0.003 C 
ATOM     16  C   UNL     1      33.489 -20.135 -20.522  0.00  0.00    +0.002 C 
ATOM     17  C   UNL     1      35.882 -20.356 -20.267  0.00  0.00    +0.002 C 
ATOM     18  C   UNL     1      34.783 -19.758 -20.883  0.00  0.00    +0.031 C 
BRANCH  18  21
ATOM     19  N   UNL     1      35.590 -17.521 -21.600  0.00  0.00    -0.343 N 
ATOM     20  N   UNL     1      34.591 -18.963 -23.144  0.00  0.00    -0.285 NA
ATOM     21  C   UNL     1      34.987 -18.741 -21.902  0.00  0.00    +0.117 C 
ATOM     22  H   UNL     1      35.718 -16.847 -22.306  0.00  0.00    +0.144 HD
ATOM     23  H   UNL     1      35.889 -17.335 -20.681  0.00  0.00    +0.144 HD
ATOM     24  H   UNL     1      34.728 -18.276 -23.835  0.00  0.00    +0.188 HD
ENDBRANCH  18  21
ENDBRANCH  12  13
ENDBRANCH   9  12
ENDBRANCH   3  10
BRANCH   7  25
ATOM     25  C   UNL     1      33.868 -23.727 -12.768  0.00  0.00    +0.006 C 
BRANCH  25  26
ATOM     26  N   UNL     1      33.063 -24.727 -13.450  0.00  0.00    +0.391 N 
ATOM     27  H   UNL     1      33.339 -24.768 -14.432  0.00  0.00    -0.084 HD
ATOM     28  H   UNL     1      33.214 -25.632 -13.004  0.00  0.00    -0.084 HD
BRANCH  26  29
ATOM     29  C   UNL     1      31.639 -24.389 -13.363  0.00  0.00    -0.061 C 
ATOM     30  C   UNL     1      31.432 -22.883 -13.571  0.00  0.00    -0.021 C 
ATOM     31  C   UNL     1      30.848 -25.330 -14.286  0.00  0.00    -0.021 C 
ATOM     32  C   UNL     1      29.372 -24.969 -14.460  0.00  0.00    -0.002 C 
ATOM     33  C   UNL     1      31.836 -22.292 -14.922  0.00  0.00    -0.002 C 
ATOM     34  C   UNL     1      29.036 -24.298 -15.795  0.00  0.00    -0.000 C 
ATOM     35  C   UNL     1      31.086 -22.783 -16.160  0.00  0.00    -0.000 C 
ATOM     36  C   UNL     1      29.567 -22.878 -16.006  0.00  0.00    -0.000 C 
ENDBRANCH  26  29
ENDBRANCH  25  26
ENDBRANCH   7  25
TORSDOF 7
ENDMDL
MODEL 2
REMARK VINA RESULT:     -10.2      2.241      6.746
REMARK  Name = 46937030
REMARK  7 active torsions:
REMARK  status: ('A' for Active; 'I' for Inactive)
REMARK    1  A    between atoms: C_3  and  C_10
REMARK    2  A    between atoms: C_7  and  C_25
REMARK    3  A    between atoms: N_9  and  C_12
REMARK    4  A    between atoms: C_12  and  C_13
REMARK    5  A    between atoms: C_18  and  C_21
REMARK    6  A    between atoms: C_25  and  N_26
REMARK    7  A    between atoms: N_26  and  C_29
REMARK                            x       y       z     vdW  Elec       q    Type
REMARK                         _______ _______ _______ _____ _____    ______ ____
ROOT
ATOM      1  O   UNL     1      38.336 -22.179 -16.005  0.00  0.00    -0.277 OA
ATOM      2  N   UNL     1      37.243 -24.007 -15.109  0.00  0.00    -0.275 N 
ATOM      3  C   UNL     1      36.127 -24.947 -15.019  0.00  0.00    +0.152 C 
ATOM      4  C   UNL     1      36.748 -26.222 -14.458  0.00  0.00    +0.031 C 
ATOM      5  C   UNL     1      38.410 -24.509 -14.395  0.00  0.00    +0.094 C 
ATOM      6  C   UNL     1      37.907 -25.709 -13.608  0.00  0.00    +0.024 C 
ATOM      7  C   UNL     1      37.312 -22.852 -15.873  0.00  0.00    +0.204 C 
ENDROOT
BRANCH   3  10
ATOM      8  O   UNL     1      35.394 -23.446 -13.313  0.00  0.00    -0.273 OA
ATOM      9  N   UNL     1      33.909 -25.044 -14.125  0.00  0.00    -0.299 N 
ATOM     10  C   UNL     1      35.122 -24.381 -14.062  0.00  0.00    +0.241 C 
ATOM     11  H   UNL     1      33.810 -25.781 -14.770  0.00  0.00    +0.150 HD
BRANCH   9  12
ATOM     12  C   UNL     1      32.778 -24.708 -13.289  0.00  0.00    +0.116 C 
BRANCH  12  13
ATOM     13  C   UNL     1      31.589 -24.278 -14.099  0.00  0.00    -0.003 C 
ATOM     14  C   UNL     1      31.570 -23.016 -14.692  0.00  0.00    -0.003 C 
ATOM     15  C   UNL     1      30.504 -25.140 -14.256  0.00  0.00    -0.003 C 
ATOM     16  C   UNL     1      30.465 -22.616 -15.444  0.00  0.00    +0.002 C 
ATOM     17  C   UNL     1      29.399 -24.740 -15.008  0.00  0.00    +0.002 C 
ATOM     18  C   UNL     1      29.380 -23.478 -15.603  0.00  0.00    +0.031 C 
BRANCH  18  21
ATOM     19  N   UNL     1      27.314 -22.132 -15.896  0.00  0.00    -0.343 N 
ATOM     20  N   UNL     1      28.032 -23.573 -17.590  0.00  0.00    -0.285 NA
ATOM     21  C   UNL     1      28.229 -23.062 -16.387  0.00  0.00    +0.117 C 
ATOM     22  H   UNL     1      26.542 -21.865 -16.444  0.00  0.00    +0.144 HD
ATOM     23  H   UNL     1      27.441 -21.743 -15.001  0.00  0.00    +0.144 HD
ATOM     24  H   UNL     1      27.252 -23.293 -18.122  0.00  0.00    +0.188 HD
ENDBRANCH  18  21
ENDBRANCH  12  13
ENDBRANCH   9  12
ENDBRANCH   3  10
BRANCH   7  25
ATOM     25  C   UNL     1      36.037 -22.437 -16.563  0.00  0.00    +0.006 C 
BRANCH  25  26
ATOM     26  N   UNL     1      36.302 -21.166 -17.215  0.00  0.00    +0.391 N 
ATOM     27  H   UNL     1      35.523 -20.530 -17.039  0.00  0.00    -0.084 HD
ATOM     28  H   UNL     1      37.166 -20.776 -16.839  0.00  0.00    -0.084 HD
BRANCH  26  29
ATOM     29  C   UNL     1      36.456 -21.350 -18.662  0.00  0.00    -0.061 C 
ATOM     30  C   UNL     1      35.242 -22.091 -19.238  0.00  0.00    -0.021 C 
ATOM     31  C   UNL     1      36.810 -19.999 -19.300  0.00  0.00    -0.021 C 
ATOM     32  C   UNL     1      36.802 -19.988 -20.830  0.00  0.00    -0.002 C 
ATOM     33  C   UNL     1      33.878 -21.407 -19.131  0.00  0.00    -0.002 C 
ATOM     34  C   UNL     1      35.574 -19.320 -21.453  0.00  0.00    -0.000 C 
ATOM     35  C   UNL     1      33.692 -20.083 -19.870  0.00  0.00    -0.000 C 
ATOM     36  C   UNL     1      34.237 -20.051 -21.298  0.00  0.00    -0.000 C 
ENDBRANCH  26  29
ENDBRANCH  25  26
ENDBRANCH   7  25
TORSDOF 7
ENDMDL
MODEL 3
REMARK VINA RESULT:      -9.7      1.317      1.708
REMARK  Name = 46937030
REMARK  7 active torsions:
REMARK  status: ('A' for Active; 'I' for Inactive)
REMARK    1  A    between atoms: C_3  and  C_10
REMARK    2  A    between atoms: C_7  and  C_25
REMARK    3  A    between atoms: N_9  and  C_12
REMARK    4  A    between atoms: C_12  and  C_13
REMARK    5  A    between atoms: C_18  and  C_21
REMARK    6  A    between atoms: C_25  and  N_26
REMARK    7  A    between atoms: N_26  and  C_29
REMARK                            x       y       z     vdW  Elec       q    Type
REMARK                         _______ _______ _______ _____ _____    ______ ____
ROOT
ATOM      1  O   UNL     1      36.422 -25.566 -13.842  0.00  0.00    -0.277 OA
ATOM      2  N   UNL     1      36.434 -23.612 -15.074  0.00  0.00    -0.275 N 
ATOM      3  C   UNL     1      35.811 -22.405 -15.615  0.00  0.00    +0.152 C 
ATOM      4  C   UNL     1      36.971 -21.434 -15.814  0.00  0.00    +0.031 C 
ATOM      5  C   UNL     1      37.885 -23.551 -15.194  0.00  0.00    +0.094 C 
ATOM      6  C   UNL     1      38.159 -22.352 -16.087  0.00  0.00    +0.024 C 
ATOM      7  C   UNL     1      35.814 -24.645 -14.389  0.00  0.00    +0.204 C 
ENDROOT
BRANCH   3  10
ATOM      8  O   UNL     1      34.421 -23.713 -17.048  0.00  0.00    -0.273 OA
ATOM      9  N   UNL     1      35.585 -21.909 -17.946  0.00  0.00    -0.299 N 
ATOM     10  C   UNL     1      35.183 -22.758 -16.929  0.00  0.00    +0.241 C 
ATOM     11  H   UNL     1      36.203 -21.174 -17.727  0.00  0.00    +0.150 HD
BRANCH   9  12
ATOM     12  C   UNL     1      35.141 -22.047 -19.314  0.00  0.00    +0.116 C 
BRANCH  12  13
ATOM     13  C   UNL     1      35.264 -20.760 -20.078  0.00  0.00    -0.003 C 
ATOM     14  C   UNL     1      34.122 -20.143 -20.590  0.00  0.00    -0.003 C 
ATOM     15  C   UNL     1      36.518 -20.182 -20.274  0.00  0.00    -0.003 C 
ATOM     16  C   UNL     1      34.235 -18.947 -21.300  0.00  0.00    +0.002 C 
ATOM     17  C   UNL     1      36.630 -18.986 -20.984  0.00  0.00    +0.002 C 
ATOM     18  C   UNL     1      35.489 -18.368 -21.496  0.00  0.00    +0.031 C 
BRANCH  18  21
ATOM     19  N   UNL     1      36.005 -17.105 -23.570  0.00  0.00    -0.343 N 
ATOM     20  N   UNL     1      35.339 -15.974 -21.637  0.00  0.00    -0.285 NA
ATOM     21  C   UNL     1      35.607 -17.121 -22.234  0.00  0.00    +0.117 C 
ATOM     22  H   UNL     1      36.078 -16.249 -24.051  0.00  0.00    +0.144 HD
ATOM     23  H   UNL     1      36.212 -17.949 -24.032  0.00  0.00    +0.144 HD
ATOM     24  H   UNL     1      35.419 -15.129 -22.135  0.00  0.00    +0.188 HD
ENDBRANCH  18  21
ENDBRANCH  12  13
ENDBRANCH   9  12
ENDBRANCH   3  10
BRANCH   7  25
ATOM     25  C   UNL     1      34.308 -24.594 -14.335  0.00  0.00    +0.006 C 
BRANCH  25  26
ATOM     26  N   UNL     1      33.950 -23.437 -13.530  0.00  0.00    +0.391 N 
ATOM     27  H   UNL     1      34.497 -23.446 -12.668  0.00  0.00    -0.084 HD
ATOM     28  H   UNL     1      34.149 -22.591 -14.064  0.00  0.00    -0.084 HD
BRANCH  26  29
ATOM     29  C   UNL     1      32.523 -23.462 -13.196  0.00  0.00    -0.061 C 
ATOM     30  C   UNL     1      31.773 -22.372 -13.972  0.00  0.00    -0.021 C 
ATOM     31  C   UNL     1      32.004 -24.900 -13.345  0.00  0.00    -0.021 C 
ATOM     32  C   UNL     1      30.486 -25.051 -13.229  0.00  0.00    -0.002 C 
ATOM     33  C   UNL     1      31.762 -22.468 -15.498  0.00  0.00    -0.002 C 
ATOM     34  C   UNL     1      29.764 -25.254 -14.564  0.00  0.00    -0.000 C 
ATOM     35  C   UNL     1      31.080 -23.684 -16.124  0.00  0.00    -0.000 C 
ATOM     36  C   UNL     1      29.727 -24.057 -15.517  0.00  0.00    -0.000 C 
ENDBRANCH  26  29
ENDBRANCH  25  26
ENDBRANCH   7  25
TORSDOF 7
ENDMDL
MODEL 4
REMARK VINA RESULT:      -9.5      1.845      5.169
REMARK  Name = 46937030
REMARK  7 active torsions:
REMARK  status: ('A' for Active; 'I' for Inactive)
REMARK    1  A    between atoms: C_3  and  C_10
REMARK    2  A    between atoms: C_7  and  C_25
REMARK    3  A    between atoms: N_9  and  C_12
REMARK    4  A    between atoms: C_12  and  C_13
REMARK    5  A    between atoms: C_18  and  C_21
REMARK    6  A    between atoms: C_25  and  N_26
REMARK    7  A    between atoms: N_26  and  C_29
REMARK                            x       y       z     vdW  Elec       q    Type
REMARK                         _______ _______ _______ _____ _____    ______ ____
ROOT
ATOM      1  O   UNL     1      32.818 -23.620 -12.931  0.00  0.00    -0.277 OA
ATOM      2  N   UNL     1      33.256 -23.321 -15.180  0.00  0.00    -0.275 N 
ATOM      3  C   UNL     1      34.042 -23.523 -16.396  0.00  0.00    +0.152 C 
ATOM      4  C   UNL     1      33.035 -23.372 -17.531  0.00  0.00    +0.031 C 
ATOM      5  C   UNL     1      31.936 -22.789 -15.493  0.00  0.00    +0.094 C 
ATOM      6  C   UNL     1      32.002 -22.403 -16.961  0.00  0.00    +0.024 C 
ATOM      7  C   UNL     1      33.589 -23.700 -13.889  0.00  0.00    +0.204 C 
ENDROOT
BRANCH   3  10
ATOM      8  O   UNL     1      35.325 -21.722 -15.497  0.00  0.00    -0.273 OA
ATOM      9  N   UNL     1      35.677 -22.365 -17.706  0.00  0.00    -0.299 N 
ATOM     10  C   UNL     1      35.080 -22.444 -16.460  0.00  0.00    +0.241 C 
ATOM     11  H   UNL     1      35.396 -23.002 -18.402  0.00  0.00    +0.150 HD
BRANCH   9  12
ATOM     12  C   UNL     1      36.694 -21.393 -18.037  0.00  0.00    +0.116 C 
BRANCH  12  13
ATOM     13  C   UNL     1      36.350 -20.619 -19.277  0.00  0.00    -0.003 C 
ATOM     14  C   UNL     1      37.307 -19.798 -19.874  0.00  0.00    -0.003 C 
ATOM     15  C   UNL     1      35.074 -20.720 -19.831  0.00  0.00    -0.003 C 
ATOM     16  C   UNL     1      36.988 -19.079 -21.026  0.00  0.00    +0.002 C 
ATOM     17  C   UNL     1      34.754 -20.001 -20.983  0.00  0.00    +0.002 C 
ATOM     18  C   UNL     1      35.711 -19.181 -21.580  0.00  0.00    +0.031 C 
BRANCH  18  21
ATOM     19  N   UNL     1      34.218 -18.701 -23.505  0.00  0.00    -0.343 N 
ATOM     20  N   UNL     1      36.187 -17.478 -23.209  0.00  0.00    -0.285 NA
ATOM     21  C   UNL     1      35.378 -18.432 -22.782  0.00  0.00    +0.117 C 
ATOM     22  H   UNL     1      34.012 -18.181 -24.316  0.00  0.00    +0.144 HD
ATOM     23  H   UNL     1      33.604 -19.410 -23.206  0.00  0.00    +0.144 HD
ATOM     24  H   UNL     1      35.963 -16.971 -24.022  0.00  0.00    +0.188 HD
ENDBRANCH  18  21
ENDBRANCH  12  13
ENDBRANCH   9  12
ENDBRANCH   3  10
BRANCH   7  25
ATOM     25  C   UNL     1      34.985 -24.237 -13.696  0.00  0.00    +0.006 C 
BRANCH  25  26
ATOM     26  N   UNL     1      35.678 -23.311 -12.815  0.00  0.00    +0.391 N 
ATOM     27  H   UNL     1      35.221 -22.400 -12.859  0.00  0.00    -0.084 HD
ATOM     28  H   UNL     1      35.646 -23.675 -11.863  0.00  0.00    -0.084 HD
BRANCH  26  29
ATOM     29  C   UNL     1      37.080 -23.167 -13.219  0.00  0.00    -0.061 C 
ATOM     30  C   UNL     1      38.012 -23.517 -12.051  0.00  0.00    -0.021 C 
ATOM     31  C   UNL     1      37.299 -23.931 -14.533  0.00  0.00    -0.021 C 
ATOM     32  C   UNL     1      38.760 -24.045 -14.975  0.00  0.00    -0.002 C 
ATOM     33  C   UNL     1      37.964 -24.947 -11.511  0.00  0.00    -0.002 C 
ATOM     34  C   UNL     1      39.392 -25.417 -14.730  0.00  0.00    -0.000 C 
ATOM     35  C   UNL     1      38.374 -26.074 -12.457  0.00  0.00    -0.000 C 
ATOM     36  C   UNL     1      39.641 -25.812 -13.272  0.00  0.00    -0.000 C 
ENDBRANCH  26  29
ENDBRANCH  25  26
ENDBRANCH   7  25
TORSDOF 7
ENDMDL
MODEL 5
REMARK VINA RESULT:      -9.5      1.639      2.542
REMARK  Name = 46937030
REMARK  7 active torsions:
REMARK  status: ('A' for Active; 'I' for Inactive)
REMARK    1  A    between atoms: C_3  and  C_10
REMARK    2  A    between atoms: C_7  and  C_25
REMARK    3  A    between atoms: N_9  and  C_12
REMARK    4  A    between atoms: C_12  and  C_13
REMARK    5  A    between atoms: C_18  and  C_21
REMARK    6  A    between atoms: C_25  and  N_26
REMARK    7  A    between atoms: N_26  and  C_29
REMARK                            x       y       z     vdW  Elec       q    Type
REMARK                         _______ _______ _______ _____ _____    ______ ____
ROOT
ATOM      1  O   UNL     1      33.555 -24.863 -12.714  0.00  0.00    -0.277 OA
ATOM      2  N   UNL     1      35.661 -23.912 -12.731  0.00  0.00    -0.275 N 
ATOM      3  C   UNL     1      36.622 -22.873 -13.098  0.00  0.00    +0.152 C 
ATOM      4  C   UNL     1      37.680 -22.929 -12.001  0.00  0.00    +0.031 C 
ATOM      5  C   UNL     1      36.190 -24.766 -11.675  0.00  0.00    +0.094 C 
ATOM      6  C   UNL     1      37.658 -24.391 -11.561  0.00  0.00    +0.024 C 
ATOM      7  C   UNL     1      34.352 -24.040 -13.169  0.00  0.00    +0.204 C 
ENDROOT
BRANCH   3  10
ATOM      8  O   UNL     1      37.736 -24.333 -14.623  0.00  0.00    -0.273 OA
ATOM      9  N   UNL     1      37.113 -22.210 -15.345  0.00  0.00    -0.299 N 
ATOM     10  C   UNL     1      37.214 -23.239 -14.425  0.00  0.00    +0.241 C 
ATOM     11  H   UNL     1      36.669 -21.375 -15.068  0.00  0.00    +0.150 HD
BRANCH   9  12
ATOM     12  C   UNL     1      37.627 -22.299 -16.693  0.00  0.00    +0.116 C 
BRANCH  12  13
ATOM     13  C   UNL     1      36.643 -21.784 -17.704  0.00  0.00    -0.003 C 
ATOM     14  C   UNL     1      35.297 -22.137 -17.609  0.00  0.00    -0.003 C 
ATOM     15  C   UNL     1      37.076 -20.955 -18.739  0.00  0.00    -0.003 C 
ATOM     16  C   UNL     1      34.383 -21.659 -18.548  0.00  0.00    +0.002 C 
ATOM     17  C   UNL     1      36.162 -20.477 -19.678  0.00  0.00    +0.002 C 
ATOM     18  C   UNL     1      34.816 -20.829 -19.582  0.00  0.00    +0.031 C 
BRANCH  18  21
ATOM     19  N   UNL     1      32.499 -20.587 -20.443  0.00  0.00    -0.343 N 
ATOM     20  N   UNL     1      34.289 -19.620 -21.592  0.00  0.00    -0.285 NA
ATOM     21  C   UNL     1      33.864 -20.330 -20.562  0.00  0.00    +0.117 C 
ATOM     22  H   UNL     1      31.872 -20.239 -21.117  0.00  0.00    +0.144 HD
ATOM     23  H   UNL     1      32.163 -21.117 -19.684  0.00  0.00    +0.144 HD
ATOM     24  H   UNL     1      33.646 -19.282 -22.256  0.00  0.00    +0.188 HD
ENDBRANCH  18  21
ENDBRANCH  12  13
ENDBRANCH   9  12
ENDBRANCH   3  10
BRANCH   7  25
ATOM     25  C   UNL     1      33.924 -23.097 -14.265  0.00  0.00    +0.006 C 
BRANCH  25  26
ATOM     26  N   UNL     1      32.554 -22.704 -13.977  0.00  0.00    +0.391 N 
ATOM     27  H   UNL     1      32.162 -23.340 -13.281  0.00  0.00    -0.084 HD
ATOM     28  H   UNL     1      32.554 -21.749 -13.620  0.00  0.00    -0.084 HD
BRANCH  26  29
ATOM     29  C   UNL     1      31.737 -22.757 -15.192  0.00  0.00    -0.061 C 
ATOM     30  C   UNL     1      31.635 -24.199 -15.707  0.00  0.00    -0.021 C 
ATOM     31  C   UNL     1      30.414 -22.019 -14.934  0.00  0.00    -0.021 C 
ATOM     32  C   UNL     1      29.370 -22.163 -16.042  0.00  0.00    -0.002 C 
ATOM     33  C   UNL     1      30.957 -25.228 -14.802  0.00  0.00    -0.002 C 
ATOM     34  C   UNL     1      28.234 -23.138 -15.721  0.00  0.00    -0.000 C 
ATOM     35  C   UNL     1      29.480 -25.014 -14.472  0.00  0.00    -0.000 C 
ATOM     36  C   UNL     1      28.598 -24.624 -15.659  0.00  0.00    -0.000 C 
ENDBRANCH  26  29
ENDBRANCH  25  26
ENDBRANCH   7  25
TORSDOF 7
ENDMDL
MODEL 6
REMARK VINA RESULT:      -9.5      8.453     13.258
REMARK  Name = 46937030
REMARK  7 active torsions:
REMARK  status: ('A' for Active; 'I' for Inactive)
REMARK    1  A    between atoms: C_3  and  C_10
REMARK    2  A    between atoms: C_7  and  C_25
REMARK    3  A    between atoms: N_9  and  C_12
REMARK    4  A    between atoms: C_12  and  C_13
REMARK    5  A    between atoms: C_18  and  C_21
REMARK    6  A    between atoms: C_25  and  N_26
REMARK    7  A    between atoms: N_26  and  C_29
REMARK                            x       y       z     vdW  Elec       q    Type
REMARK                         _______ _______ _______ _____ _____    ______ ____
ROOT
ATOM      1  O   UNL     1      33.873 -16.084 -25.401  0.00  0.00    -0.277 OA
ATOM      2  N   UNL     1      34.041 -13.868 -24.770  0.00  0.00    -0.275 N 
ATOM      3  C   UNL     1      34.499 -12.790 -23.895  0.00  0.00    +0.152 C 
ATOM      4  C   UNL     1      34.559 -11.564 -24.800  0.00  0.00    +0.031 C 
ATOM      5  C   UNL     1      33.557 -13.341 -26.039  0.00  0.00    +0.094 C 
ATOM      6  C   UNL     1      33.476 -11.837 -25.840  0.00  0.00    +0.024 C 
ATOM      7  C   UNL     1      34.160 -15.232 -24.557  0.00  0.00    +0.204 C 
ENDROOT
BRANCH   3  10
ATOM      8  O   UNL     1      33.033 -13.551 -22.171  0.00  0.00    -0.273 OA
ATOM      9  N   UNL     1      33.101 -11.279 -22.674  0.00  0.00    -0.299 N 
ATOM     10  C   UNL     1      33.475 -12.604 -22.816  0.00  0.00    +0.241 C 
ATOM     11  H   UNL     1      33.529 -10.605 -23.251  0.00  0.00    +0.150 HD
BRANCH   9  12
ATOM     12  C   UNL     1      32.111 -10.834 -21.718  0.00  0.00    +0.116 C 
BRANCH  12  13
ATOM     13  C   UNL     1      31.892  -9.350 -21.786  0.00  0.00    -0.003 C 
ATOM     14  C   UNL     1      31.501  -8.758 -22.987  0.00  0.00    -0.003 C 
ATOM     15  C   UNL     1      32.080  -8.565 -20.649  0.00  0.00    -0.003 C 
ATOM     16  C   UNL     1      31.297  -7.379 -23.050  0.00  0.00    +0.002 C 
ATOM     17  C   UNL     1      31.876  -7.186 -20.712  0.00  0.00    +0.002 C 
ATOM     18  C   UNL     1      31.484  -6.594 -21.913  0.00  0.00    +0.031 C 
BRANCH  18  21
ATOM     19  N   UNL     1      31.090  -4.505 -23.197  0.00  0.00    -0.343 N 
ATOM     20  N   UNL     1      31.250  -4.443 -20.867  0.00  0.00    -0.285 NA
ATOM     21  C   UNL     1      31.271  -5.157 -21.978  0.00  0.00    +0.117 C 
ATOM     22  H   UNL     1      30.947  -3.532 -23.218  0.00  0.00    +0.144 HD
ATOM     23  H   UNL     1      31.105  -5.019 -24.037  0.00  0.00    +0.144 HD
ATOM     24  H   UNL     1      31.107  -3.470 -20.909  0.00  0.00    +0.188 HD
ENDBRANCH  18  21
ENDBRANCH  12  13
ENDBRANCH   9  12
ENDBRANCH   3  10
BRANCH   7  25
ATOM     25  C   UNL     1      34.674 -15.650 -23.203  0.00  0.00    +0.006 C 
BRANCH  25  26
ATOM     26  N   UNL     1      35.878 -16.433 -23.428  0.00  0.00    +0.391 N 
ATOM     27  H   UNL     1      36.213 -16.268 -24.378  0.00  0.00    -0.084 HD
ATOM     28  H   UNL     1      36.586 -16.151 -22.751  0.00  0.00    -0.084 HD
BRANCH  26  29
ATOM     29  C   UNL     1      35.602 -17.863 -23.257  0.00  0.00    -0.061 C 
ATOM     30  C   UNL     1      36.914 -18.650 -23.137  0.00  0.00    -0.021 C 
ATOM     31  C   UNL     1      34.582 -18.040 -22.122  0.00  0.00    -0.021 C 
ATOM     32  C   UNL     1      34.348 -19.488 -21.687  0.00  0.00    -0.002 C 
ATOM     33  C   UNL     1      37.821 -18.338 -21.946  0.00  0.00    -0.002 C 
ATOM     34  C   UNL     1      35.030 -19.873 -20.372  0.00  0.00    -0.000 C 
ATOM     35  C   UNL     1      37.273 -18.621 -20.548  0.00  0.00    -0.000 C 
ATOM     36  C   UNL     1      36.558 -19.963 -20.388  0.00  0.00    -0.000 C 
ENDBRANCH  26  29
ENDBRANCH  25  26
ENDBRANCH   7  25
TORSDOF 7
ENDMDL
MODEL 7
REMARK VINA RESULT:      -9.3      2.538      6.820
REMARK  Name = 46937030
REMARK  7 active torsions:
REMARK  status: ('A' for Active; 'I' for Inactive)
REMARK    1  A    between atoms: C_3  and  C_10
REMARK    2  A    between atoms: C_7  and  C_25
REMARK    3  A    between atoms: N_9  and  C_12
REMARK    4  A    between atoms: C_12  and  C_13
REMARK    5  A    between atoms: C_18  and  C_21
REMARK    6  A    between atoms: C_25  and  N_26
REMARK    7  A    between atoms: N_26  and  C_29
REMARK                            x       y       z     vdW  Elec       q    Type
REMARK                         _______ _______ _______ _____ _____    ______ ____
ROOT
ATOM      1  O   UNL     1      32.368 -21.024 -18.834  0.00  0.00    -0.277 OA
ATOM      2  N   UNL     1      34.517 -20.878 -19.671  0.00  0.00    -0.275 N 
ATOM      3  C   UNL     1      35.886 -21.359 -19.845  0.00  0.00    +0.152 C 
ATOM      4  C   UNL     1      36.329 -20.771 -21.181  0.00  0.00    +0.031 C 
ATOM      5  C   UNL     1      34.201 -19.835 -20.638  0.00  0.00    +0.094 C 
ATOM      6  C   UNL     1      35.531 -19.474 -21.281  0.00  0.00    +0.024 C 
ATOM      7  C   UNL     1      33.544 -21.395 -18.830  0.00  0.00    +0.204 C 
ENDROOT
BRANCH   3  10
ATOM      8  O   UNL     1      37.244 -19.704 -18.788  0.00  0.00    -0.273 OA
ATOM      9  N   UNL     1      36.813 -21.697 -17.664  0.00  0.00    -0.299 N 
ATOM     10  C   UNL     1      36.715 -20.811 -18.723  0.00  0.00    +0.241 C 
ATOM     11  H   UNL     1      36.341 -22.559 -17.728  0.00  0.00    +0.150 HD
BRANCH   9  12
ATOM     12  C   UNL     1      37.575 -21.419 -16.468  0.00  0.00    +0.116 C 
BRANCH  12  13
ATOM     13  C   UNL     1      37.461 -22.525 -15.459  0.00  0.00    -0.003 C 
ATOM     14  C   UNL     1      38.435 -23.522 -15.405  0.00  0.00    -0.003 C 
ATOM     15  C   UNL     1      36.381 -22.557 -14.577  0.00  0.00    -0.003 C 
ATOM     16  C   UNL     1      38.330 -24.550 -14.469  0.00  0.00    +0.002 C 
ATOM     17  C   UNL     1      36.275 -23.585 -13.640  0.00  0.00    +0.002 C 
ATOM     18  C   UNL     1      37.250 -24.581 -13.586  0.00  0.00    +0.031 C 
BRANCH  18  21
ATOM     19  N   UNL     1      37.330 -26.985 -12.970  0.00  0.00    -0.343 N 
ATOM     20  N   UNL     1      36.851 -25.370 -11.351  0.00  0.00    -0.285 NA
ATOM     21  C   UNL     1      37.140 -25.653 -12.609  0.00  0.00    +0.117 C 
ATOM     22  H   UNL     1      37.251 -27.695 -12.291  0.00  0.00    +0.144 HD
ATOM     23  H   UNL     1      37.543 -27.217 -13.902  0.00  0.00    +0.144 HD
ATOM     24  H   UNL     1      36.775 -26.094 -10.688  0.00  0.00    +0.188 HD
ENDBRANCH  18  21
ENDBRANCH  12  13
ENDBRANCH   9  12
ENDBRANCH   3  10
BRANCH   7  25
ATOM     25  C   UNL     1      33.996 -22.471 -17.876  0.00  0.00    +0.006 C 
BRANCH  25  26
ATOM     26  N   UNL     1      32.804 -23.181 -17.440  0.00  0.00    +0.391 N 
ATOM     27  H   UNL     1      32.015 -22.901 -18.024  0.00  0.00    -0.084 HD
ATOM     28  H   UNL     1      32.969 -24.183 -17.527  0.00  0.00    -0.084 HD
BRANCH  26  29
ATOM     29  C   UNL     1      32.501 -22.869 -16.040  0.00  0.00    -0.061 C 
ATOM     30  C   UNL     1      31.005 -22.577 -15.869  0.00  0.00    -0.021 C 
ATOM     31  C   UNL     1      33.099 -23.967 -15.147  0.00  0.00    -0.021 C 
ATOM     32  C   UNL     1      32.692 -23.890 -13.674  0.00  0.00    -0.002 C 
ATOM     33  C   UNL     1      30.022 -23.706 -16.182  0.00  0.00    -0.002 C 
ATOM     34  C   UNL     1      31.634 -24.914 -13.255  0.00  0.00    -0.000 C 
ATOM     35  C   UNL     1      30.094 -24.964 -15.318  0.00  0.00    -0.000 C 
ATOM     36  C   UNL     1      30.223 -24.717 -13.815  0.00  0.00    -0.000 C 
ENDBRANCH  26  29
ENDBRANCH  25  26
ENDBRANCH   7  25
TORSDOF 7
ENDMDL
MODEL 8
REMARK VINA RESULT:      -9.0      1.866      2.903
REMARK  Name = 46937030
REMARK  7 active torsions:
REMARK  status: ('A' for Active; 'I' for Inactive)
REMARK    1  A    between atoms: C_3  and  C_10
REMARK    2  A    between atoms: C_7  and  C_25
REMARK    3  A    between atoms: N_9  and  C_12
REMARK    4  A    between atoms: C_12  and  C_13
REMARK    5  A    between atoms: C_18  and  C_21
REMARK    6  A    between atoms: C_25  and  N_26
REMARK    7  A    between atoms: N_26  and  C_29
REMARK                            x       y       z     vdW  Elec       q    Type
REMARK                         _______ _______ _______ _____ _____    ______ ____
ROOT
ATOM      1  O   UNL     1      35.614 -26.486 -15.647  0.00  0.00    -0.277 OA
ATOM      2  N   UNL     1      37.312 -25.532 -14.404  0.00  0.00    -0.275 N 
ATOM      3  C   UNL     1      37.826 -24.696 -13.321  0.00  0.00    +0.152 C 
ATOM      4  C   UNL     1      39.193 -25.290 -12.997  0.00  0.00    +0.031 C 
ATOM      5  C   UNL     1      38.357 -26.393 -14.942  0.00  0.00    +0.094 C 
ATOM      6  C   UNL     1      39.649 -25.879 -14.329  0.00  0.00    +0.024 C 
ATOM      7  C   UNL     1      35.995 -25.659 -14.816  0.00  0.00    +0.204 C 
ENDROOT
BRANCH   3  10
ATOM      8  O   UNL     1      37.919 -22.320 -13.102  0.00  0.00    -0.273 OA
ATOM      9  N   UNL     1      38.126 -23.267 -15.219  0.00  0.00    -0.299 N 
ATOM     10  C   UNL     1      37.966 -23.298 -13.844  0.00  0.00    +0.241 C 
ATOM     11  H   UNL     1      38.150 -24.121 -15.708  0.00  0.00    +0.150 HD
BRANCH   9  12
ATOM     12  C   UNL     1      38.261 -22.041 -15.972  0.00  0.00    +0.116 C 
BRANCH  12  13
ATOM     13  C   UNL     1      37.121 -21.842 -16.930  0.00  0.00    -0.003 C 
ATOM     14  C   UNL     1      35.888 -22.444 -16.679  0.00  0.00    -0.003 C 
ATOM     15  C   UNL     1      37.296 -21.058 -18.070  0.00  0.00    -0.003 C 
ATOM     16  C   UNL     1      34.829 -22.260 -17.569  0.00  0.00    +0.002 C 
ATOM     17  C   UNL     1      36.237 -20.874 -18.959  0.00  0.00    +0.002 C 
ATOM     18  C   UNL     1      35.004 -21.474 -18.708  0.00  0.00    +0.031 C 
BRANCH  18  21
ATOM     19  N   UNL     1      33.907 -20.243 -20.565  0.00  0.00    -0.343 N 
ATOM     20  N   UNL     1      32.861 -22.097 -19.601  0.00  0.00    -0.285 NA
ATOM     21  C   UNL     1      33.900 -21.281 -19.635  0.00  0.00    +0.117 C 
ATOM     22  H   UNL     1      33.149 -20.132 -21.183  0.00  0.00    +0.144 HD
ATOM     23  H   UNL     1      34.670 -19.623 -20.604  0.00  0.00    +0.144 HD
ATOM     24  H   UNL     1      32.113 -21.968 -20.228  0.00  0.00    +0.188 HD
ENDBRANCH  18  21
ENDBRANCH  12  13
ENDBRANCH   9  12
ENDBRANCH   3  10
BRANCH   7  25
ATOM     25  C   UNL     1      35.008 -24.711 -14.184  0.00  0.00    +0.006 C 
BRANCH  25  26
ATOM     26  N   UNL     1      33.738 -24.903 -14.865  0.00  0.00    +0.391 N 
ATOM     27  H   UNL     1      33.769 -24.435 -15.771  0.00  0.00    -0.084 HD
ATOM     28  H   UNL     1      33.579 -25.902 -14.990  0.00  0.00    -0.084 HD
BRANCH  26  29
ATOM     29  C   UNL     1      32.638 -24.344 -14.072  0.00  0.00    -0.061 C 
ATOM     30  C   UNL     1      32.461 -22.851 -14.381  0.00  0.00    -0.021 C 
ATOM     31  C   UNL     1      31.400 -25.238 -14.241  0.00  0.00    -0.021 C 
ATOM     32  C   UNL     1      30.112 -24.674 -13.638  0.00  0.00    -0.002 C 
ATOM     33  C   UNL     1      32.075 -22.464 -15.809  0.00  0.00    -0.002 C 
ATOM     34  C   UNL     1      29.133 -24.093 -14.662  0.00  0.00    -0.000 C 
ATOM     35  C   UNL     1      30.726 -22.953 -16.334  0.00  0.00    -0.000 C 
ATOM     36  C   UNL     1      29.555 -22.799 -15.363  0.00  0.00    -0.000 C 
ENDBRANCH  26  29
ENDBRANCH  25  26
ENDBRANCH   7  25
TORSDOF 7
ENDMDL
MODEL 9
REMARK VINA RESULT:      -8.7      5.018     10.669
REMARK  Name = 46937030
REMARK  7 active torsions:
REMARK  status: ('A' for Active; 'I' for Inactive)
REMARK    1  A    between atoms: C_3  and  C_10
REMARK    2  A    between atoms: C_7  and  C_25
REMARK    3  A    between atoms: N_9  and  C_12
REMARK    4  A    between atoms: C_12  and  C_13
REMARK    5  A    between atoms: C_18  and  C_21
REMARK    6  A    between atoms: C_25  and  N_26
REMARK    7  A    between atoms: N_26  and  C_29
REMARK                            x       y       z     vdW  Elec       q    Type
REMARK                         _______ _______ _______ _____ _____    ______ ____
ROOT
ATOM      1  O   UNL     1      35.527 -14.933 -23.656  0.00  0.00    -0.277 OA
ATOM      2  N   UNL     1      35.085 -17.134 -23.108  0.00  0.00    -0.275 N 
ATOM      3  C   UNL     1      34.572 -18.184 -22.230  0.00  0.00    +0.152 C 
ATOM      4  C   UNL     1      34.205 -19.325 -23.173  0.00  0.00    +0.031 C 
ATOM      5  C   UNL     1      35.319 -17.644 -24.453  0.00  0.00    +0.094 C 
ATOM      6  C   UNL     1      35.183 -19.154 -24.334  0.00  0.00    +0.024 C 
ATOM      7  C   UNL     1      35.214 -15.784 -22.821  0.00  0.00    +0.204 C 
ENDROOT
BRANCH   3  10
ATOM      8  O   UNL     1      36.626 -17.854 -21.059  0.00  0.00    -0.273 OA
ATOM      9  N   UNL     1      35.498 -19.874 -20.811  0.00  0.00    -0.299 N 
ATOM     10  C   UNL     1      35.678 -18.594 -21.305  0.00  0.00    +0.241 C 
ATOM     11  H   UNL     1      34.693 -20.373 -21.081  0.00  0.00    +0.150 HD
BRANCH   9  12
ATOM     12  C   UNL     1      36.434 -20.516 -19.915  0.00  0.00    +0.116 C 
BRANCH  12  13
ATOM     13  C   UNL     1      35.737 -21.308 -18.847  0.00  0.00    -0.003 C 
ATOM     14  C   UNL     1      34.406 -21.690 -19.019  0.00  0.00    -0.003 C 
ATOM     15  C   UNL     1      36.420 -21.661 -17.683  0.00  0.00    -0.003 C 
ATOM     16  C   UNL     1      33.758 -22.426 -18.026  0.00  0.00    +0.002 C 
ATOM     17  C   UNL     1      35.771 -22.396 -16.690  0.00  0.00    +0.002 C 
ATOM     18  C   UNL     1      34.441 -22.779 -16.862  0.00  0.00    +0.031 C 
BRANCH  18  21
ATOM     19  N   UNL     1      32.379 -23.520 -15.694  0.00  0.00    -0.343 N 
ATOM     20  N   UNL     1      34.472 -24.284 -14.989  0.00  0.00    -0.285 NA
ATOM     21  C   UNL     1      33.766 -23.546 -15.828  0.00  0.00    +0.117 C 
ATOM     22  H   UNL     1      31.944 -24.048 -14.986  0.00  0.00    +0.144 HD
ATOM     23  H   UNL     1      31.836 -22.974 -16.306  0.00  0.00    +0.144 HD
ATOM     24  H   UNL     1      34.017 -24.804 -14.288  0.00  0.00    +0.188 HD
ENDBRANCH  18  21
ENDBRANCH  12  13
ENDBRANCH   9  12
ENDBRANCH   3  10
BRANCH   7  25
ATOM     25  C   UNL     1      34.944 -15.382 -21.393  0.00  0.00    +0.006 C 
BRANCH  25  26
ATOM     26  N   UNL     1      34.927 -13.929 -21.357  0.00  0.00    +0.391 N 
ATOM     27  H   UNL     1      34.802 -13.618 -20.393  0.00  0.00    -0.084 HD
ATOM     28  H   UNL     1      35.811 -13.580 -21.728  0.00  0.00    -0.084 HD
BRANCH  26  29
ATOM     29  C   UNL     1      33.830 -13.406 -22.178  0.00  0.00    -0.061 C 
ATOM     30  C   UNL     1      32.492 -13.556 -21.441  0.00  0.00    -0.021 C 
ATOM     31  C   UNL     1      34.200 -11.995 -22.660  0.00  0.00    -0.021 C 
ATOM     32  C   UNL     1      33.069 -11.236 -23.358  0.00  0.00    -0.002 C 
ATOM     33  C   UNL     1      32.319 -12.796 -20.125  0.00  0.00    -0.002 C 
ATOM     34  C   UNL     1      32.406 -10.156 -22.501  0.00  0.00    -0.000 C 
ATOM     35  C   UNL     1      32.363 -11.270 -20.179  0.00  0.00    -0.000 C 
ATOM     36  C   UNL     1      31.562 -10.635 -21.317  0.00  0.00    -0.000 C 
ENDBRANCH  26  29
ENDBRANCH  25  26
ENDBRANCH   7  25
TORSDOF 7
ENDMDL
