MODEL 1
REMARK VINA RESULT:     -11.8      0.000      0.000
REMARK  Name = 11961293
REMARK  7 active torsions:
REMARK  status: ('A' for Active; 'I' for Inactive)
REMARK    1  A    between atoms: C_1  and  C_3
REMARK    2  A    between atoms: C_1  and  N_21
REMARK    3  A    between atoms: N_2  and  C_9
REMARK    4  A    between atoms: C_9  and  C_12
REMARK    5  A    between atoms: C_17  and  O_18
REMARK    6  A    between atoms: C_22  and  C_26
REMARK    7  A    between atoms: C_30  and  C_35
REMARK                            x       y       z     vdW  Elec       q    Type
REMARK                         _______ _______ _______ _____ _____    ______ ____
ROOT
ATOM      1  C   UNL     1      34.205 -14.692 -24.496  0.00  0.00    +0.089 C 
ENDROOT
BRANCH   1   3
ATOM      2  N   UNL     1      35.414 -17.900 -21.869  0.00  0.00    +0.387 N 
ATOM      3  C   UNL     1      35.107 -15.638 -23.709  0.00  0.00    +0.015 C 
ATOM      4  C   UNL     1      35.726 -18.055 -23.296  0.00  0.00    -0.077 C 
ATOM      5  C   UNL     1      35.682 -16.530 -21.414  0.00  0.00    -0.077 C 
ATOM      6  C   UNL     1      34.900 -17.091 -24.150  0.00  0.00    -0.021 C 
ATOM      7  C   UNL     1      34.853 -15.514 -22.203  0.00  0.00    -0.021 C 
ATOM      8  H   UNL     1      34.418 -18.084 -21.743  0.00  0.00    -0.080 HD
BRANCH   2   9
ATOM      9  C   UNL     1      36.173 -18.863 -21.071  0.00  0.00    -0.077 C 
BRANCH   9  12
ATOM     10  O   UNL     1      32.073 -22.045 -17.623  0.00  0.00    -0.226 OA
ATOM     11  N   UNL     1      33.850 -21.908 -19.115  0.00  0.00    -0.246 N 
ATOM     12  C   UNL     1      35.362 -20.134 -20.834  0.00  0.00    -0.017 C 
ATOM     13  C   UNL     1      33.935 -19.795 -20.375  0.00  0.00    +0.020 C 
ATOM     14  C   UNL     1      36.051 -21.037 -19.799  0.00  0.00    +0.020 C 
ATOM     15  C   UNL     1      33.137 -21.059 -20.068  0.00  0.00    +0.097 C 
ATOM     16  C   UNL     1      35.215 -22.280 -19.502  0.00  0.00    +0.097 C 
ATOM     17  C   UNL     1      33.217 -22.354 -17.951  0.00  0.00    +0.405 C 
BRANCH  17  18
ATOM     18  O   UNL     1      34.011 -23.182 -17.202  0.00  0.00    -0.430 OA
ATOM     19  C   UNL     1      33.931 -23.018 -15.781  0.00  0.00    +0.257 C 
ENDBRANCH  17  18
ENDBRANCH   9  12
ENDBRANCH   2   9
ENDBRANCH   1   3
BRANCH   1  21
ATOM     20  O   UNL     1      34.542 -11.843 -24.389  0.00  0.00    -0.270 OA
ATOM     21  N   UNL     1      33.516 -13.769 -23.608  0.00  0.00    -0.301 N 
ATOM     22  C   UNL     1      33.753 -12.409 -23.637  0.00  0.00    +0.247 C 
ATOM     23  H   UNL     1      32.861 -14.125 -22.965  0.00  0.00    +0.150 HD
BRANCH  22  26
ATOM     24  N   UNL     1      32.514  -8.085 -22.006  0.00  0.00    -0.318 N 
ATOM     25  N   UNL     1      33.653  -9.305 -23.473  0.00  0.00    -0.318 N 
ATOM     26  C   UNL     1      32.989 -11.604 -22.649  0.00  0.00    +0.068 C 
ATOM     27  C   UNL     1      33.013 -10.208 -22.665  0.00  0.00    +0.063 C 
ATOM     28  C   UNL     1      32.209 -12.210 -21.659  0.00  0.00    +0.006 C 
ATOM     29  C   UNL     1      32.307  -9.423 -21.757  0.00  0.00    +0.059 C 
ATOM     30  C   UNL     1      33.324  -8.051 -23.040  0.00  0.00    +0.144 C 
ATOM     31  C   UNL     1      31.491 -11.447 -20.734  0.00  0.00    +0.001 C 
ATOM     32  C   UNL     1      31.529 -10.048 -20.769  0.00  0.00    +0.016 C 
ATOM     33  H   UNL     1      32.136  -7.319 -21.516  0.00  0.00    +0.148 HD
ATOM     34  H   UNL     1      34.245  -9.522 -24.231  0.00  0.00    +0.148 HD
BRANCH  30  35
ATOM     35  C   UNL     1      33.796  -6.785 -23.631  0.00  0.00    +0.037 C 
ATOM     36  C   UNL     1      33.295  -5.533 -22.871  0.00  0.00    +0.003 C 
ATOM     37  C   UNL     1      35.336  -6.713 -23.773  0.00  0.00    +0.003 C 
ENDBRANCH  30  35
ENDBRANCH  22  26
ENDBRANCH   1  21
TORSDOF 7
ENDMDL
MODEL 2
REMARK VINA RESULT:     -11.2      3.077     12.376
REMARK  Name = 11961293
REMARK  7 active torsions:
REMARK  status: ('A' for Active; 'I' for Inactive)
REMARK    1  A    between atoms: C_1  and  C_3
REMARK    2  A    between atoms: C_1  and  N_21
REMARK    3  A    between atoms: N_2  and  C_9
REMARK    4  A    between atoms: C_9  and  C_12
REMARK    5  A    between atoms: C_17  and  O_18
REMARK    6  A    between atoms: C_22  and  C_26
REMARK    7  A    between atoms: C_30  and  C_35
REMARK                            x       y       z     vdW  Elec       q    Type
REMARK                         _______ _______ _______ _____ _____    ______ ____
ROOT
ATOM      1  C   UNL     1      35.068 -22.009 -19.432  0.00  0.00    +0.089 C 
ENDROOT
BRANCH   1   3
ATOM      2  N   UNL     1      36.153 -18.609 -21.864  0.00  0.00    +0.387 N 
ATOM      3  C   UNL     1      35.374 -20.567 -19.826  0.00  0.00    +0.015 C 
ATOM      4  C   UNL     1      34.768 -18.665 -21.380  0.00  0.00    -0.077 C 
ATOM      5  C   UNL     1      37.099 -19.004 -20.811  0.00  0.00    -0.077 C 
ATOM      6  C   UNL     1      34.406 -20.075 -20.908  0.00  0.00    -0.021 C 
ATOM      7  C   UNL     1      36.817 -20.426 -20.320  0.00  0.00    -0.021 C 
ATOM      8  H   UNL     1      36.246 -19.271 -22.633  0.00  0.00    -0.080 HD
BRANCH   2   9
ATOM      9  C   UNL     1      36.469 -17.269 -22.359  0.00  0.00    -0.077 C 
BRANCH   9  12
ATOM     10  O   UNL     1      33.708 -13.594 -26.566  0.00  0.00    -0.226 OA
ATOM     11  N   UNL     1      33.897 -14.524 -24.445  0.00  0.00    -0.246 N 
ATOM     12  C   UNL     1      35.212 -16.567 -22.868  0.00  0.00    -0.017 C 
ATOM     13  C   UNL     1      35.113 -16.665 -24.398  0.00  0.00    +0.020 C 
ATOM     14  C   UNL     1      35.195 -15.094 -22.429  0.00  0.00    +0.020 C 
ATOM     15  C   UNL     1      33.897 -15.906 -24.922  0.00  0.00    +0.097 C 
ATOM     16  C   UNL     1      33.976 -14.363 -22.989  0.00  0.00    +0.097 C 
ATOM     17  C   UNL     1      33.776 -13.463 -25.346  0.00  0.00    +0.405 C 
BRANCH  17  18
ATOM     18  O   UNL     1      33.738 -12.243 -24.723  0.00  0.00    -0.430 OA
ATOM     19  C   UNL     1      34.177 -11.122 -25.501  0.00  0.00    +0.257 C 
ENDBRANCH  17  18
ENDBRANCH   9  12
ENDBRANCH   2   9
ENDBRANCH   1   3
BRANCH   1  21
ATOM     20  O   UNL     1      33.665 -24.278 -18.370  0.00  0.00    -0.270 OA
ATOM     21  N   UNL     1      34.314 -22.060 -18.188  0.00  0.00    -0.301 N 
ATOM     22  C   UNL     1      33.672 -23.208 -17.766  0.00  0.00    +0.247 C 
ATOM     23  H   UNL     1      34.260 -21.251 -17.630  0.00  0.00    +0.150 HD
BRANCH  22  26
ATOM     24  N   UNL     1      33.694 -23.568 -12.996  0.00  0.00    -0.318 N 
ATOM     25  N   UNL     1      34.796 -23.744 -14.917  0.00  0.00    -0.318 N 
ATOM     26  C   UNL     1      32.924 -23.090 -16.489  0.00  0.00    +0.068 C 
ATOM     27  C   UNL     1      33.527 -23.354 -15.258  0.00  0.00    +0.063 C 
ATOM     28  C   UNL     1      31.579 -22.705 -16.461  0.00  0.00    +0.006 C 
ATOM     29  C   UNL     1      32.858 -23.250 -14.041  0.00  0.00    +0.059 C 
ATOM     30  C   UNL     1      34.847 -23.859 -13.556  0.00  0.00    +0.144 C 
ATOM     31  C   UNL     1      30.882 -22.593 -15.256  0.00  0.00    +0.001 C 
ATOM     32  C   UNL     1      31.508 -22.863 -14.033  0.00  0.00    +0.016 C 
ATOM     33  H   UNL     1      33.476 -23.576 -12.036  0.00  0.00    +0.148 HD
ATOM     34  H   UNL     1      35.539 -23.911 -15.542  0.00  0.00    +0.148 HD
BRANCH  30  35
ATOM     35  C   UNL     1      36.028 -24.255 -12.768  0.00  0.00    +0.037 C 
ATOM     36  C   UNL     1      37.234 -23.302 -12.953  0.00  0.00    +0.003 C 
ATOM     37  C   UNL     1      35.731 -24.412 -11.257  0.00  0.00    +0.003 C 
ENDBRANCH  30  35
ENDBRANCH  22  26
ENDBRANCH   1  21
TORSDOF 7
ENDMDL
MODEL 3
REMARK VINA RESULT:     -10.9      2.982     11.916
REMARK  Name = 11961293
REMARK  7 active torsions:
REMARK  status: ('A' for Active; 'I' for Inactive)
REMARK    1  A    between atoms: C_1  and  C_3
REMARK    2  A    between atoms: C_1  and  N_21
REMARK    3  A    between atoms: N_2  and  C_9
REMARK    4  A    between atoms: C_9  and  C_12
REMARK    5  A    between atoms: C_17  and  O_18
REMARK    6  A    between atoms: C_22  and  C_26
REMARK    7  A    between atoms: C_30  and  C_35
REMARK                            x       y       z     vdW  Elec       q    Type
REMARK                         _______ _______ _______ _____ _____    ______ ____
ROOT
ATOM      1  C   UNL     1      35.341 -21.854 -19.662  0.00  0.00    +0.089 C 
ENDROOT
BRANCH   1   3
ATOM      2  N   UNL     1      36.161 -18.252 -21.901  0.00  0.00    +0.387 N 
ATOM      3  C   UNL     1      35.575 -20.377 -19.967  0.00  0.00    +0.015 C 
ATOM      4  C   UNL     1      34.812 -18.393 -21.339  0.00  0.00    -0.077 C 
ATOM      5  C   UNL     1      37.184 -18.686 -20.940  0.00  0.00    -0.077 C 
ATOM      6  C   UNL     1      34.525 -19.845 -20.949  0.00  0.00    -0.021 C 
ATOM      7  C   UNL     1      36.978 -20.148 -20.538  0.00  0.00    -0.021 C 
ATOM      8  H   UNL     1      36.225 -18.855 -22.721  0.00  0.00    -0.080 HD
BRANCH   2   9
ATOM      9  C   UNL     1      36.402 -16.870 -22.315  0.00  0.00    -0.077 C 
BRANCH   9  12
ATOM     10  O   UNL     1      33.662 -13.409 -26.714  0.00  0.00    -0.226 OA
ATOM     11  N   UNL     1      33.790 -14.304 -24.573  0.00  0.00    -0.246 N 
ATOM     12  C   UNL     1      35.135 -16.249 -22.900  0.00  0.00    -0.017 C 
ATOM     13  C   UNL     1      35.124 -16.369 -24.431  0.00  0.00    +0.020 C 
ATOM     14  C   UNL     1      35.008 -14.775 -22.483  0.00  0.00    +0.020 C 
ATOM     15  C   UNL     1      33.896 -15.689 -25.031  0.00  0.00    +0.097 C 
ATOM     16  C   UNL     1      33.781 -14.123 -23.117  0.00  0.00    +0.097 C 
ATOM     17  C   UNL     1      33.656 -13.261 -25.493  0.00  0.00    +0.405 C 
BRANCH  17  18
ATOM     18  O   UNL     1      33.514 -12.040 -24.890  0.00  0.00    -0.430 OA
ATOM     19  C   UNL     1      34.516 -11.063 -25.197  0.00  0.00    +0.257 C 
ENDBRANCH  17  18
ENDBRANCH   9  12
ENDBRANCH   2   9
ENDBRANCH   1   3
BRANCH   1  21
ATOM     20  O   UNL     1      33.556 -23.898 -18.725  0.00  0.00    -0.270 OA
ATOM     21  N   UNL     1      34.865 -22.034 -18.299  0.00  0.00    -0.301 N 
ATOM     22  C   UNL     1      34.004 -23.055 -17.952  0.00  0.00    +0.247 C 
ATOM     23  H   UNL     1      35.167 -21.407 -17.601  0.00  0.00    +0.150 HD
BRANCH  22  26
ATOM     24  N   UNL     1      30.467 -22.805 -14.740  0.00  0.00    -0.318 N 
ATOM     25  N   UNL     1      31.105 -22.754 -16.868  0.00  0.00    -0.318 N 
ATOM     26  C   UNL     1      33.590 -23.087 -16.525  0.00  0.00    +0.068 C 
ATOM     27  C   UNL     1      32.254 -22.943 -16.145  0.00  0.00    +0.063 C 
ATOM     28  C   UNL     1      34.521 -23.268 -15.497  0.00  0.00    +0.006 C 
ATOM     29  C   UNL     1      31.830 -22.972 -14.820  0.00  0.00    +0.059 C 
ATOM     30  C   UNL     1      30.065 -22.677 -15.985  0.00  0.00    +0.144 C 
ATOM     31  C   UNL     1      34.125 -23.301 -14.158  0.00  0.00    +0.001 C 
ATOM     32  C   UNL     1      32.779 -23.154 -13.800  0.00  0.00    +0.016 C 
ATOM     33  H   UNL     1      29.912 -22.785 -13.927  0.00  0.00    +0.148 HD
ATOM     34  H   UNL     1      31.041 -22.686 -17.849  0.00  0.00    +0.148 HD
BRANCH  30  35
ATOM     35  C   UNL     1      28.648 -22.479 -16.339  0.00  0.00    +0.037 C 
ATOM     36  C   UNL     1      28.055 -23.645 -17.166  0.00  0.00    +0.003 C 
ATOM     37  C   UNL     1      27.742 -22.214 -15.111  0.00  0.00    +0.003 C 
ENDBRANCH  30  35
ENDBRANCH  22  26
ENDBRANCH   1  21
TORSDOF 7
ENDMDL
MODEL 4
REMARK VINA RESULT:     -10.8      5.490      9.347
REMARK  Name = 11961293
REMARK  7 active torsions:
REMARK  status: ('A' for Active; 'I' for Inactive)
REMARK    1  A    between atoms: C_1  and  C_3
REMARK    2  A    between atoms: C_1  and  N_21
REMARK    3  A    between atoms: N_2  and  C_9
REMARK    4  A    between atoms: C_9  and  C_12
REMARK    5  A    between atoms: C_17  and  O_18
REMARK    6  A    between atoms: C_22  and  C_26
REMARK    7  A    between atoms: C_30  and  C_35
REMARK                            x       y       z     vdW  Elec       q    Type
REMARK                         _______ _______ _______ _____ _____    ______ ____
ROOT
ATOM      1  C   UNL     1      33.472 -22.244 -18.738  0.00  0.00    +0.089 C 
ENDROOT
BRANCH   1   3
ATOM      2  N   UNL     1      34.882 -23.883 -14.999  0.00  0.00    +0.387 N 
ATOM      3  C   UNL     1      33.729 -22.386 -17.241  0.00  0.00    +0.015 C 
ATOM      4  C   UNL     1      35.499 -22.630 -15.450  0.00  0.00    -0.077 C 
ATOM      5  C   UNL     1      33.429 -23.865 -15.212  0.00  0.00    -0.077 C 
ATOM      6  C   UNL     1      35.232 -22.387 -16.937  0.00  0.00    -0.021 C 
ATOM      7  C   UNL     1      33.090 -23.666 -16.691  0.00  0.00    -0.021 C 
ATOM      8  H   UNL     1      35.271 -24.645 -15.554  0.00  0.00    -0.080 HD
BRANCH   2   9
ATOM      9  C   UNL     1      35.189 -24.127 -13.589  0.00  0.00    -0.077 C 
BRANCH   9  12
ATOM     10  O   UNL     1      41.300 -24.882 -14.551  0.00  0.00    -0.226 OA
ATOM     11  N   UNL     1      39.146 -25.691 -14.221  0.00  0.00    -0.246 N 
ATOM     12  C   UNL     1      36.447 -24.981 -13.446  0.00  0.00    -0.017 C 
ATOM     13  C   UNL     1      37.654 -24.116 -13.056  0.00  0.00    +0.020 C 
ATOM     14  C   UNL     1      36.739 -25.743 -14.749  0.00  0.00    +0.020 C 
ATOM     15  C   UNL     1      38.930 -24.949 -12.980  0.00  0.00    +0.097 C 
ATOM     16  C   UNL     1      38.033 -26.549 -14.642  0.00  0.00    +0.097 C 
ATOM     17  C   UNL     1      40.364 -25.598 -14.900  0.00  0.00    +0.405 C 
BRANCH  17  18
ATOM     18  O   UNL     1      40.411 -26.400 -16.010  0.00  0.00    -0.430 OA
ATOM     19  C   UNL     1      40.900 -27.732 -15.807  0.00  0.00    +0.257 C 
ENDBRANCH  17  18
ENDBRANCH   9  12
ENDBRANCH   2   9
ENDBRANCH   1   3
BRANCH   1  21
ATOM     20  O   UNL     1      33.057 -20.124 -20.629  0.00  0.00    -0.270 OA
ATOM     21  N   UNL     1      34.499 -21.428 -19.367  0.00  0.00    -0.301 N 
ATOM     22  C   UNL     1      34.192 -20.428 -20.268  0.00  0.00    +0.247 C 
ATOM     23  H   UNL     1      35.444 -21.593 -19.142  0.00  0.00    +0.150 HD
BRANCH  22  26
ATOM     24  N   UNL     1      35.946 -17.697 -23.783  0.00  0.00    -0.318 N 
ATOM     25  N   UNL     1      34.219 -18.793 -22.913  0.00  0.00    -0.318 N 
ATOM     26  C   UNL     1      35.354 -19.702 -20.841  0.00  0.00    +0.068 C 
ATOM     27  C   UNL     1      35.258 -18.994 -22.040  0.00  0.00    +0.063 C 
ATOM     28  C   UNL     1      36.598 -19.692 -20.202  0.00  0.00    +0.006 C 
ATOM     29  C   UNL     1      36.324 -18.299 -22.605  0.00  0.00    +0.059 C 
ATOM     30  C   UNL     1      34.679 -18.013 -23.937  0.00  0.00    +0.144 C 
ATOM     31  C   UNL     1      37.686 -19.004 -20.745  0.00  0.00    +0.001 C 
ATOM     32  C   UNL     1      37.567 -18.301 -21.950  0.00  0.00    +0.016 C 
ATOM     33  H   UNL     1      36.503 -17.148 -24.381  0.00  0.00    +0.148 HD
ATOM     34  H   UNL     1      33.305 -19.148 -22.818  0.00  0.00    +0.148 HD
BRANCH  30  35
ATOM     35  C   UNL     1      33.888 -17.556 -25.093  0.00  0.00    +0.037 C 
ATOM     36  C   UNL     1      32.564 -18.337 -25.275  0.00  0.00    +0.003 C 
ATOM     37  C   UNL     1      33.583 -16.038 -25.064  0.00  0.00    +0.003 C 
ENDBRANCH  30  35
ENDBRANCH  22  26
ENDBRANCH   1  21
TORSDOF 7
ENDMDL
MODEL 5
REMARK VINA RESULT:     -10.6      1.365      2.337
REMARK  Name = 11961293
REMARK  7 active torsions:
REMARK  status: ('A' for Active; 'I' for Inactive)
REMARK    1  A    between atoms: C_1  and  C_3
REMARK    2  A    between atoms: C_1  and  N_21
REMARK    3  A    between atoms: N_2  and  C_9
REMARK    4  A    between atoms: C_9  and  C_12
REMARK    5  A    between atoms: C_17  and  O_18
REMARK    6  A    between atoms: C_22  and  C_26
REMARK    7  A    between atoms: C_30  and  C_35
REMARK                            x       y       z     vdW  Elec       q    Type
REMARK                         _______ _______ _______ _____ _____    ______ ____
ROOT
ATOM      1  C   UNL     1      33.659 -13.175 -24.209  0.00  0.00    +0.089 C 
ENDROOT
BRANCH   1   3
ATOM      2  N   UNL     1      35.673 -16.963 -23.710  0.00  0.00    +0.387 N 
ATOM      3  C   UNL     1      33.904 -14.627 -23.810  0.00  0.00    +0.015 C 
ATOM      4  C   UNL     1      35.385 -16.197 -22.490  0.00  0.00    -0.077 C 
ATOM      5  C   UNL     1      34.534 -16.932 -24.637  0.00  0.00    -0.077 C 
ATOM      6  C   UNL     1      35.068 -14.736 -22.818  0.00  0.00    -0.021 C 
ATOM      7  C   UNL     1      34.189 -15.496 -25.039  0.00  0.00    -0.021 C 
ATOM      8  H   UNL     1      36.469 -16.527 -24.175  0.00  0.00    -0.080 HD
BRANCH   2   9
ATOM      9  C   UNL     1      36.024 -18.343 -23.376  0.00  0.00    -0.077 C 
BRANCH   9  12
ATOM     10  O   UNL     1      35.993 -22.356 -18.609  0.00  0.00    -0.226 OA
ATOM     11  N   UNL     1      35.118 -20.567 -19.808  0.00  0.00    -0.246 N 
ATOM     12  C   UNL     1      35.631 -18.673 -21.938  0.00  0.00    -0.017 C 
ATOM     13  C   UNL     1      36.772 -19.403 -21.213  0.00  0.00    +0.020 C 
ATOM     14  C   UNL     1      34.351 -19.523 -21.904  0.00  0.00    +0.020 C 
ATOM     15  C   UNL     1      36.363 -19.799 -19.797  0.00  0.00    +0.097 C 
ATOM     16  C   UNL     1      33.985 -19.918 -20.475  0.00  0.00    +0.097 C 
ATOM     17  C   UNL     1      35.046 -21.808 -19.170  0.00  0.00    +0.405 C 
BRANCH  17  18
ATOM     18  O   UNL     1      33.794 -22.361 -19.231  0.00  0.00    -0.430 OA
ATOM     19  C   UNL     1      33.125 -22.551 -17.978  0.00  0.00    +0.257 C 
ENDBRANCH  17  18
ENDBRANCH   9  12
ENDBRANCH   2   9
ENDBRANCH   1   3
BRANCH   1  21
ATOM     20  O   UNL     1      33.457 -10.316 -24.043  0.00  0.00    -0.270 OA
ATOM     21  N   UNL     1      33.153 -12.404 -23.084  0.00  0.00    -0.301 N 
ATOM     22  C   UNL     1      33.098 -11.024 -23.105  0.00  0.00    +0.247 C 
ATOM     23  H   UNL     1      32.839 -12.881 -22.281  0.00  0.00    +0.150 HD
BRANCH  22  26
ATOM     24  N   UNL     1      32.269  -7.001 -20.654  0.00  0.00    -0.318 N 
ATOM     25  N   UNL     1      33.043  -7.976 -22.495  0.00  0.00    -0.318 N 
ATOM     26  C   UNL     1      32.580 -10.385 -21.869  0.00  0.00    +0.068 C 
ATOM     27  C   UNL     1      32.602  -8.999 -21.696  0.00  0.00    +0.063 C 
ATOM     28  C   UNL     1      32.045 -11.142 -20.822  0.00  0.00    +0.006 C 
ATOM     29  C   UNL     1      32.122  -8.365 -20.553  0.00  0.00    +0.059 C 
ATOM     30  C   UNL     1      32.823  -6.803 -21.829  0.00  0.00    +0.144 C 
ATOM     31  C   UNL     1      31.556 -10.533 -19.663  0.00  0.00    +0.001 C 
ATOM     32  C   UNL     1      31.588  -9.141 -19.511  0.00  0.00    +0.016 C 
ATOM     33  H   UNL     1      32.013  -6.320 -19.990  0.00  0.00    +0.148 HD
ATOM     34  H   UNL     1      33.446  -8.071 -23.388  0.00  0.00    +0.148 HD
BRANCH  30  35
ATOM     35  C   UNL     1      33.149  -5.455 -22.329  0.00  0.00    +0.037 C 
ATOM     36  C   UNL     1      33.778  -5.464 -23.744  0.00  0.00    +0.003 C 
ATOM     37  C   UNL     1      31.940  -4.488 -22.315  0.00  0.00    +0.003 C 
ENDBRANCH  30  35
ENDBRANCH  22  26
ENDBRANCH   1  21
TORSDOF 7
ENDMDL
MODEL 6
REMARK VINA RESULT:     -10.4      2.891     12.646
REMARK  Name = 11961293
REMARK  7 active torsions:
REMARK  status: ('A' for Active; 'I' for Inactive)
REMARK    1  A    between atoms: C_1  and  C_3
REMARK    2  A    between atoms: C_1  and  N_21
REMARK    3  A    between atoms: N_2  and  C_9
REMARK    4  A    between atoms: C_9  and  C_12
REMARK    5  A    between atoms: C_17  and  O_18
REMARK    6  A    between atoms: C_22  and  C_26
REMARK    7  A    between atoms: C_30  and  C_35
REMARK                            x       y       z     vdW  Elec       q    Type
REMARK                         _______ _______ _______ _____ _____    ______ ____
ROOT
ATOM      1  C   UNL     1      34.966 -21.853 -19.688  0.00  0.00    +0.089 C 
ENDROOT
BRANCH   1   3
ATOM      2  N   UNL     1      36.015 -18.326 -21.949  0.00  0.00    +0.387 N 
ATOM      3  C   UNL     1      35.291 -20.396 -20.003  0.00  0.00    +0.015 C 
ATOM      4  C   UNL     1      34.657 -18.380 -21.394  0.00  0.00    -0.077 C 
ATOM      5  C   UNL     1      37.004 -18.813 -20.978  0.00  0.00    -0.077 C 
ATOM      6  C   UNL     1      34.280 -19.810 -20.996  0.00  0.00    -0.021 C 
ATOM      7  C   UNL     1      36.709 -20.257 -20.567  0.00  0.00    -0.021 C 
ATOM      8  H   UNL     1      36.047 -18.938 -22.764  0.00  0.00    -0.080 HD
BRANCH   2   9
ATOM      9  C   UNL     1      36.341 -16.964 -22.372  0.00  0.00    -0.077 C 
BRANCH   9  12
ATOM     10  O   UNL     1      33.769 -13.199 -26.620  0.00  0.00    -0.226 OA
ATOM     11  N   UNL     1      33.858 -14.181 -24.515  0.00  0.00    -0.246 N 
ATOM     12  C   UNL     1      35.107 -16.256 -22.925  0.00  0.00    -0.017 C 
ATOM     13  C   UNL     1      35.083 -16.316 -24.460  0.00  0.00    +0.020 C 
ATOM     14  C   UNL     1      35.058 -14.794 -22.452  0.00  0.00    +0.020 C 
ATOM     15  C   UNL     1      33.890 -15.551 -25.026  0.00  0.00    +0.097 C 
ATOM     16  C   UNL     1      33.865 -14.055 -23.053  0.00  0.00    +0.097 C 
ATOM     17  C   UNL     1      33.776 -13.098 -25.394  0.00  0.00    +0.405 C 
BRANCH  17  18
ATOM     18  O   UNL     1      33.700 -11.895 -24.744  0.00  0.00    -0.430 OA
ATOM     19  C   UNL     1      34.488 -10.830 -25.291  0.00  0.00    +0.257 C 
ENDBRANCH  17  18
ENDBRANCH   9  12
ENDBRANCH   2   9
ENDBRANCH   1   3
BRANCH   1  21
ATOM     20  O   UNL     1      33.218 -22.755 -17.597  0.00  0.00    -0.270 OA
ATOM     21  N   UNL     1      35.344 -22.187 -18.323  0.00  0.00    -0.301 N 
ATOM     22  C   UNL     1      34.421 -22.614 -17.390  0.00  0.00    +0.247 C 
ATOM     23  H   UNL     1      36.289 -22.106 -18.057  0.00  0.00    +0.150 HD
BRANCH  22  26
ATOM     24  N   UNL     1      33.662 -24.312 -12.982  0.00  0.00    -0.318 N 
ATOM     25  N   UNL     1      32.870 -23.887 -15.015  0.00  0.00    -0.318 N 
ATOM     26  C   UNL     1      34.961 -22.890 -16.034  0.00  0.00    +0.068 C 
ATOM     27  C   UNL     1      34.175 -23.469 -15.035  0.00  0.00    +0.063 C 
ATOM     28  C   UNL     1      36.283 -22.585 -15.697  0.00  0.00    +0.006 C 
ATOM     29  C   UNL     1      34.649 -23.745 -13.756  0.00  0.00    +0.059 C 
ATOM     30  C   UNL     1      32.611 -24.383 -13.768  0.00  0.00    +0.144 C 
ATOM     31  C   UNL     1      36.786 -22.850 -14.421  0.00  0.00    +0.001 C 
ATOM     32  C   UNL     1      35.980 -23.431 -13.434  0.00  0.00    +0.016 C 
ATOM     33  H   UNL     1      33.729 -24.603 -12.044  0.00  0.00    +0.148 HD
ATOM     34  H   UNL     1      32.233 -23.839 -15.765  0.00  0.00    +0.148 HD
BRANCH  30  35
ATOM     35  C   UNL     1      31.324 -24.940 -13.313  0.00  0.00    +0.037 C 
ATOM     36  C   UNL     1      30.529 -23.977 -12.399  0.00  0.00    +0.003 C 
ATOM     37  C   UNL     1      30.414 -25.405 -14.477  0.00  0.00    +0.003 C 
ENDBRANCH  30  35
ENDBRANCH  22  26
ENDBRANCH   1  21
TORSDOF 7
ENDMDL
MODEL 7
REMARK VINA RESULT:     -10.1      2.377     11.963
REMARK  Name = 11961293
REMARK  7 active torsions:
REMARK  status: ('A' for Active; 'I' for Inactive)
REMARK    1  A    between atoms: C_1  and  C_3
REMARK    2  A    between atoms: C_1  and  N_21
REMARK    3  A    between atoms: N_2  and  C_9
REMARK    4  A    between atoms: C_9  and  C_12
REMARK    5  A    between atoms: C_17  and  O_18
REMARK    6  A    between atoms: C_22  and  C_26
REMARK    7  A    between atoms: C_30  and  C_35
REMARK                            x       y       z     vdW  Elec       q    Type
REMARK                         _______ _______ _______ _____ _____    ______ ____
ROOT
ATOM      1  C   UNL     1      36.107 -19.229 -21.283  0.00  0.00    +0.089 C 
ENDROOT
BRANCH   1   3
ATOM      2  N   UNL     1      35.011 -15.833 -23.717  0.00  0.00    +0.387 N 
ATOM      3  C   UNL     1      35.245 -18.159 -21.947  0.00  0.00    +0.015 C 
ATOM      4  C   UNL     1      34.518 -17.147 -24.148  0.00  0.00    -0.077 C 
ATOM      5  C   UNL     1      34.893 -15.675 -22.261  0.00  0.00    -0.077 C 
ATOM      6  C   UNL     1      35.298 -18.278 -23.474  0.00  0.00    -0.021 C 
ATOM      7  C   UNL     1      35.688 -16.755 -21.522  0.00  0.00    -0.021 C 
ATOM      8  H   UNL     1      35.999 -15.772 -23.961  0.00  0.00    -0.080 HD
BRANCH   2   9
ATOM      9  C   UNL     1      34.290 -14.764 -24.408  0.00  0.00    -0.077 C 
BRANCH   9  12
ATOM     10  O   UNL     1      31.253  -9.834 -22.104  0.00  0.00    -0.226 OA
ATOM     11  N   UNL     1      33.174 -10.918 -22.838  0.00  0.00    -0.246 N 
ATOM     12  C   UNL     1      34.305 -13.478 -23.585  0.00  0.00    -0.017 C 
ATOM     13  C   UNL     1      33.046 -13.374 -22.711  0.00  0.00    +0.020 C 
ATOM     14  C   UNL     1      34.420 -12.247 -24.498  0.00  0.00    +0.020 C 
ATOM     15  C   UNL     1      33.017 -12.059 -21.937  0.00  0.00    +0.097 C 
ATOM     16  C   UNL     1      34.367 -10.951 -23.691  0.00  0.00    +0.097 C 
ATOM     17  C   UNL     1      32.254  -9.866 -22.818  0.00  0.00    +0.405 C 
BRANCH  17  18
ATOM     18  O   UNL     1      32.584  -8.859 -23.685  0.00  0.00    -0.430 OA
ATOM     19  C   UNL     1      32.115  -7.550 -23.341  0.00  0.00    +0.257 C 
ENDBRANCH  17  18
ENDBRANCH   9  12
ENDBRANCH   2   9
ENDBRANCH   1   3
BRANCH   1  21
ATOM     20  O   UNL     1      37.098 -21.288 -19.545  0.00  0.00    -0.270 OA
ATOM     21  N   UNL     1      35.343 -19.972 -20.293  0.00  0.00    -0.301 N 
ATOM     22  C   UNL     1      35.918 -20.948 -19.503  0.00  0.00    +0.247 C 
ATOM     23  H   UNL     1      34.385 -19.773 -20.182  0.00  0.00    +0.150 HD
BRANCH  22  26
ATOM     24  N   UNL     1      35.325 -23.212 -15.331  0.00  0.00    -0.318 N 
ATOM     25  N   UNL     1      36.687 -22.189 -16.758  0.00  0.00    -0.318 N 
ATOM     26  C   UNL     1      34.999 -21.632 -18.559  0.00  0.00    +0.068 C 
ATOM     27  C   UNL     1      35.449 -22.155 -17.345  0.00  0.00    +0.063 C 
ATOM     28  C   UNL     1      33.637 -21.782 -18.842  0.00  0.00    +0.006 C 
ATOM     29  C   UNL     1      34.616 -22.799 -16.435  0.00  0.00    +0.059 C 
ATOM     30  C   UNL     1      36.563 -22.829 -15.557  0.00  0.00    +0.144 C 
ATOM     31  C   UNL     1      32.777 -22.424 -17.948  0.00  0.00    +0.001 C 
ATOM     32  C   UNL     1      33.251 -22.941 -16.736  0.00  0.00    +0.016 C 
ATOM     33  H   UNL     1      34.982 -23.689 -14.541  0.00  0.00    +0.148 HD
ATOM     34  H   UNL     1      37.518 -21.817 -17.134  0.00  0.00    +0.148 HD
BRANCH  30  35
ATOM     35  C   UNL     1      37.654 -23.083 -14.599  0.00  0.00    +0.037 C 
ATOM     36  C   UNL     1      37.198 -23.008 -13.121  0.00  0.00    +0.003 C 
ATOM     37  C   UNL     1      38.380 -24.429 -14.840  0.00  0.00    +0.003 C 
ENDBRANCH  30  35
ENDBRANCH  22  26
ENDBRANCH   1  21
TORSDOF 7
ENDMDL
MODEL 8
REMARK VINA RESULT:     -10.0      3.456     12.582
REMARK  Name = 11961293
REMARK  7 active torsions:
REMARK  status: ('A' for Active; 'I' for Inactive)
REMARK    1  A    between atoms: C_1  and  C_3
REMARK    2  A    between atoms: C_1  and  N_21
REMARK    3  A    between atoms: N_2  and  C_9
REMARK    4  A    between atoms: C_9  and  C_12
REMARK    5  A    between atoms: C_17  and  O_18
REMARK    6  A    between atoms: C_22  and  C_26
REMARK    7  A    between atoms: C_30  and  C_35
REMARK                            x       y       z     vdW  Elec       q    Type
REMARK                         _______ _______ _______ _____ _____    ______ ____
ROOT
ATOM      1  C   UNL     1      31.814 -11.798 -20.345  0.00  0.00    +0.089 C 
ENDROOT
BRANCH   1   3
ATOM      2  N   UNL     1      32.849  -7.733 -21.376  0.00  0.00    +0.387 N 
ATOM      3  C   UNL     1      31.651 -10.325 -20.708  0.00  0.00    +0.015 C 
ATOM      4  C   UNL     1      32.186  -8.534 -22.413  0.00  0.00    -0.077 C 
ATOM      5  C   UNL     1      32.229  -7.949 -20.062  0.00  0.00    -0.077 C 
ATOM      6  C   UNL     1      32.255 -10.027 -22.086  0.00  0.00    -0.021 C 
ATOM      7  C   UNL     1      32.301  -9.423 -19.654  0.00  0.00    -0.021 C 
ATOM      8  H   UNL     1      33.821  -8.035 -21.319  0.00  0.00    -0.080 HD
BRANCH   2   9
ATOM      9  C   UNL     1      32.819  -6.313 -21.728  0.00  0.00    -0.077 C 
BRANCH   9  12
ATOM     10  O   UNL     1      35.213  -3.153 -26.536  0.00  0.00    -0.226 OA
ATOM     11  N   UNL     1      33.598  -4.504 -25.552  0.00  0.00    -0.246 N 
ATOM     12  C   UNL     1      32.961  -6.124 -23.237  0.00  0.00    -0.017 C 
ATOM     13  C   UNL     1      34.412  -5.781 -23.610  0.00  0.00    +0.020 C 
ATOM     14  C   UNL     1      32.010  -5.026 -23.741  0.00  0.00    +0.020 C 
ATOM     15  C   UNL     1      34.550  -5.521 -25.108  0.00  0.00    +0.097 C 
ATOM     16  C   UNL     1      32.192  -4.779 -25.237  0.00  0.00    +0.097 C 
ATOM     17  C   UNL     1      34.036  -3.387 -26.269  0.00  0.00    +0.405 C 
BRANCH  17  18
ATOM     18  O   UNL     1      33.006  -2.568 -26.652  0.00  0.00    -0.430 OA
ATOM     19  C   UNL     1      32.783  -2.452 -28.062  0.00  0.00    +0.257 C 
ENDBRANCH  17  18
ENDBRANCH   9  12
ENDBRANCH   2   9
ENDBRANCH   1   3
BRANCH   1  21
ATOM     20  O   UNL     1      34.134 -13.488 -20.410  0.00  0.00    -0.270 OA
ATOM     21  N   UNL     1      32.299 -12.564 -21.483  0.00  0.00    -0.301 N 
ATOM     22  C   UNL     1      33.431 -13.350 -21.409  0.00  0.00    +0.247 C 
ATOM     23  H   UNL     1      31.804 -12.520 -22.333  0.00  0.00    +0.150 HD
BRANCH  22  26
ATOM     24  N   UNL     1      35.678 -17.021 -23.498  0.00  0.00    -0.318 N 
ATOM     25  N   UNL     1      35.106 -15.960 -21.631  0.00  0.00    -0.318 N 
ATOM     26  C   UNL     1      33.810 -14.048 -22.664  0.00  0.00    +0.068 C 
ATOM     27  C   UNL     1      34.567 -15.221 -22.651  0.00  0.00    +0.063 C 
ATOM     28  C   UNL     1      33.421 -13.564 -23.917  0.00  0.00    +0.006 C 
ATOM     29  C   UNL     1      34.937 -15.904 -23.807  0.00  0.00    +0.059 C 
ATOM     30  C   UNL     1      35.760 -17.025 -22.186  0.00  0.00    +0.144 C 
ATOM     31  C   UNL     1      33.777 -14.227 -25.094  0.00  0.00    +0.001 C 
ATOM     32  C   UNL     1      34.538 -15.402 -25.057  0.00  0.00    +0.016 C 
ATOM     33  H   UNL     1      36.063 -17.677 -24.123  0.00  0.00    +0.148 HD
ATOM     34  H   UNL     1      35.035 -15.760 -20.669  0.00  0.00    +0.148 HD
BRANCH  30  35
ATOM     35  C   UNL     1      36.481 -18.075 -21.444  0.00  0.00    +0.037 C 
ATOM     36  C   UNL     1      35.627 -19.340 -21.190  0.00  0.00    +0.003 C 
ATOM     37  C   UNL     1      37.816 -18.487 -22.111  0.00  0.00    +0.003 C 
ENDBRANCH  30  35
ENDBRANCH  22  26
ENDBRANCH   1  21
TORSDOF 7
ENDMDL
MODEL 9
REMARK VINA RESULT:     -10.0      2.198     11.881
REMARK  Name = 11961293
REMARK  7 active torsions:
REMARK  status: ('A' for Active; 'I' for Inactive)
REMARK    1  A    between atoms: C_1  and  C_3
REMARK    2  A    between atoms: C_1  and  N_21
REMARK    3  A    between atoms: N_2  and  C_9
REMARK    4  A    between atoms: C_9  and  C_12
REMARK    5  A    between atoms: C_17  and  O_18
REMARK    6  A    between atoms: C_22  and  C_26
REMARK    7  A    between atoms: C_30  and  C_35
REMARK                            x       y       z     vdW  Elec       q    Type
REMARK                         _______ _______ _______ _____ _____    ______ ____
ROOT
ATOM      1  C   UNL     1      34.678 -20.133 -21.561  0.00  0.00    +0.089 C 
ENDROOT
BRANCH   1   3
ATOM      2  N   UNL     1      34.800 -15.988 -22.771  0.00  0.00    +0.387 N 
ATOM      3  C   UNL     1      35.229 -18.799 -22.057  0.00  0.00    +0.015 C 
ATOM      4  C   UNL     1      35.503 -16.340 -21.531  0.00  0.00    -0.077 C 
ATOM      5  C   UNL     1      35.033 -16.994 -23.816  0.00  0.00    -0.077 C 
ATOM      6  C   UNL     1      35.044 -17.701 -21.003  0.00  0.00    -0.021 C 
ATOM      7  C   UNL     1      34.556 -18.377 -23.367  0.00  0.00    -0.021 C 
ATOM      8  H   UNL     1      33.800 -15.968 -22.572  0.00  0.00    -0.080 HD
BRANCH   2   9
ATOM      9  C   UNL     1      35.212 -14.663 -23.235  0.00  0.00    -0.077 C 
BRANCH   9  12
ATOM     10  O   UNL     1      32.876  -8.952 -22.363  0.00  0.00    -0.226 OA
ATOM     11  N   UNL     1      32.682 -11.264 -22.492  0.00  0.00    -0.246 N 
ATOM     12  C   UNL     1      34.021 -13.709 -23.282  0.00  0.00    -0.017 C 
ATOM     13  C   UNL     1      34.438 -12.340 -23.842  0.00  0.00    +0.020 C 
ATOM     14  C   UNL     1      33.399 -13.543 -21.886  0.00  0.00    +0.020 C 
ATOM     15  C   UNL     1      33.271 -11.357 -23.827  0.00  0.00    +0.097 C 
ATOM     16  C   UNL     1      32.249 -12.538 -21.907  0.00  0.00    +0.097 C 
ATOM     17  C   UNL     1      32.516 -10.022 -21.875  0.00  0.00    +0.405 C 
BRANCH  17  18
ATOM     18  O   UNL     1      31.900 -10.116 -20.655  0.00  0.00    -0.430 OA
ATOM     19  C   UNL     1      32.166  -9.055 -19.730  0.00  0.00    +0.257 C 
ENDBRANCH  17  18
ENDBRANCH   9  12
ENDBRANCH   2   9
ENDBRANCH   1   3
BRANCH   1  21
ATOM     20  O   UNL     1      33.746 -22.138 -19.730  0.00  0.00    -0.270 OA
ATOM     21  N   UNL     1      35.302 -20.520 -20.306  0.00  0.00    -0.301 N 
ATOM     22  C   UNL     1      34.770 -21.502 -19.494  0.00  0.00    +0.247 C 
ATOM     23  H   UNL     1      36.131 -20.067 -20.026  0.00  0.00    +0.150 HD
BRANCH  22  26
ATOM     24  N   UNL     1      34.698 -23.153 -15.004  0.00  0.00    -0.318 N 
ATOM     25  N   UNL     1      33.604 -22.751 -16.896  0.00  0.00    -0.318 N 
ATOM     26  C   UNL     1      35.512 -21.762 -18.234  0.00  0.00    +0.068 C 
ATOM     27  C   UNL     1      34.890 -22.331 -17.121  0.00  0.00    +0.063 C 
ATOM     28  C   UNL     1      36.870 -21.453 -18.106  0.00  0.00    +0.006 C 
ATOM     29  C   UNL     1      35.554 -22.593 -15.925  0.00  0.00    +0.059 C 
ATOM     30  C   UNL     1      33.539 -23.233 -15.619  0.00  0.00    +0.144 C 
ATOM     31  C   UNL     1      37.562 -21.704 -16.919  0.00  0.00    +0.001 C 
ATOM     32  C   UNL     1      36.917 -22.275 -15.815  0.00  0.00    +0.016 C 
ATOM     33  H   UNL     1      34.908 -23.433 -14.084  0.00  0.00    +0.148 HD
ATOM     34  H   UNL     1      32.860 -22.711 -17.541  0.00  0.00    +0.148 HD
BRANCH  30  35
ATOM     35  C   UNL     1      32.338 -23.786 -14.967  0.00  0.00    +0.037 C 
ATOM     36  C   UNL     1      32.648 -24.529 -13.645  0.00  0.00    +0.003 C 
ATOM     37  C   UNL     1      31.238 -22.727 -14.711  0.00  0.00    +0.003 C 
ENDBRANCH  30  35
ENDBRANCH  22  26
ENDBRANCH   1  21
TORSDOF 7
ENDMDL
