MODEL 1
REMARK VINA RESULT:     -11.7      0.000      0.000
REMARK  Name = 118598754
REMARK  1 active torsions:
REMARK  status: ('A' for Active; 'I' for Inactive)
REMARK    1  A    between atoms: C_15  and  N_19
REMARK                            x       y       z     vdW  Elec       q    Type
REMARK                         _______ _______ _______ _____ _____    ______ ____
ROOT
ATOM      1  O   UNL     1      32.237 -24.444 -12.766  0.00  0.00    -0.269 OA
ATOM      2  O   UNL     1      36.798 -23.087 -16.146  0.00  0.00    -0.268 OA
ATOM      3  N   UNL     1      34.982 -23.628 -14.803  0.00  0.00    -0.238 N 
ATOM      4  N   UNL     1      34.576 -24.446 -12.695  0.00  0.00    -0.288 N 
ATOM      5  C   UNL     1      35.681 -24.093 -13.578  0.00  0.00    +0.124 C 
ATOM      6  C   UNL     1      36.541 -25.340 -13.862  0.00  0.00    +0.038 C 
ATOM      7  C   UNL     1      36.516 -22.963 -12.944  0.00  0.00    +0.038 C 
ATOM      8  C   UNL     1      37.316 -23.437 -11.729  0.00  0.00    +0.003 C 
ATOM      9  C   UNL     1      37.341 -25.792 -12.640  0.00  0.00    +0.003 C 
ATOM     10  C   UNL     1      38.173 -24.654 -12.058  0.00  0.00    +0.000 C 
ATOM     11  C   UNL     1      33.611 -23.710 -14.627  0.00  0.00    +0.105 C 
ATOM     12  C   UNL     1      33.327 -24.238 -13.267  0.00  0.00    +0.260 C 
ATOM     13  C   UNL     1      35.584 -23.171 -15.968  0.00  0.00    +0.267 C 
ATOM     14  C   UNL     1      32.751 -23.349 -15.591  0.00  0.00    -0.002 C 
ATOM     15  C   UNL     1      34.635 -22.760 -17.063  0.00  0.00    +0.104 C 
ATOM     16  C   UNL     1      33.313 -22.861 -16.839  0.00  0.00    +0.016 C 
ATOM     17  C   UNL     1      31.254 -23.388 -15.530  0.00  0.00    +0.033 C 
ATOM     18  H   UNL     1      34.701 -24.797 -11.783  0.00  0.00    +0.151 HD
ENDROOT
BRANCH  15  19
ATOM     19  N   UNL     1      35.200 -22.307 -18.220  0.00  0.00    -0.298 N 
ATOM     20  N   UNL     1      33.331 -21.360 -19.319  0.00  0.00    -0.233 NA
ATOM     21  N   UNL     1      33.667 -19.653 -20.986  0.00  0.00    -0.234 NA
ATOM     22  C   UNL     1      34.669 -21.411 -19.154  0.00  0.00    +0.113 C 
ATOM     23  C   UNL     1      35.559 -20.627 -19.859  0.00  0.00    +0.121 C 
ATOM     24  C   UNL     1      34.995 -19.757 -20.771  0.00  0.00    +0.107 C 
ATOM     25  C   UNL     1      32.904 -20.472 -20.237  0.00  0.00    +0.252 C 
ATOM     26  H   UNL     1      36.098 -22.656 -18.422  0.00  0.00    +0.153 HD
ATOM     27  N   UNL     1      35.876 -18.936 -21.517  0.00  0.00    -0.346 N 
ATOM     28  H   UNL     1      35.516 -18.300 -22.178  0.00  0.00    +0.143 HD
ATOM     29  H   UNL     1      36.848 -18.998 -21.374  0.00  0.00    +0.143 HD
ENDBRANCH  15  19
TORSDOF 1
ENDMDL
MODEL 2
REMARK VINA RESULT:     -10.2      2.735      6.621
REMARK  Name = 118598754
REMARK  1 active torsions:
REMARK  status: ('A' for Active; 'I' for Inactive)
REMARK    1  A    between atoms: C_15  and  N_19
REMARK                            x       y       z     vdW  Elec       q    Type
REMARK                         _______ _______ _______ _____ _____    ______ ____
ROOT
ATOM      1  O   UNL     1      32.598 -21.419 -18.950  0.00  0.00    -0.269 OA
ATOM      2  O   UNL     1      34.334 -24.039 -14.031  0.00  0.00    -0.268 OA
ATOM      3  N   UNL     1      33.644 -22.998 -15.990  0.00  0.00    -0.238 N 
ATOM      4  N   UNL     1      31.685 -22.457 -17.061  0.00  0.00    -0.288 N 
ATOM      5  C   UNL     1      32.170 -23.103 -15.847  0.00  0.00    +0.124 C 
ATOM      6  C   UNL     1      31.711 -24.574 -15.820  0.00  0.00    +0.038 C 
ATOM      7  C   UNL     1      31.669 -22.332 -14.610  0.00  0.00    +0.038 C 
ATOM      8  C   UNL     1      30.163 -22.494 -14.388  0.00  0.00    +0.003 C 
ATOM      9  C   UNL     1      30.207 -24.716 -15.588  0.00  0.00    +0.003 C 
ATOM     10  C   UNL     1      29.755 -23.962 -14.341  0.00  0.00    +0.000 C 
ATOM     11  C   UNL     1      33.962 -22.353 -17.173  0.00  0.00    +0.105 C 
ATOM     12  C   UNL     1      32.706 -21.994 -17.882  0.00  0.00    +0.260 C 
ATOM     13  C   UNL     1      34.591 -23.466 -15.088  0.00  0.00    +0.267 C 
ATOM     14  C   UNL     1      35.233 -22.132 -17.540  0.00  0.00    -0.002 C 
ATOM     15  C   UNL     1      36.026 -23.228 -15.482  0.00  0.00    +0.104 C 
ATOM     16  C   UNL     1      36.277 -22.597 -16.642  0.00  0.00    +0.016 C 
ATOM     17  C   UNL     1      35.711 -21.450 -18.786  0.00  0.00    +0.033 C 
ATOM     18  H   UNL     1      30.730 -22.357 -17.279  0.00  0.00    +0.151 HD
ENDROOT
BRANCH  15  19
ATOM     19  N   UNL     1      36.978 -23.679 -14.614  0.00  0.00    -0.298 N 
ATOM     20  N   UNL     1      37.147 -25.954 -15.242  0.00  0.00    -0.233 NA
ATOM     21  N   UNL     1      39.168 -27.176 -14.763  0.00  0.00    -0.234 NA
ATOM     22  C   UNL     1      37.711 -24.869 -14.670  0.00  0.00    +0.113 C 
ATOM     23  C   UNL     1      38.980 -24.861 -14.130  0.00  0.00    +0.121 C 
ATOM     24  C   UNL     1      39.670 -26.054 -14.205  0.00  0.00    +0.107 C 
ATOM     25  C   UNL     1      37.920 -27.057 -15.255  0.00  0.00    +0.252 C 
ATOM     26  H   UNL     1      37.174 -23.090 -13.850  0.00  0.00    +0.153 HD
ATOM     27  N   UNL     1      40.976 -26.087 -13.658  0.00  0.00    -0.346 N 
ATOM     28  H   UNL     1      41.503 -26.918 -13.691  0.00  0.00    +0.143 HD
ATOM     29  H   UNL     1      41.358 -25.278 -13.246  0.00  0.00    +0.143 HD
ENDBRANCH  15  19
TORSDOF 1
ENDMDL
MODEL 3
REMARK VINA RESULT:      -9.9      2.723      4.960
REMARK  Name = 118598754
REMARK  1 active torsions:
REMARK  status: ('A' for Active; 'I' for Inactive)
REMARK    1  A    between atoms: C_15  and  N_19
REMARK                            x       y       z     vdW  Elec       q    Type
REMARK                         _______ _______ _______ _____ _____    ______ ____
ROOT
ATOM      1  O   UNL     1      38.445 -21.933 -16.409  0.00  0.00    -0.269 OA
ATOM      2  O   UNL     1      33.657 -24.620 -14.429  0.00  0.00    -0.268 OA
ATOM      3  N   UNL     1      35.561 -23.549 -15.217  0.00  0.00    -0.238 N 
ATOM      4  N   UNL     1      37.763 -23.275 -14.618  0.00  0.00    -0.288 N 
ATOM      5  C   UNL     1      36.539 -23.928 -14.166  0.00  0.00    +0.124 C 
ATOM      6  C   UNL     1      36.128 -23.369 -12.789  0.00  0.00    +0.038 C 
ATOM      7  C   UNL     1      36.748 -25.454 -14.117  0.00  0.00    +0.038 C 
ATOM      8  C   UNL     1      37.686 -25.881 -12.985  0.00  0.00    +0.003 C 
ATOM      9  C   UNL     1      37.070 -23.815 -11.670  0.00  0.00    +0.003 C 
ATOM     10  C   UNL     1      37.230 -25.331 -11.638  0.00  0.00    +0.000 C 
ATOM     11  C   UNL     1      36.175 -22.758 -16.174  0.00  0.00    +0.105 C 
ATOM     12  C   UNL     1      37.602 -22.569 -15.803  0.00  0.00    +0.260 C 
ATOM     13  C   UNL     1      34.223 -23.918 -15.264  0.00  0.00    +0.267 C 
ATOM     14  C   UNL     1      35.505 -22.281 -17.233  0.00  0.00    -0.002 C 
ATOM     15  C   UNL     1      33.453 -23.391 -16.448  0.00  0.00    +0.104 C 
ATOM     16  C   UNL     1      34.099 -22.627 -17.346  0.00  0.00    +0.016 C 
ATOM     17  C   UNL     1      36.046 -21.419 -18.334  0.00  0.00    +0.033 C 
ATOM     18  H   UNL     1      38.618 -23.330 -14.133  0.00  0.00    +0.151 HD
ENDROOT
BRANCH  15  19
ATOM     19  N   UNL     1      32.135 -23.738 -16.518  0.00  0.00    -0.298 N 
ATOM     20  N   UNL     1      31.220 -22.472 -14.741  0.00  0.00    -0.233 NA
ATOM     21  N   UNL     1      28.878 -21.903 -14.766  0.00  0.00    -0.234 NA
ATOM     22  C   UNL     1      31.038 -23.112 -15.916  0.00  0.00    +0.113 C 
ATOM     23  C   UNL     1      29.824 -23.191 -16.566  0.00  0.00    +0.121 C 
ATOM     24  C   UNL     1      28.768 -22.561 -15.939  0.00  0.00    +0.107 C 
ATOM     25  C   UNL     1      30.114 -21.897 -14.230  0.00  0.00    +0.252 C 
ATOM     26  H   UNL     1      31.929 -24.530 -17.065  0.00  0.00    +0.153 HD
ATOM     27  N   UNL     1      27.504 -22.621 -16.574  0.00  0.00    -0.346 N 
ATOM     28  H   UNL     1      26.724 -22.185 -16.161  0.00  0.00    +0.143 HD
ATOM     29  H   UNL     1      27.405 -23.098 -17.430  0.00  0.00    +0.143 HD
ENDBRANCH  15  19
TORSDOF 1
ENDMDL
MODEL 4
REMARK VINA RESULT:      -9.9     10.968     15.288
REMARK  Name = 118598754
REMARK  1 active torsions:
REMARK  status: ('A' for Active; 'I' for Inactive)
REMARK    1  A    between atoms: C_15  and  N_19
REMARK                            x       y       z     vdW  Elec       q    Type
REMARK                         _______ _______ _______ _____ _____    ______ ____
ROOT
ATOM      1  O   UNL     1      31.661  -8.132 -19.572  0.00  0.00    -0.269 OA
ATOM      2  O   UNL     1      33.631 -10.013 -24.734  0.00  0.00    -0.268 OA
ATOM      3  N   UNL     1      32.848  -9.266 -22.678  0.00  0.00    -0.238 N 
ATOM      4  N   UNL     1      32.316  -7.281 -21.650  0.00  0.00    -0.288 N 
ATOM      5  C   UNL     1      32.806  -7.801 -22.921  0.00  0.00    +0.124 C 
ATOM      6  C   UNL     1      34.212  -7.239 -23.208  0.00  0.00    +0.038 C 
ATOM      7  C   UNL     1      31.816  -7.447 -24.048  0.00  0.00    +0.038 C 
ATOM      8  C   UNL     1      31.815  -5.953 -24.379  0.00  0.00    +0.003 C 
ATOM      9  C   UNL     1      34.191  -5.748 -23.547  0.00  0.00    +0.003 C 
ATOM     10  C   UNL     1      33.219  -5.442 -24.683  0.00  0.00    +0.000 C 
ATOM     11  C   UNL     1      32.421  -9.546 -21.391  0.00  0.00    +0.105 C 
ATOM     12  C   UNL     1      32.072  -8.273 -20.709  0.00  0.00    +0.260 C 
ATOM     13  C   UNL     1      33.251 -10.237 -23.586  0.00  0.00    +0.267 C 
ATOM     14  C   UNL     1      32.367 -10.801 -20.921  0.00  0.00    -0.002 C 
ATOM     15  C   UNL     1      33.196 -11.654 -23.077  0.00  0.00    +0.104 C 
ATOM     16  C   UNL     1      32.774 -11.869 -21.819  0.00  0.00    +0.016 C 
ATOM     17  C   UNL     1      31.927 -11.239 -19.557  0.00  0.00    +0.033 C 
ATOM     18  H   UNL     1      32.171  -6.323 -21.476  0.00  0.00    +0.151 HD
ENDROOT
BRANCH  15  19
ATOM     19  N   UNL     1      33.587 -12.629 -23.949  0.00  0.00    -0.298 N 
ATOM     20  N   UNL     1      34.783 -14.086 -22.519  0.00  0.00    -0.233 NA
ATOM     21  N   UNL     1      35.044 -16.404 -23.128  0.00  0.00    -0.234 NA
ATOM     22  C   UNL     1      34.085 -13.904 -23.660  0.00  0.00    +0.113 C 
ATOM     23  C   UNL     1      33.830 -14.907 -24.572  0.00  0.00    +0.121 C 
ATOM     24  C   UNL     1      34.339 -16.150 -24.250  0.00  0.00    +0.107 C 
ATOM     25  C   UNL     1      35.226 -15.343 -22.319  0.00  0.00    +0.252 C 
ATOM     26  H   UNL     1      33.506 -12.405 -24.904  0.00  0.00    +0.153 HD
ATOM     27  N   UNL     1      34.101 -17.207 -25.163  0.00  0.00    -0.346 N 
ATOM     28  H   UNL     1      34.445 -18.109 -24.972  0.00  0.00    +0.143 HD
ATOM     29  H   UNL     1      33.588 -17.040 -25.987  0.00  0.00    +0.143 HD
ENDBRANCH  15  19
TORSDOF 1
ENDMDL
MODEL 5
REMARK VINA RESULT:      -9.4     11.950     16.270
REMARK  Name = 118598754
REMARK  1 active torsions:
REMARK  status: ('A' for Active; 'I' for Inactive)
REMARK    1  A    between atoms: C_15  and  N_19
REMARK                            x       y       z     vdW  Elec       q    Type
REMARK                         _______ _______ _______ _____ _____    ______ ____
ROOT
ATOM      1  O   UNL     1      35.531  -5.950 -24.846  0.00  0.00    -0.269 OA
ATOM      2  O   UNL     1      32.500 -10.065 -22.026  0.00  0.00    -0.268 OA
ATOM      3  N   UNL     1      33.706  -8.428 -23.150  0.00  0.00    -0.238 N 
ATOM      4  N   UNL     1      33.842  -6.136 -23.238  0.00  0.00    -0.288 N 
ATOM      5  C   UNL     1      33.112  -7.202 -22.561  0.00  0.00    +0.124 C 
ATOM      6  C   UNL     1      31.610  -7.093 -22.886  0.00  0.00    +0.038 C 
ATOM      7  C   UNL     1      33.368  -7.127 -21.043  0.00  0.00    +0.038 C 
ATOM      8  C   UNL     1      32.694  -5.918 -20.393  0.00  0.00    +0.003 C 
ATOM      9  C   UNL     1      30.950  -5.885 -22.220  0.00  0.00    +0.003 C 
ATOM     10  C   UNL     1      31.205  -5.861 -20.716  0.00  0.00    +0.000 C 
ATOM     11  C   UNL     1      34.681  -8.088 -24.074  0.00  0.00    +0.105 C 
ATOM     12  C   UNL     1      34.784  -6.606 -24.145  0.00  0.00    +0.260 C 
ATOM     13  C   UNL     1      33.359  -9.738 -22.843  0.00  0.00    +0.267 C 
ATOM     14  C   UNL     1      35.370  -9.017 -24.751  0.00  0.00    -0.002 C 
ATOM     15  C   UNL     1      34.124 -10.798 -23.594  0.00  0.00    +0.104 C 
ATOM     16  C   UNL     1      35.058 -10.410 -24.479  0.00  0.00    +0.016 C 
ATOM     17  C   UNL     1      36.444  -8.785 -25.771  0.00  0.00    +0.033 C 
ATOM     18  H   UNL     1      33.685  -5.179 -23.070  0.00  0.00    +0.151 HD
ENDROOT
BRANCH  15  19
ATOM     19  N   UNL     1      33.802 -12.093 -23.311  0.00  0.00    -0.298 N 
ATOM     20  N   UNL     1      33.373 -12.953 -25.474  0.00  0.00    -0.233 NA
ATOM     21  N   UNL     1      33.572 -15.321 -25.875  0.00  0.00    -0.234 NA
ATOM     22  C   UNL     1      33.721 -13.180 -24.189  0.00  0.00    +0.113 C 
ATOM     23  C   UNL     1      34.005 -14.431 -23.681  0.00  0.00    +0.121 C 
ATOM     24  C   UNL     1      33.913 -15.475 -24.579  0.00  0.00    +0.107 C 
ATOM     25  C   UNL     1      33.319 -14.053 -26.250  0.00  0.00    +0.252 C 
ATOM     26  H   UNL     1      33.602 -12.289 -22.368  0.00  0.00    +0.153 HD
ATOM     27  N   UNL     1      34.194 -16.776 -24.095  0.00  0.00    -0.346 N 
ATOM     28  H   UNL     1      34.141 -17.550 -24.702  0.00  0.00    +0.143 HD
ATOM     29  H   UNL     1      34.445 -16.908 -23.152  0.00  0.00    +0.143 HD
ENDBRANCH  15  19
TORSDOF 1
ENDMDL
MODEL 6
REMARK VINA RESULT:      -9.1      4.020      5.500
REMARK  Name = 118598754
REMARK  1 active torsions:
REMARK  status: ('A' for Active; 'I' for Inactive)
REMARK    1  A    between atoms: C_15  and  N_19
REMARK                            x       y       z     vdW  Elec       q    Type
REMARK                         _______ _______ _______ _____ _____    ______ ____
ROOT
ATOM      1  O   UNL     1      38.303 -25.410 -10.497  0.00  0.00    -0.269 OA
ATOM      2  O   UNL     1      35.928 -24.498 -15.750  0.00  0.00    -0.268 OA
ATOM      3  N   UNL     1      36.871 -24.862 -13.659  0.00  0.00    -0.238 N 
ATOM      4  N   UNL     1      38.823 -25.678 -12.762  0.00  0.00    -0.288 N 
ATOM      5  C   UNL     1      38.186 -25.432 -14.050  0.00  0.00    +0.124 C 
ATOM      6  C   UNL     1      38.017 -26.760 -14.813  0.00  0.00    +0.038 C 
ATOM      7  C   UNL     1      39.018 -24.418 -14.860  0.00  0.00    +0.038 C 
ATOM      8  C   UNL     1      40.342 -25.006 -15.351  0.00  0.00    +0.003 C 
ATOM      9  C   UNL     1      39.349 -27.328 -15.305  0.00  0.00    +0.003 C 
ATOM     10  C   UNL     1      40.131 -26.304 -16.122  0.00  0.00    +0.000 C 
ATOM     11  C   UNL     1      36.775 -24.794 -12.279  0.00  0.00    +0.105 C 
ATOM     12  C   UNL     1      38.031 -25.318 -11.680  0.00  0.00    +0.260 C 
ATOM     13  C   UNL     1      35.865 -24.450 -14.523  0.00  0.00    +0.267 C 
ATOM     14  C   UNL     1      35.682 -24.315 -11.668  0.00  0.00    -0.002 C 
ATOM     15  C   UNL     1      34.627 -23.909 -13.856  0.00  0.00    +0.104 C 
ATOM     16  C   UNL     1      34.588 -23.865 -12.513  0.00  0.00    +0.016 C 
ATOM     17  C   UNL     1      35.451 -24.187 -10.193  0.00  0.00    +0.033 C 
ATOM     18  H   UNL     1      39.725 -26.062 -12.668  0.00  0.00    +0.151 HD
ENDROOT
BRANCH  15  19
ATOM     19  N   UNL     1      33.622 -23.496 -14.682  0.00  0.00    -0.298 N 
ATOM     20  N   UNL     1      31.927 -25.070 -14.182  0.00  0.00    -0.233 NA
ATOM     21  N   UNL     1      29.620 -24.507 -14.595  0.00  0.00    -0.234 NA
ATOM     22  C   UNL     1      32.269 -23.850 -14.647  0.00  0.00    +0.113 C 
ATOM     23  C   UNL     1      31.357 -22.918 -15.098  0.00  0.00    +0.121 C 
ATOM     24  C   UNL     1      30.033 -23.305 -15.048  0.00  0.00    +0.107 C 
ATOM     25  C   UNL     1      30.605 -25.328 -14.183  0.00  0.00    +0.252 C 
ATOM     26  H   UNL     1      33.884 -22.868 -15.394  0.00  0.00    +0.153 HD
ATOM     27  N   UNL     1      29.065 -22.377 -15.505  0.00  0.00    -0.346 N 
ATOM     28  H   UNL     1      28.109 -22.612 -15.486  0.00  0.00    +0.143 HD
ATOM     29  H   UNL     1      29.348 -21.495 -15.840  0.00  0.00    +0.143 HD
ENDBRANCH  15  19
TORSDOF 1
ENDMDL
MODEL 7
REMARK VINA RESULT:      -9.0      1.776      4.356
REMARK  Name = 118598754
REMARK  1 active torsions:
REMARK  status: ('A' for Active; 'I' for Inactive)
REMARK    1  A    between atoms: C_15  and  N_19
REMARK                            x       y       z     vdW  Elec       q    Type
REMARK                         _______ _______ _______ _____ _____    ______ ____
ROOT
ATOM      1  O   UNL     1      33.425 -23.743 -12.347  0.00  0.00    -0.269 OA
ATOM      2  O   UNL     1      32.429 -22.753 -18.013  0.00  0.00    -0.268 OA
ATOM      3  N   UNL     1      32.826 -23.145 -15.758  0.00  0.00    -0.238 N 
ATOM      4  N   UNL     1      31.642 -23.672 -13.861  0.00  0.00    -0.288 N 
ATOM      5  C   UNL     1      31.446 -23.416 -15.283  0.00  0.00    +0.124 C 
ATOM      6  C   UNL     1      30.536 -22.186 -15.472  0.00  0.00    +0.038 C 
ATOM      7  C   UNL     1      30.853 -24.666 -15.962  0.00  0.00    +0.038 C 
ATOM      8  C   UNL     1      29.400 -24.920 -15.556  0.00  0.00    +0.003 C 
ATOM      9  C   UNL     1      29.086 -22.462 -15.071  0.00  0.00    +0.003 C 
ATOM     10  C   UNL     1      28.528 -23.690 -15.783  0.00  0.00    +0.000 C 
ATOM     11  C   UNL     1      33.719 -23.240 -14.703  0.00  0.00    +0.105 C 
ATOM     12  C   UNL     1      32.970 -23.580 -13.465  0.00  0.00    +0.260 C 
ATOM     13  C   UNL     1      33.201 -22.840 -17.060  0.00  0.00    +0.267 C 
ATOM     14  C   UNL     1      35.034 -23.038 -14.868  0.00  0.00    -0.002 C 
ATOM     15  C   UNL     1      34.676 -22.610 -17.266  0.00  0.00    +0.104 C 
ATOM     16  C   UNL     1      35.497 -22.713 -16.207  0.00  0.00    +0.016 C 
ATOM     17  C   UNL     1      36.101 -23.109 -13.818  0.00  0.00    +0.033 C 
ATOM     18  H   UNL     1      30.907 -23.888 -13.242  0.00  0.00    +0.151 HD
ENDROOT
BRANCH  15  19
ATOM     19  N   UNL     1      35.072 -22.307 -18.537  0.00  0.00    -0.298 N 
ATOM     20  N   UNL     1      33.268 -20.972 -19.287  0.00  0.00    -0.233 NA
ATOM     21  N   UNL     1      33.614 -19.399 -21.080  0.00  0.00    -0.234 NA
ATOM     22  C   UNL     1      34.567 -21.323 -19.394  0.00  0.00    +0.113 C 
ATOM     23  C   UNL     1      35.439 -20.766 -20.306  0.00  0.00    +0.121 C 
ATOM     24  C   UNL     1      34.902 -19.799 -21.133  0.00  0.00    +0.107 C 
ATOM     25  C   UNL     1      32.864 -20.018 -20.148  0.00  0.00    +0.252 C 
ATOM     26  H   UNL     1      35.809 -22.852 -18.897  0.00  0.00    +0.153 HD
ATOM     27  N   UNL     1      35.765 -19.205 -22.086  0.00  0.00    -0.346 N 
ATOM     28  H   UNL     1      35.423 -18.510 -22.695  0.00  0.00    +0.143 HD
ATOM     29  H   UNL     1      36.708 -19.484 -22.139  0.00  0.00    +0.143 HD
ENDBRANCH  15  19
TORSDOF 1
ENDMDL
MODEL 8
REMARK VINA RESULT:      -8.9      2.799      7.464
REMARK  Name = 118598754
REMARK  1 active torsions:
REMARK  status: ('A' for Active; 'I' for Inactive)
REMARK    1  A    between atoms: C_15  and  N_19
REMARK                            x       y       z     vdW  Elec       q    Type
REMARK                         _______ _______ _______ _____ _____    ______ ____
ROOT
ATOM      1  O   UNL     1      32.630 -21.594 -18.839  0.00  0.00    -0.269 OA
ATOM      2  O   UNL     1      32.218 -24.379 -13.726  0.00  0.00    -0.268 OA
ATOM      3  N   UNL     1      32.384 -23.272 -15.762  0.00  0.00    -0.238 N 
ATOM      4  N   UNL     1      30.996 -22.366 -17.353  0.00  0.00    -0.288 N 
ATOM      5  C   UNL     1      30.947 -23.065 -16.074  0.00  0.00    +0.124 C 
ATOM      6  C   UNL     1      30.208 -24.407 -16.240  0.00  0.00    +0.038 C 
ATOM      7  C   UNL     1      30.266 -22.173 -15.017  0.00  0.00    +0.038 C 
ATOM      8  C   UNL     1      28.764 -22.011 -15.266  0.00  0.00    +0.003 C 
ATOM      9  C   UNL     1      28.708 -24.227 -16.477  0.00  0.00    +0.003 C 
ATOM     10  C   UNL     1      28.067 -23.361 -15.397  0.00  0.00    +0.000 C 
ATOM     11  C   UNL     1      33.170 -22.741 -16.769  0.00  0.00    +0.105 C 
ATOM     12  C   UNL     1      32.289 -22.148 -17.810  0.00  0.00    +0.260 C 
ATOM     13  C   UNL     1      32.896 -23.902 -14.634  0.00  0.00    +0.267 C 
ATOM     14  C   UNL     1      34.509 -22.799 -16.728  0.00  0.00    -0.002 C 
ATOM     15  C   UNL     1      34.399 -23.978 -14.569  0.00  0.00    +0.104 C 
ATOM     16  C   UNL     1      35.114 -23.446 -15.575  0.00  0.00    +0.016 C 
ATOM     17  C   UNL     1      35.472 -22.266 -17.746  0.00  0.00    +0.033 C 
ATOM     18  H   UNL     1      30.193 -22.076 -17.844  0.00  0.00    +0.151 HD
ENDROOT
BRANCH  15  19
ATOM     19  N   UNL     1      34.929 -24.593 -13.472  0.00  0.00    -0.298 N 
ATOM     20  N   UNL     1      36.615 -23.057 -12.840  0.00  0.00    -0.233 NA
ATOM     21  N   UNL     1      37.398 -23.017 -10.561  0.00  0.00    -0.234 NA
ATOM     22  C   UNL     1      35.770 -24.051 -12.493  0.00  0.00    +0.113 C 
ATOM     23  C   UNL     1      35.684 -24.574 -11.220  0.00  0.00    +0.121 C 
ATOM     24  C   UNL     1      36.531 -24.013 -10.285  0.00  0.00    +0.107 C 
ATOM     25  C   UNL     1      37.388 -22.593 -11.839  0.00  0.00    +0.252 C 
ATOM     26  H   UNL     1      34.688 -25.539 -13.353  0.00  0.00    +0.153 HD
ATOM     27  N   UNL     1      36.474 -24.525  -8.965  0.00  0.00    -0.346 N 
ATOM     28  H   UNL     1      37.060 -24.153  -8.267  0.00  0.00    +0.143 HD
ATOM     29  H   UNL     1      35.847 -25.252  -8.745  0.00  0.00    +0.143 HD
ENDBRANCH  15  19
TORSDOF 1
ENDMDL
