MODEL 1
REMARK VINA RESULT:     -12.0      0.000      0.000
REMARK  Name = 448408
REMARK  8 active torsions:
REMARK  status: ('A' for Active; 'I' for Inactive)
REMARK    1  A    between atoms: N_2  and  C_25
REMARK    2  A    between atoms: C_3  and  C_6
REMARK    3  A    between atoms: C_5  and  N_12
REMARK    4  A    between atoms: C_25  and  C_26
REMARK    5  A    between atoms: C_27  and  S_32
REMARK    6  A    between atoms: S_32  and  C_33
REMARK    7  A    between atoms: C_34  and  C_39
REMARK    8  A    between atoms: C_39  and  O_40
REMARK                            x       y       z     vdW  Elec       q    Type
REMARK                         _______ _______ _______ _____ _____    ______ ____
ROOT
ATOM      1  O   UNL     1      37.740 -19.148 -19.624  0.00  0.00    -0.270 OA
ATOM      2  N   UNL     1      36.047 -20.729 -19.520  0.00  0.00    -0.297 N 
ATOM      3  C   UNL     1      36.677 -19.608 -20.075  0.00  0.00    +0.246 C 
ATOM      4  H   UNL     1      35.206 -21.040 -19.928  0.00  0.00    +0.150 HD
ENDROOT
BRANCH   3   6
ATOM      5  C   UNL     1      35.288 -16.956 -22.354  0.00  0.00    +0.090 C 
ATOM      6  C   UNL     1      36.018 -18.974 -21.206  0.00  0.00    +0.055 C 
ATOM      7  C   UNL     1      35.922 -17.584 -21.268  0.00  0.00    +0.023 C 
ATOM      8  C   UNL     1      34.753 -17.758 -23.376  0.00  0.00    +0.018 C 
ATOM      9  C   UNL     1      35.481 -19.757 -22.230  0.00  0.00    +0.005 C 
ATOM     10  C   UNL     1      34.850 -19.149 -23.314  0.00  0.00    +0.002 C 
BRANCH   5  12
ATOM     11  O   UNL     1      32.634 -12.880 -20.527  0.00  0.00    -0.207 OA
ATOM     12  N   UNL     1      35.192 -15.570 -22.416  0.00  0.00    -0.137 N 
ATOM     13  N   UNL     1      35.388 -14.829 -23.538  0.00  0.00    -0.215 N 
ATOM     14  N   UNL     1      34.339 -14.925 -21.524  0.00  0.00    -0.143 NA
ATOM     15  N   UNL     1      34.464 -12.627 -24.121  0.00  0.00    -0.309 NA
ATOM     16  N   UNL     1      33.005 -11.656 -22.461  0.00  0.00    -0.251 NA
ATOM     17  N   UNL     1      33.445 -10.524 -24.430  0.00  0.00    -0.283 N 
ATOM     18  C   UNL     1      34.677 -13.680 -23.424  0.00  0.00    +0.243 C 
ATOM     19  C   UNL     1      34.029 -13.810 -22.109  0.00  0.00    +0.241 C 
ATOM     20  C   UNL     1      33.156 -12.735 -21.623  0.00  0.00    +0.239 C 
ATOM     21  C   UNL     1      33.625 -11.625 -23.624  0.00  0.00    +0.208 C 
ATOM     22  H   UNL     1      35.952 -15.083 -24.304  0.00  0.00    +0.175 HD
ATOM     23  H   UNL     1      33.896 -10.473 -25.303  0.00  0.00    +0.156 HD
ATOM     24  H   UNL     1      32.865  -9.786 -24.132  0.00  0.00    +0.156 HD
ENDBRANCH   5  12
ENDBRANCH   3   6
BRANCH   2  25
ATOM     25  C   UNL     1      36.564 -21.453 -18.381  0.00  0.00    +0.117 C 
BRANCH  25  26
ATOM     26  C   UNL     1      35.467 -22.088 -17.576  0.00  0.00    +0.003 C 
ATOM     27  C   UNL     1      35.674 -22.523 -16.270  0.00  0.00    +0.027 C 
ATOM     28  C   UNL     1      34.221 -22.233 -18.177  0.00  0.00    -0.002 C 
ATOM     29  C   UNL     1      34.626 -23.108 -15.560  0.00  0.00    +0.006 C 
ATOM     30  C   UNL     1      33.173 -22.819 -17.468  0.00  0.00    -0.000 C 
ATOM     31  C   UNL     1      33.375 -23.256 -16.159  0.00  0.00    +0.000 C 
BRANCH  27  32
ATOM     32  S   UNL     1      37.259 -22.356 -15.458  0.00  0.00    -0.087 S 
BRANCH  32  33
ATOM     33  C   UNL     1      37.315 -23.864 -14.502  0.00  0.00    +0.028 C 
ATOM     34  C   UNL     1      37.412 -23.847 -13.109  0.00  0.00    +0.013 C 
ATOM     35  C   UNL     1      37.259 -25.082 -15.180  0.00  0.00    +0.006 C 
ATOM     36  C   UNL     1      37.452 -25.046 -12.397  0.00  0.00    -0.001 C 
ATOM     37  C   UNL     1      37.300 -26.281 -14.468  0.00  0.00    +0.000 C 
ATOM     38  C   UNL     1      37.397 -26.263 -13.076  0.00  0.00    -0.000 C 
BRANCH  34  39
ATOM     39  C   UNL     1      37.474 -22.569 -12.335  0.00  0.00    +0.164 C 
BRANCH  39  40
ATOM     40  O   UNL     1      38.514 -22.656 -11.370  0.00  0.00    -0.377 OA
ATOM     41  H   UNL     1      39.228 -23.216 -11.714  0.00  0.00    +0.211 HD
ENDBRANCH  39  40
ENDBRANCH  34  39
ENDBRANCH  32  33
ENDBRANCH  27  32
ENDBRANCH  25  26
ENDBRANCH   2  25
TORSDOF 8
ENDMDL
MODEL 2
REMARK VINA RESULT:     -11.9      2.152      3.126
REMARK  Name = 448408
REMARK  8 active torsions:
REMARK  status: ('A' for Active; 'I' for Inactive)
REMARK    1  A    between atoms: N_2  and  C_25
REMARK    2  A    between atoms: C_3  and  C_6
REMARK    3  A    between atoms: C_5  and  N_12
REMARK    4  A    between atoms: C_25  and  C_26
REMARK    5  A    between atoms: C_27  and  S_32
REMARK    6  A    between atoms: S_32  and  C_33
REMARK    7  A    between atoms: C_34  and  C_39
REMARK    8  A    between atoms: C_39  and  O_40
REMARK                            x       y       z     vdW  Elec       q    Type
REMARK                         _______ _______ _______ _____ _____    ______ ____
ROOT
ATOM      1  O   UNL     1      32.926 -21.124 -20.035  0.00  0.00    -0.270 OA
ATOM      2  N   UNL     1      34.391 -22.355 -18.725  0.00  0.00    -0.297 N 
ATOM      3  C   UNL     1      34.079 -21.313 -19.607  0.00  0.00    +0.246 C 
ATOM      4  H   UNL     1      35.324 -22.447 -18.426  0.00  0.00    +0.150 HD
ENDROOT
BRANCH   3   6
ATOM      5  C   UNL     1      36.014 -18.655 -21.436  0.00  0.00    +0.090 C 
ATOM      6  C   UNL     1      35.175 -20.458 -20.033  0.00  0.00    +0.055 C 
ATOM      7  C   UNL     1      34.964 -19.489 -21.014  0.00  0.00    +0.023 C 
ATOM      8  C   UNL     1      37.280 -18.819 -20.851  0.00  0.00    +0.018 C 
ATOM      9  C   UNL     1      36.439 -20.608 -19.461  0.00  0.00    +0.005 C 
ATOM     10  C   UNL     1      37.491 -19.789 -19.870  0.00  0.00    +0.002 C 
BRANCH   5  12
ATOM     11  O   UNL     1      34.771 -13.662 -22.152  0.00  0.00    -0.207 OA
ATOM     12  N   UNL     1      35.803 -17.689 -22.413  0.00  0.00    -0.137 N 
ATOM     13  N   UNL     1      35.212 -17.917 -23.616  0.00  0.00    -0.215 N 
ATOM     14  N   UNL     1      35.637 -16.366 -22.011  0.00  0.00    -0.143 NA
ATOM     15  N   UNL     1      33.972 -16.357 -25.054  0.00  0.00    -0.309 NA
ATOM     16  N   UNL     1      33.782 -14.107 -24.202  0.00  0.00    -0.251 NA
ATOM     17  N   UNL     1      32.834 -14.665 -26.236  0.00  0.00    -0.283 N 
ATOM     18  C   UNL     1      34.643 -16.762 -24.042  0.00  0.00    +0.243 C 
ATOM     19  C   UNL     1      34.955 -15.811 -22.963  0.00  0.00    +0.241 C 
ATOM     20  C   UNL     1      34.493 -14.422 -23.068  0.00  0.00    +0.239 C 
ATOM     21  C   UNL     1      33.549 -15.026 -25.118  0.00  0.00    +0.208 C 
ATOM     22  H   UNL     1      35.200 -18.777 -24.097  0.00  0.00    +0.175 HD
ATOM     23  H   UNL     1      32.645 -15.330 -26.937  0.00  0.00    +0.156 HD
ATOM     24  H   UNL     1      32.510 -13.740 -26.336  0.00  0.00    +0.156 HD
ENDBRANCH   5  12
ENDBRANCH   3   6
BRANCH   2  25
ATOM     25  C   UNL     1      33.417 -23.302 -18.230  0.00  0.00    +0.117 C 
BRANCH  25  26
ATOM     26  C   UNL     1      33.044 -23.029 -16.802  0.00  0.00    +0.003 C 
ATOM     27  C   UNL     1      34.000 -22.981 -15.791  0.00  0.00    +0.027 C 
ATOM     28  C   UNL     1      31.699 -22.823 -16.511  0.00  0.00    -0.002 C 
ATOM     29  C   UNL     1      33.606 -22.725 -14.478  0.00  0.00    +0.006 C 
ATOM     30  C   UNL     1      31.306 -22.567 -15.198  0.00  0.00    -0.000 C 
ATOM     31  C   UNL     1      32.259 -22.517 -14.181  0.00  0.00    +0.000 C 
BRANCH  27  32
ATOM     32  S   UNL     1      35.738 -23.240 -16.120  0.00  0.00    -0.087 S 
BRANCH  32  33
ATOM     33  C   UNL     1      36.318 -23.756 -14.512  0.00  0.00    +0.028 C 
ATOM     34  C   UNL     1      36.503 -25.103 -14.195  0.00  0.00    +0.013 C 
ATOM     35  C   UNL     1      36.588 -22.774 -13.557  0.00  0.00    +0.006 C 
ATOM     36  C   UNL     1      36.958 -25.467 -12.927  0.00  0.00    -0.001 C 
ATOM     37  C   UNL     1      37.043 -23.138 -12.290  0.00  0.00    +0.000 C 
ATOM     38  C   UNL     1      37.228 -24.484 -11.975  0.00  0.00    -0.000 C 
BRANCH  34  39
ATOM     39  C   UNL     1      36.229 -26.193 -15.181  0.00  0.00    +0.164 C 
BRANCH  39  40
ATOM     40  O   UNL     1      37.454 -26.615 -15.765  0.00  0.00    -0.377 OA
ATOM     41  H   UNL     1      38.009 -25.840 -15.945  0.00  0.00    +0.211 HD
ENDBRANCH  39  40
ENDBRANCH  34  39
ENDBRANCH  32  33
ENDBRANCH  27  32
ENDBRANCH  25  26
ENDBRANCH   2  25
TORSDOF 8
ENDMDL
MODEL 3
REMARK VINA RESULT:     -11.9      1.806      2.279
REMARK  Name = 448408
REMARK  8 active torsions:
REMARK  status: ('A' for Active; 'I' for Inactive)
REMARK    1  A    between atoms: N_2  and  C_25
REMARK    2  A    between atoms: C_3  and  C_6
REMARK    3  A    between atoms: C_5  and  N_12
REMARK    4  A    between atoms: C_25  and  C_26
REMARK    5  A    between atoms: C_27  and  S_32
REMARK    6  A    between atoms: S_32  and  C_33
REMARK    7  A    between atoms: C_34  and  C_39
REMARK    8  A    between atoms: C_39  and  O_40
REMARK                            x       y       z     vdW  Elec       q    Type
REMARK                         _______ _______ _______ _____ _____    ______ ____
ROOT
ATOM      1  O   UNL     1      37.252 -18.292 -20.415  0.00  0.00    -0.270 OA
ATOM      2  N   UNL     1      36.078 -20.291 -20.447  0.00  0.00    -0.297 N 
ATOM      3  C   UNL     1      36.444 -19.050 -20.980  0.00  0.00    +0.246 C 
ATOM      4  H   UNL     1      35.433 -20.841 -20.947  0.00  0.00    +0.150 HD
ENDROOT
BRANCH   3   6
ATOM      5  C   UNL     1      34.708 -16.971 -23.592  0.00  0.00    +0.090 C 
ATOM      6  C   UNL     1      35.815 -18.658 -22.232  0.00  0.00    +0.055 C 
ATOM      7  C   UNL     1      35.318 -17.364 -22.388  0.00  0.00    +0.023 C 
ATOM      8  C   UNL     1      34.607 -17.909 -24.633  0.00  0.00    +0.018 C 
ATOM      9  C   UNL     1      35.707 -19.578 -23.276  0.00  0.00    +0.005 C 
ATOM     10  C   UNL     1      35.104 -19.204 -24.476  0.00  0.00    +0.002 C 
BRANCH   5  12
ATOM     11  O   UNL     1      33.439 -13.402 -27.147  0.00  0.00    -0.207 OA
ATOM     12  N   UNL     1      34.214 -15.681 -23.748  0.00  0.00    -0.137 N 
ATOM     13  N   UNL     1      34.502 -14.635 -22.929  0.00  0.00    -0.215 N 
ATOM     14  N   UNL     1      33.894 -15.246 -25.032  0.00  0.00    -0.143 NA
ATOM     15  N   UNL     1      34.517 -12.230 -23.434  0.00  0.00    -0.309 NA
ATOM     16  N   UNL     1      33.939 -11.656 -25.706  0.00  0.00    -0.251 NA
ATOM     17  N   UNL     1      34.456  -9.996 -24.181  0.00  0.00    -0.283 N 
ATOM     18  C   UNL     1      34.382 -13.487 -23.640  0.00  0.00    +0.243 C 
ATOM     19  C   UNL     1      33.990 -13.954 -24.979  0.00  0.00    +0.241 C 
ATOM     20  C   UNL     1      33.762 -12.976 -26.048  0.00  0.00    +0.239 C 
ATOM     21  C   UNL     1      34.292 -11.329 -24.479  0.00  0.00    +0.208 C 
ATOM     22  H   UNL     1      34.755 -14.701 -21.980  0.00  0.00    +0.175 HD
ATOM     23  H   UNL     1      34.719  -9.722 -23.273  0.00  0.00    +0.156 HD
ATOM     24  H   UNL     1      34.310  -9.315 -24.878  0.00  0.00    +0.156 HD
ENDBRANCH   5  12
ENDBRANCH   3   6
BRANCH   2  25
ATOM     25  C   UNL     1      36.597 -20.810 -19.201  0.00  0.00    +0.117 C 
BRANCH  25  26
ATOM     26  C   UNL     1      35.557 -21.575 -18.435  0.00  0.00    +0.003 C 
ATOM     27  C   UNL     1      35.833 -22.153 -17.200  0.00  0.00    +0.027 C 
ATOM     28  C   UNL     1      34.291 -21.694 -19.002  0.00  0.00    -0.002 C 
ATOM     29  C   UNL     1      34.835 -22.856 -16.525  0.00  0.00    +0.006 C 
ATOM     30  C   UNL     1      33.293 -22.397 -18.327  0.00  0.00    -0.000 C 
ATOM     31  C   UNL     1      33.565 -22.978 -17.089  0.00  0.00    +0.000 C 
BRANCH  27  32
ATOM     32  S   UNL     1      37.445 -22.026 -16.436  0.00  0.00    -0.087 S 
BRANCH  32  33
ATOM     33  C   UNL     1      37.216 -23.038 -14.982  0.00  0.00    +0.028 C 
ATOM     34  C   UNL     1      38.129 -24.034 -14.629  0.00  0.00    +0.013 C 
ATOM     35  C   UNL     1      36.089 -22.816 -14.189  0.00  0.00    +0.006 C 
ATOM     36  C   UNL     1      37.916 -24.804 -13.486  0.00  0.00    -0.001 C 
ATOM     37  C   UNL     1      35.876 -23.586 -13.046  0.00  0.00    +0.000 C 
ATOM     38  C   UNL     1      36.789 -24.580 -12.694  0.00  0.00    -0.000 C 
BRANCH  34  39
ATOM     39  C   UNL     1      39.351 -24.312 -15.444  0.00  0.00    +0.164 C 
BRANCH  39  40
ATOM     40  O   UNL     1      40.408 -24.711 -14.582  0.00  0.00    -0.377 OA
ATOM     41  H   UNL     1      41.231 -24.276 -14.857  0.00  0.00    +0.211 HD
ENDBRANCH  39  40
ENDBRANCH  34  39
ENDBRANCH  32  33
ENDBRANCH  27  32
ENDBRANCH  25  26
ENDBRANCH   2  25
TORSDOF 8
ENDMDL
MODEL 4
REMARK VINA RESULT:     -11.8      4.478     13.057
REMARK  Name = 448408
REMARK  8 active torsions:
REMARK  status: ('A' for Active; 'I' for Inactive)
REMARK    1  A    between atoms: N_2  and  C_25
REMARK    2  A    between atoms: C_3  and  C_6
REMARK    3  A    between atoms: C_5  and  N_12
REMARK    4  A    between atoms: C_25  and  C_26
REMARK    5  A    between atoms: C_27  and  S_32
REMARK    6  A    between atoms: S_32  and  C_33
REMARK    7  A    between atoms: C_34  and  C_39
REMARK    8  A    between atoms: C_39  and  O_40
REMARK                            x       y       z     vdW  Elec       q    Type
REMARK                         _______ _______ _______ _____ _____    ______ ____
ROOT
ATOM      1  O   UNL     1      34.805 -13.975 -21.062  0.00  0.00    -0.270 OA
ATOM      2  N   UNL     1      33.445 -13.501 -22.879  0.00  0.00    -0.297 N 
ATOM      3  C   UNL     1      34.345 -14.305 -22.169  0.00  0.00    +0.246 C 
ATOM      4  H   UNL     1      33.120 -13.824 -23.751  0.00  0.00    +0.150 HD
ENDROOT
BRANCH   3   6
ATOM      5  C   UNL     1      35.387 -17.895 -22.600  0.00  0.00    +0.090 C 
ATOM      6  C   UNL     1      34.750 -15.554 -22.795  0.00  0.00    +0.055 C 
ATOM      7  C   UNL     1      34.994 -16.681 -22.010  0.00  0.00    +0.023 C 
ATOM      8  C   UNL     1      35.528 -17.949 -23.996  0.00  0.00    +0.018 C 
ATOM      9  C   UNL     1      34.895 -15.625 -24.181  0.00  0.00    +0.005 C 
ATOM     10  C   UNL     1      35.284 -16.821 -24.781  0.00  0.00    +0.002 C 
BRANCH   5  12
ATOM     11  O   UNL     1      33.060 -21.595 -19.792  0.00  0.00    -0.207 OA
ATOM     12  N   UNL     1      35.630 -19.018 -21.817  0.00  0.00    -0.137 N 
ATOM     13  N   UNL     1      36.683 -19.160 -20.970  0.00  0.00    -0.215 N 
ATOM     14  N   UNL     1      34.543 -19.788 -21.409  0.00  0.00    -0.143 NA
ATOM     15  N   UNL     1      36.863 -20.532 -18.939  0.00  0.00    -0.309 NA
ATOM     16  N   UNL     1      34.887 -21.801 -18.380  0.00  0.00    -0.251 NA
ATOM     17  N   UNL     1      36.770 -21.929 -17.043  0.00  0.00    -0.283 N 
ATOM     18  C   UNL     1      36.328 -20.021 -19.984  0.00  0.00    +0.243 C 
ATOM     19  C   UNL     1      34.945 -20.382 -20.329  0.00  0.00    +0.241 C 
ATOM     20  C   UNL     1      34.207 -21.319 -19.473  0.00  0.00    +0.239 C 
ATOM     21  C   UNL     1      36.128 -21.420 -18.148  0.00  0.00    +0.208 C 
ATOM     22  H   UNL     1      37.556 -18.713 -21.057  0.00  0.00    +0.175 HD
ATOM     23  H   UNL     1      37.697 -21.664 -16.845  0.00  0.00    +0.156 HD
ATOM     24  H   UNL     1      36.302 -22.560 -16.449  0.00  0.00    +0.156 HD
ENDBRANCH   5  12
ENDBRANCH   3   6
BRANCH   2  25
ATOM     25  C   UNL     1      32.967 -12.223 -22.403  0.00  0.00    +0.117 C 
BRANCH  25  26
ATOM     26  C   UNL     1      33.592 -11.078 -23.145  0.00  0.00    +0.003 C 
ATOM     27  C   UNL     1      33.196  -9.761 -22.931  0.00  0.00    +0.027 C 
ATOM     28  C   UNL     1      34.592 -11.371 -24.068  0.00  0.00    -0.002 C 
ATOM     29  C   UNL     1      33.804  -8.729 -23.645  0.00  0.00    +0.006 C 
ATOM     30  C   UNL     1      35.201 -10.340 -24.782  0.00  0.00    -0.000 C 
ATOM     31  C   UNL     1      34.807  -9.019 -24.571  0.00  0.00    +0.000 C 
BRANCH  27  32
ATOM     32  S   UNL     1      31.916  -9.339 -21.756  0.00  0.00    -0.087 S 
BRANCH  32  33
ATOM     33  C   UNL     1      31.764  -7.580 -22.032  0.00  0.00    +0.028 C 
ATOM     34  C   UNL     1      32.002  -6.654 -21.015  0.00  0.00    +0.013 C 
ATOM     35  C   UNL     1      31.394  -7.138 -23.303  0.00  0.00    +0.006 C 
ATOM     36  C   UNL     1      31.874  -5.288 -21.270  0.00  0.00    -0.001 C 
ATOM     37  C   UNL     1      31.265  -5.772 -23.558  0.00  0.00    +0.000 C 
ATOM     38  C   UNL     1      31.504  -4.848 -22.541  0.00  0.00    -0.000 C 
BRANCH  34  39
ATOM     39  C   UNL     1      32.400  -7.076 -19.637  0.00  0.00    +0.164 C 
BRANCH  39  40
ATOM     40  O   UNL     1      33.804  -6.909 -19.484  0.00  0.00    -0.377 OA
ATOM     41  H   UNL     1      34.216  -6.824 -20.358  0.00  0.00    +0.211 HD
ENDBRANCH  39  40
ENDBRANCH  34  39
ENDBRANCH  32  33
ENDBRANCH  27  32
ENDBRANCH  25  26
ENDBRANCH   2  25
TORSDOF 8
ENDMDL
MODEL 5
REMARK VINA RESULT:     -11.7      3.917      7.357
REMARK  Name = 448408
REMARK  8 active torsions:
REMARK  status: ('A' for Active; 'I' for Inactive)
REMARK    1  A    between atoms: N_2  and  C_25
REMARK    2  A    between atoms: C_3  and  C_6
REMARK    3  A    between atoms: C_5  and  N_12
REMARK    4  A    between atoms: C_25  and  C_26
REMARK    5  A    between atoms: C_27  and  S_32
REMARK    6  A    between atoms: S_32  and  C_33
REMARK    7  A    between atoms: C_34  and  C_39
REMARK    8  A    between atoms: C_39  and  O_40
REMARK                            x       y       z     vdW  Elec       q    Type
REMARK                         _______ _______ _______ _____ _____    ______ ____
ROOT
ATOM      1  O   UNL     1      35.232 -13.693 -23.545  0.00  0.00    -0.270 OA
ATOM      2  N   UNL     1      34.890 -15.119 -21.749  0.00  0.00    -0.297 N 
ATOM      3  C   UNL     1      34.627 -13.963 -22.493  0.00  0.00    +0.246 C 
ATOM      4  H   UNL     1      34.373 -15.270 -20.925  0.00  0.00    +0.150 HD
ENDROOT
BRANCH   3   6
ATOM      5  C   UNL     1      32.471 -10.911 -22.050  0.00  0.00    +0.090 C 
ATOM      6  C   UNL     1      33.617 -13.056 -21.969  0.00  0.00    +0.055 C 
ATOM      7  C   UNL     1      33.442 -11.798 -22.546  0.00  0.00    +0.023 C 
ATOM      8  C   UNL     1      31.681 -11.317 -20.962  0.00  0.00    +0.018 C 
ATOM      9  C   UNL     1      32.824 -13.445 -20.888  0.00  0.00    +0.005 C 
ATOM     10  C   UNL     1      31.857 -12.576 -20.386  0.00  0.00    +0.002 C 
BRANCH   5  12
ATOM     11  O   UNL     1      34.991  -6.601 -23.487  0.00  0.00    -0.207 OA
ATOM     12  N   UNL     1      32.296  -9.657 -22.626  0.00  0.00    -0.137 N 
ATOM     13  N   UNL     1      31.218  -8.854 -22.422  0.00  0.00    -0.215 N 
ATOM     14  N   UNL     1      33.428  -8.914 -22.950  0.00  0.00    -0.143 NA
ATOM     15  N   UNL     1      31.064  -6.405 -22.557  0.00  0.00    -0.309 NA
ATOM     16  N   UNL     1      33.120  -5.278 -23.130  0.00  0.00    -0.251 NA
ATOM     17  N   UNL     1      31.191  -4.059 -22.752  0.00  0.00    -0.283 N 
ATOM     18  C   UNL     1      31.602  -7.566 -22.605  0.00  0.00    +0.243 C 
ATOM     19  C   UNL     1      33.029  -7.680 -22.940  0.00  0.00    +0.241 C 
ATOM     20  C   UNL     1      33.807  -6.466 -23.213  0.00  0.00    +0.239 C 
ATOM     21  C   UNL     1      31.839  -5.272 -22.822  0.00  0.00    +0.208 C 
ATOM     22  H   UNL     1      30.312  -9.157 -22.182  0.00  0.00    +0.175 HD
ATOM     23  H   UNL     1      30.234  -4.024 -22.524  0.00  0.00    +0.156 HD
ATOM     24  H   UNL     1      31.686  -3.227 -22.929  0.00  0.00    +0.156 HD
ENDBRANCH   5  12
ENDBRANCH   3   6
BRANCH   2  25
ATOM     25  C   UNL     1      35.879 -16.103 -22.125  0.00  0.00    +0.117 C 
BRANCH  25  26
ATOM     26  C   UNL     1      35.302 -17.171 -23.008  0.00  0.00    +0.003 C 
ATOM     27  C   UNL     1      35.477 -18.524 -22.733  0.00  0.00    +0.027 C 
ATOM     28  C   UNL     1      34.576 -16.768 -24.125  0.00  0.00    -0.002 C 
ATOM     29  C   UNL     1      34.923 -19.481 -23.582  0.00  0.00    +0.006 C 
ATOM     30  C   UNL     1      34.021 -17.725 -24.974  0.00  0.00    -0.000 C 
ATOM     31  C   UNL     1      34.194 -19.081 -24.703  0.00  0.00    +0.000 C 
BRANCH  27  32
ATOM     32  S   UNL     1      36.402 -19.087 -21.310  0.00  0.00    -0.087 S 
BRANCH  32  33
ATOM     33  C   UNL     1      35.156 -20.026 -20.440  0.00  0.00    +0.028 C 
ATOM     34  C   UNL     1      35.492 -20.969 -19.467  0.00  0.00    +0.013 C 
ATOM     35  C   UNL     1      33.815 -19.799 -20.755  0.00  0.00    +0.006 C 
ATOM     36  C   UNL     1      34.490 -21.682 -18.810  0.00  0.00    -0.001 C 
ATOM     37  C   UNL     1      32.813 -20.513 -20.098  0.00  0.00    +0.000 C 
ATOM     38  C   UNL     1      33.151 -21.455 -19.125  0.00  0.00    -0.000 C 
BRANCH  34  39
ATOM     39  C   UNL     1      36.913 -21.248 -19.094  0.00  0.00    +0.164 C 
BRANCH  39  40
ATOM     40  O   UNL     1      37.264 -20.459 -17.965  0.00  0.00    -0.377 OA
ATOM     41  H   UNL     1      36.654 -19.708 -17.894  0.00  0.00    +0.211 HD
ENDBRANCH  39  40
ENDBRANCH  34  39
ENDBRANCH  32  33
ENDBRANCH  27  32
ENDBRANCH  25  26
ENDBRANCH   2  25
TORSDOF 8
ENDMDL
MODEL 6
REMARK VINA RESULT:     -11.6      3.600     11.579
REMARK  Name = 448408
REMARK  8 active torsions:
REMARK  status: ('A' for Active; 'I' for Inactive)
REMARK    1  A    between atoms: N_2  and  C_25
REMARK    2  A    between atoms: C_3  and  C_6
REMARK    3  A    between atoms: C_5  and  N_12
REMARK    4  A    between atoms: C_25  and  C_26
REMARK    5  A    between atoms: C_27  and  S_32
REMARK    6  A    between atoms: S_32  and  C_33
REMARK    7  A    between atoms: C_34  and  C_39
REMARK    8  A    between atoms: C_39  and  O_40
REMARK                            x       y       z     vdW  Elec       q    Type
REMARK                         _______ _______ _______ _____ _____    ______ ____
ROOT
ATOM      1  O   UNL     1      37.107 -20.295 -20.422  0.00  0.00    -0.270 OA
ATOM      2  N   UNL     1      35.246 -18.982 -20.856  0.00  0.00    -0.297 N 
ATOM      3  C   UNL     1      35.902 -20.052 -20.235  0.00  0.00    +0.246 C 
ATOM      4  H   UNL     1      34.290 -18.848 -20.663  0.00  0.00    +0.150 HD
ENDROOT
BRANCH   3   6
ATOM      5  C   UNL     1      34.935 -22.354 -17.421  0.00  0.00    +0.090 C 
ATOM      6  C   UNL     1      35.103 -20.902 -19.366  0.00  0.00    +0.055 C 
ATOM      7  C   UNL     1      35.694 -21.529 -18.269  0.00  0.00    +0.023 C 
ATOM      8  C   UNL     1      33.570 -22.533 -17.701  0.00  0.00    +0.018 C 
ATOM      9  C   UNL     1      33.746 -21.090 -19.631  0.00  0.00    +0.005 C 
ATOM     10  C   UNL     1      32.980 -21.904 -18.798  0.00  0.00    +0.002 C 
BRANCH   5  12
ATOM     11  O   UNL     1      33.982 -24.134 -12.634  0.00  0.00    -0.207 OA
ATOM     12  N   UNL     1      35.523 -22.979 -16.327  0.00  0.00    -0.137 N 
ATOM     13  N   UNL     1      36.793 -22.755 -15.896  0.00  0.00    -0.215 N 
ATOM     14  N   UNL     1      34.701 -23.401 -15.285  0.00  0.00    -0.143 NA
ATOM     15  N   UNL     1      37.728 -23.000 -13.636  0.00  0.00    -0.309 NA
ATOM     16  N   UNL     1      36.163 -23.740 -11.954  0.00  0.00    -0.251 NA
ATOM     17  N   UNL     1      38.366 -23.315 -11.389  0.00  0.00    -0.283 N 
ATOM     18  C   UNL     1      36.849 -23.021 -14.568  0.00  0.00    +0.243 C 
ATOM     19  C   UNL     1      35.473 -23.429 -14.243  0.00  0.00    +0.241 C 
ATOM     20  C   UNL     1      35.135 -23.802 -12.865  0.00  0.00    +0.239 C 
ATOM     21  C   UNL     1      37.367 -23.362 -12.335  0.00  0.00    +0.208 C 
ATOM     22  H   UNL     1      37.545 -22.452 -16.455  0.00  0.00    +0.175 HD
ATOM     23  H   UNL     1      39.275 -23.038 -11.645  0.00  0.00    +0.156 HD
ATOM     24  H   UNL     1      38.170 -23.560 -10.456  0.00  0.00    +0.156 HD
ENDBRANCH   5  12
ENDBRANCH   3   6
BRANCH   2  25
ATOM     25  C   UNL     1      35.896 -18.064 -21.764  0.00  0.00    +0.117 C 
BRANCH  25  26
ATOM     26  C   UNL     1      35.050 -17.775 -22.970  0.00  0.00    +0.003 C 
ATOM     27  C   UNL     1      34.917 -16.487 -23.480  0.00  0.00    +0.027 C 
ATOM     28  C   UNL     1      34.391 -18.842 -23.572  0.00  0.00    -0.002 C 
ATOM     29  C   UNL     1      34.119 -16.265 -24.602  0.00  0.00    +0.006 C 
ATOM     30  C   UNL     1      33.593 -18.621 -24.694  0.00  0.00    -0.000 C 
ATOM     31  C   UNL     1      33.457 -17.332 -25.209  0.00  0.00    +0.000 C 
BRANCH  27  32
ATOM     32  S   UNL     1      35.745 -15.086 -22.738  0.00  0.00    -0.087 S 
BRANCH  32  33
ATOM     33  C   UNL     1      34.359 -14.198 -22.043  0.00  0.00    +0.028 C 
ATOM     34  C   UNL     1      33.740 -13.150 -22.727  0.00  0.00    +0.013 C 
ATOM     35  C   UNL     1      33.896 -14.573 -20.781  0.00  0.00    +0.006 C 
ATOM     36  C   UNL     1      32.660 -12.481 -22.152  0.00  0.00    -0.001 C 
ATOM     37  C   UNL     1      32.817 -13.903 -20.205  0.00  0.00    +0.000 C 
ATOM     38  C   UNL     1      32.199 -12.857 -20.890  0.00  0.00    -0.000 C 
BRANCH  34  39
ATOM     39  C   UNL     1      34.197 -12.710 -24.081  0.00  0.00    +0.164 C 
BRANCH  39  40
ATOM     40  O   UNL     1      34.733 -11.397 -23.990  0.00  0.00    -0.377 OA
ATOM     41  H   UNL     1      35.556 -11.347 -24.502  0.00  0.00    +0.211 HD
ENDBRANCH  39  40
ENDBRANCH  34  39
ENDBRANCH  32  33
ENDBRANCH  27  32
ENDBRANCH  25  26
ENDBRANCH   2  25
TORSDOF 8
ENDMDL
MODEL 7
REMARK VINA RESULT:     -11.5      3.935      7.426
REMARK  Name = 448408
REMARK  8 active torsions:
REMARK  status: ('A' for Active; 'I' for Inactive)
REMARK    1  A    between atoms: N_2  and  C_25
REMARK    2  A    between atoms: C_3  and  C_6
REMARK    3  A    between atoms: C_5  and  N_12
REMARK    4  A    between atoms: C_25  and  C_26
REMARK    5  A    between atoms: C_27  and  S_32
REMARK    6  A    between atoms: S_32  and  C_33
REMARK    7  A    between atoms: C_34  and  C_39
REMARK    8  A    between atoms: C_39  and  O_40
REMARK                            x       y       z     vdW  Elec       q    Type
REMARK                         _______ _______ _______ _____ _____    ______ ____
ROOT
ATOM      1  O   UNL     1      33.487 -13.823 -21.532  0.00  0.00    -0.270 OA
ATOM      2  N   UNL     1      35.072 -14.697 -22.981  0.00  0.00    -0.297 N 
ATOM      3  C   UNL     1      34.162 -13.716 -22.572  0.00  0.00    +0.246 C 
ATOM      4  H   UNL     1      35.574 -14.548 -23.815  0.00  0.00    +0.150 HD
ENDROOT
BRANCH   3   6
ATOM      5  C   UNL     1      33.702 -10.155 -23.696  0.00  0.00    +0.090 C 
ATOM      6  C   UNL     1      34.011 -12.554 -23.434  0.00  0.00    +0.055 C 
ATOM      7  C   UNL     1      33.849 -11.287 -22.876  0.00  0.00    +0.023 C 
ATOM      8  C   UNL     1      33.721 -10.327 -25.090  0.00  0.00    +0.018 C 
ATOM      9  C   UNL     1      34.028 -12.709 -24.821  0.00  0.00    +0.005 C 
ATOM     10  C   UNL     1      33.883 -11.596 -25.648  0.00  0.00    +0.002 C 
BRANCH   5  12
ATOM     11  O   UNL     1      32.258  -7.663 -19.372  0.00  0.00    -0.207 OA
ATOM     12  N   UNL     1      33.542  -8.891 -23.139  0.00  0.00    -0.137 N 
ATOM     13  N   UNL     1      33.097  -7.797 -23.813  0.00  0.00    -0.215 N 
ATOM     14  N   UNL     1      33.258  -8.798 -21.779  0.00  0.00    -0.143 NA
ATOM     15  N   UNL     1      31.930  -5.814 -22.949  0.00  0.00    -0.309 NA
ATOM     16  N   UNL     1      31.522  -5.820 -20.570  0.00  0.00    -0.251 NA
ATOM     17  N   UNL     1      30.830  -4.033 -21.866  0.00  0.00    -0.283 N 
ATOM     18  C   UNL     1      32.512  -6.955 -22.926  0.00  0.00    +0.243 C 
ATOM     19  C   UNL     1      32.651  -7.661 -21.643  0.00  0.00    +0.241 C 
ATOM     20  C   UNL     1      32.125  -7.046 -20.419  0.00  0.00    +0.239 C 
ATOM     21  C   UNL     1      31.441  -5.262 -21.762  0.00  0.00    +0.208 C 
ATOM     22  H   UNL     1      33.185  -7.643 -24.782  0.00  0.00    +0.175 HD
ATOM     23  H   UNL     1      30.756  -3.592 -22.743  0.00  0.00    +0.156 HD
ATOM     24  H   UNL     1      30.466  -3.595 -21.063  0.00  0.00    +0.156 HD
ENDBRANCH   5  12
ENDBRANCH   3   6
BRANCH   2  25
ATOM     25  C   UNL     1      35.316 -15.918 -22.246  0.00  0.00    +0.117 C 
BRANCH  25  26
ATOM     26  C   UNL     1      35.113 -17.137 -23.099  0.00  0.00    +0.003 C 
ATOM     27  C   UNL     1      35.505 -18.403 -22.673  0.00  0.00    +0.027 C 
ATOM     28  C   UNL     1      34.516 -16.965 -24.344  0.00  0.00    -0.002 C 
ATOM     29  C   UNL     1      35.298 -19.506 -23.500  0.00  0.00    +0.006 C 
ATOM     30  C   UNL     1      34.309 -18.069 -25.171  0.00  0.00    -0.000 C 
ATOM     31  C   UNL     1      34.700 -19.339 -24.749  0.00  0.00    +0.000 C 
BRANCH  27  32
ATOM     32  S   UNL     1      36.276 -18.668 -21.082  0.00  0.00    -0.087 S 
BRANCH  32  33
ATOM     33  C   UNL     1      35.159 -19.858 -20.354  0.00  0.00    +0.028 C 
ATOM     34  C   UNL     1      35.612 -20.862 -19.497  0.00  0.00    +0.013 C 
ATOM     35  C   UNL     1      33.800 -19.768 -20.663  0.00  0.00    +0.006 C 
ATOM     36  C   UNL     1      34.709 -21.773 -18.948  0.00  0.00    -0.001 C 
ATOM     37  C   UNL     1      32.897 -20.679 -20.115  0.00  0.00    +0.000 C 
ATOM     38  C   UNL     1      33.351 -21.681 -19.258  0.00  0.00    -0.000 C 
BRANCH  34  39
ATOM     39  C   UNL     1      37.056 -21.002 -19.135  0.00  0.00    +0.164 C 
BRANCH  39  40
ATOM     40  O   UNL     1      37.246 -20.572 -17.794  0.00  0.00    -0.377 OA
ATOM     41  H   UNL     1      38.126 -20.843 -17.489  0.00  0.00    +0.211 HD
ENDBRANCH  39  40
ENDBRANCH  34  39
ENDBRANCH  32  33
ENDBRANCH  27  32
ENDBRANCH  25  26
ENDBRANCH   2  25
TORSDOF 8
ENDMDL
MODEL 8
REMARK VINA RESULT:     -11.2      4.346     12.635
REMARK  Name = 448408
REMARK  8 active torsions:
REMARK  status: ('A' for Active; 'I' for Inactive)
REMARK    1  A    between atoms: N_2  and  C_25
REMARK    2  A    between atoms: C_3  and  C_6
REMARK    3  A    between atoms: C_5  and  N_12
REMARK    4  A    between atoms: C_25  and  C_26
REMARK    5  A    between atoms: C_27  and  S_32
REMARK    6  A    between atoms: S_32  and  C_33
REMARK    7  A    between atoms: C_34  and  C_39
REMARK    8  A    between atoms: C_39  and  O_40
REMARK                            x       y       z     vdW  Elec       q    Type
REMARK                         _______ _______ _______ _____ _____    ______ ____
ROOT
ATOM      1  O   UNL     1      36.147 -14.841 -23.732  0.00  0.00    -0.270 OA
ATOM      2  N   UNL     1      33.839 -14.623 -23.703  0.00  0.00    -0.297 N 
ATOM      3  C   UNL     1      35.023 -15.368 -23.662  0.00  0.00    +0.246 C 
ATOM      4  H   UNL     1      32.983 -15.106 -23.643  0.00  0.00    +0.150 HD
ENDROOT
BRANCH   3   6
ATOM      5  C   UNL     1      34.602 -18.805 -22.190  0.00  0.00    +0.090 C 
ATOM      6  C   UNL     1      34.891 -16.813 -23.557  0.00  0.00    +0.055 C 
ATOM      7  C   UNL     1      34.731 -17.410 -22.307  0.00  0.00    +0.023 C 
ATOM      8  C   UNL     1      34.638 -19.584 -23.358  0.00  0.00    +0.018 C 
ATOM      9  C   UNL     1      34.924 -17.601 -24.709  0.00  0.00    +0.005 C 
ATOM     10  C   UNL     1      34.797 -18.986 -24.609  0.00  0.00    +0.002 C 
BRANCH   5  12
ATOM     11  O   UNL     1      37.072 -21.570 -18.550  0.00  0.00    -0.207 OA
ATOM     12  N   UNL     1      34.443 -19.401 -20.944  0.00  0.00    -0.137 N 
ATOM     13  N   UNL     1      33.309 -20.018 -20.518  0.00  0.00    -0.215 N 
ATOM     14  N   UNL     1      35.570 -19.916 -20.307  0.00  0.00    -0.143 NA
ATOM     15  N   UNL     1      33.052 -21.817 -18.863  0.00  0.00    -0.309 NA
ATOM     16  N   UNL     1      35.107 -22.588 -17.860  0.00  0.00    -0.251 NA
ATOM     17  N   UNL     1      33.086 -23.532 -17.247  0.00  0.00    -0.283 N 
ATOM     18  C   UNL     1      33.648 -20.951 -19.595  0.00  0.00    +0.243 C 
ATOM     19  C   UNL     1      35.112 -20.830 -19.510  0.00  0.00    +0.241 C 
ATOM     20  C   UNL     1      35.857 -21.699 -18.592  0.00  0.00    +0.239 C 
ATOM     21  C   UNL     1      33.797 -22.627 -18.002  0.00  0.00    +0.208 C 
ATOM     22  H   UNL     1      32.395 -19.820 -20.829  0.00  0.00    +0.175 HD
ATOM     23  H   UNL     1      32.107 -23.583 -17.331  0.00  0.00    +0.156 HD
ATOM     24  H   UNL     1      33.558 -24.129 -16.622  0.00  0.00    +0.156 HD
ENDBRANCH   5  12
ENDBRANCH   3   6
BRANCH   2  25
ATOM     25  C   UNL     1      33.805 -13.183 -23.829  0.00  0.00    +0.117 C 
BRANCH  25  26
ATOM     26  C   UNL     1      33.164 -12.531 -22.639  0.00  0.00    +0.003 C 
ATOM     27  C   UNL     1      32.898 -11.165 -22.607  0.00  0.00    +0.027 C 
ATOM     28  C   UNL     1      32.838 -13.338 -21.553  0.00  0.00    -0.002 C 
ATOM     29  C   UNL     1      32.301 -10.602 -21.479  0.00  0.00    +0.006 C 
ATOM     30  C   UNL     1      32.242 -12.775 -20.425  0.00  0.00    -0.000 C 
ATOM     31  C   UNL     1      31.973 -11.407 -20.388  0.00  0.00    +0.000 C 
BRANCH  27  32
ATOM     32  S   UNL     1      33.299 -10.091 -23.979  0.00  0.00    -0.087 S 
BRANCH  32  33
ATOM     33  C   UNL     1      32.894  -8.492 -23.292  0.00  0.00    +0.028 C 
ATOM     34  C   UNL     1      33.855  -7.489 -23.150  0.00  0.00    +0.013 C 
ATOM     35  C   UNL     1      31.578  -8.256 -22.892  0.00  0.00    +0.006 C 
ATOM     36  C   UNL     1      33.500  -6.253 -22.610  0.00  0.00    -0.001 C 
ATOM     37  C   UNL     1      31.223  -7.020 -22.351  0.00  0.00    +0.000 C 
ATOM     38  C   UNL     1      32.184  -6.019 -22.210  0.00  0.00    -0.000 C 
BRANCH  34  39
ATOM     39  C   UNL     1      35.277  -7.691 -23.564  0.00  0.00    +0.164 C 
BRANCH  39  40
ATOM     40  O   UNL     1      35.739  -6.527 -24.236  0.00  0.00    -0.377 OA
ATOM     41  H   UNL     1      34.982  -6.042 -24.600  0.00  0.00    +0.211 HD
ENDBRANCH  39  40
ENDBRANCH  34  39
ENDBRANCH  32  33
ENDBRANCH  27  32
ENDBRANCH  25  26
ENDBRANCH   2  25
TORSDOF 8
ENDMDL
MODEL 9
REMARK VINA RESULT:     -11.2      2.481      3.760
REMARK  Name = 448408
REMARK  8 active torsions:
REMARK  status: ('A' for Active; 'I' for Inactive)
REMARK    1  A    between atoms: N_2  and  C_25
REMARK    2  A    between atoms: C_3  and  C_6
REMARK    3  A    between atoms: C_5  and  N_12
REMARK    4  A    between atoms: C_25  and  C_26
REMARK    5  A    between atoms: C_27  and  S_32
REMARK    6  A    between atoms: S_32  and  C_33
REMARK    7  A    between atoms: C_34  and  C_39
REMARK    8  A    between atoms: C_39  and  O_40
REMARK                            x       y       z     vdW  Elec       q    Type
REMARK                         _______ _______ _______ _____ _____    ______ ____
ROOT
ATOM      1  O   UNL     1      34.207 -23.623 -19.860  0.00  0.00    -0.270 OA
ATOM      2  N   UNL     1      33.840 -22.622 -17.802  0.00  0.00    -0.297 N 
ATOM      3  C   UNL     1      34.400 -22.671 -19.084  0.00  0.00    +0.246 C 
ATOM      4  H   UNL     1      34.035 -21.838 -17.239  0.00  0.00    +0.150 HD
ENDROOT
BRANCH   3   6
ATOM      5  C   UNL     1      35.532 -19.415 -20.592  0.00  0.00    +0.090 C 
ATOM      6  C   UNL     1      35.252 -21.559 -19.475  0.00  0.00    +0.055 C 
ATOM      7  C   UNL     1      34.721 -20.496 -20.206  0.00  0.00    +0.023 C 
ATOM      8  C   UNL     1      36.888 -19.428 -20.228  0.00  0.00    +0.018 C 
ATOM      9  C   UNL     1      36.602 -21.557 -19.121  0.00  0.00    +0.005 C 
ATOM     10  C   UNL     1      37.419 -20.492 -19.497  0.00  0.00    +0.002 C 
BRANCH   5  12
ATOM     11  O   UNL     1      34.978 -17.531 -25.402  0.00  0.00    -0.207 OA
ATOM     12  N   UNL     1      35.002 -18.355 -21.319  0.00  0.00    -0.137 N 
ATOM     13  N   UNL     1      34.988 -17.061 -20.905  0.00  0.00    -0.215 N 
ATOM     14  N   UNL     1      34.998 -18.443 -22.709  0.00  0.00    -0.143 NA
ATOM     15  N   UNL     1      34.958 -15.004 -22.250  0.00  0.00    -0.309 NA
ATOM     16  N   UNL     1      34.953 -15.342 -24.640  0.00  0.00    -0.251 NA
ATOM     17  N   UNL     1      34.929 -13.200 -23.767  0.00  0.00    -0.283 N 
ATOM     18  C   UNL     1      34.974 -16.260 -21.999  0.00  0.00    +0.243 C 
ATOM     19  C   UNL     1      34.982 -17.213 -23.119  0.00  0.00    +0.241 C 
ATOM     20  C   UNL     1      34.970 -16.709 -24.498  0.00  0.00    +0.239 C 
ATOM     21  C   UNL     1      34.948 -14.563 -23.576  0.00  0.00    +0.208 C 
ATOM     22  H   UNL     1      34.988 -16.756 -19.968  0.00  0.00    +0.175 HD
ATOM     23  H   UNL     1      34.924 -12.594 -22.991  0.00  0.00    +0.156 HD
ATOM     24  H   UNL     1      34.921 -12.831 -24.680  0.00  0.00    +0.156 HD
ENDBRANCH   5  12
ENDBRANCH   3   6
BRANCH   2  25
ATOM     25  C   UNL     1      32.993 -23.660 -17.259  0.00  0.00    +0.117 C 
BRANCH  25  26
ATOM     26  C   UNL     1      32.576 -23.362 -15.847  0.00  0.00    +0.003 C 
ATOM     27  C   UNL     1      33.344 -23.762 -14.757  0.00  0.00    +0.027 C 
ATOM     28  C   UNL     1      31.386 -22.668 -15.655  0.00  0.00    -0.002 C 
ATOM     29  C   UNL     1      32.916 -23.465 -13.463  0.00  0.00    +0.006 C 
ATOM     30  C   UNL     1      30.958 -22.371 -14.361  0.00  0.00    -0.000 C 
ATOM     31  C   UNL     1      31.723 -22.769 -13.265  0.00  0.00    +0.000 C 
BRANCH  27  32
ATOM     32  S   UNL     1      34.879 -24.656 -14.958  0.00  0.00    -0.087 S 
BRANCH  32  33
ATOM     33  C   UNL     1      35.816 -24.045 -13.565  0.00  0.00    +0.028 C 
ATOM     34  C   UNL     1      36.898 -23.178 -13.731  0.00  0.00    +0.013 C 
ATOM     35  C   UNL     1      35.445 -24.457 -12.284  0.00  0.00    +0.006 C 
ATOM     36  C   UNL     1      37.605 -22.723 -12.619  0.00  0.00    -0.001 C 
ATOM     37  C   UNL     1      36.153 -24.002 -11.172  0.00  0.00    +0.000 C 
ATOM     38  C   UNL     1      37.233 -23.135 -11.339  0.00  0.00    -0.000 C 
BRANCH  34  39
ATOM     39  C   UNL     1      37.335 -22.708 -15.081  0.00  0.00    +0.164 C 
BRANCH  39  40
ATOM     40  O   UNL     1      38.559 -23.344 -15.425  0.00  0.00    -0.377 OA
ATOM     41  H   UNL     1      38.660 -24.154 -14.900  0.00  0.00    +0.211 HD
ENDBRANCH  39  40
ENDBRANCH  34  39
ENDBRANCH  32  33
ENDBRANCH  27  32
ENDBRANCH  25  26
ENDBRANCH   2  25
TORSDOF 8
ENDMDL
