MODEL 1
REMARK VINA RESULT:     -11.5      0.000      0.000
REMARK  Name = 158376
REMARK  11 active torsions:
REMARK  status: ('A' for Active; 'I' for Inactive)
REMARK    1  A    between atoms: C_1  and  N_22
REMARK    2  A    between atoms: C_2  and  C_9
REMARK    3  A    between atoms: N_8  and  CA_11
REMARK    4  A    between atoms: CA_11  and  C_13
REMARK    5  A    between atoms: CA_11  and  CB_16
REMARK    6  A    between atoms: C_13  and  O_14
REMARK    7  A    between atoms: CB_16  and  CG_17
REMARK    8  A    between atoms: CG_17  and  CD_19
REMARK    9  A    between atoms: CD_19  and  OE1_20
REMARK   10  A    between atoms: N_22  and  C_24
REMARK   11  A    between atoms: C_24  and  C_29
REMARK                            x       y       z     vdW  Elec       q    Type
REMARK                         _______ _______ _______ _____ _____    ______ ____
ROOT
ATOM      1  C   UNL     1      35.688 -19.533 -20.646  0.00  0.00    +0.048 C 
ATOM      2  C   UNL     1      34.467 -21.596 -19.218  0.00  0.00    +0.053 C 
ATOM      3  C   UNL     1      34.302 -19.688 -20.694  0.00  0.00    +0.015 C 
ATOM      4  C   UNL     1      36.462 -20.407 -19.885  0.00  0.00    +0.015 C 
ATOM      5  C   UNL     1      33.692 -20.719 -19.980  0.00  0.00    +0.006 C 
ATOM      6  C   UNL     1      35.851 -21.439 -19.171  0.00  0.00    +0.006 C 
ENDROOT
BRANCH   2   9
ATOM      7  O   UNL     1      33.873 -23.840 -18.894  0.00  0.00    -0.270 OA
ATOM      8  N   UNL     1      33.200 -22.327 -17.269  0.00  0.00    -0.293 N 
ATOM      9  C   ACE A   0      33.816 -22.693 -18.458  0.00  0.00    +0.246 C 
ATOM     10  H   UNL     1      33.207 -21.379 -17.004  0.00  0.00    +0.150 HD
BRANCH   8  11
ATOM     11  CA  UNL     1      32.548 -23.281 -16.408  0.00  0.00    +0.172 C 
BRANCH  11  13
ATOM     12  OXT UNL     1      30.418 -22.270 -17.019  0.00  0.00    -0.248 OA
ATOM     13  C   UNL     1      31.132 -22.796 -16.174  0.00  0.00    +0.332 C 
BRANCH  13  14
ATOM     14  O   UNL     1      30.713 -23.045 -14.906  0.00  0.00    -0.479 OA
ATOM     15  H   UNL     1      29.798 -23.104 -14.718  0.00  0.00    +0.295 HD
ENDBRANCH  13  14
ENDBRANCH  11  13
BRANCH  11  16
ATOM     16  CB  UNL     1      33.332 -23.548 -15.118  0.00  0.00    +0.043 C 
BRANCH  16  17
ATOM     17  CG  UNL     1      34.769 -23.013 -15.087  0.00  0.00    +0.112 C 
BRANCH  17  19
ATOM     18  OE2 UNL     1      35.669 -25.262 -15.349  0.00  0.00    -0.250 OA
ATOM     19  CD  UNL     1      35.814 -24.050 -15.435  0.00  0.00    +0.314 C 
BRANCH  19  20
ATOM     20  OE1 UNL     1      36.981 -23.473 -15.828  0.00  0.00    -0.480 OA
ATOM     21  HE1 UNL     1      36.965 -22.711 -16.372  0.00  0.00    +0.295 HD
ENDBRANCH  19  20
ENDBRANCH  17  19
ENDBRANCH  16  17
ENDBRANCH  11  16
ENDBRANCH   8  11
ENDBRANCH   2   9
BRANCH   1  22
ATOM     22  N   UNL     1      36.305 -18.490 -21.366  0.00  0.00    -0.302 N 
ATOM     23  C   UNL     1      37.624 -18.673 -21.939  0.00  0.00    +0.112 C 
BRANCH  22  24
ATOM     24  C   UNL     1      35.622 -17.225 -21.557  0.00  0.00    +0.118 C 
BRANCH  24  29
ATOM     25  O   UNL     1      34.488 -17.322 -25.074  0.00  0.00    -0.427 OA
ATOM     26  N   UNL     1      33.834 -15.110 -25.692  0.00  0.00    -0.294 NA
ATOM     27  N   UNL     1      34.088 -13.474 -23.905  0.00  0.00    -0.317 NA
ATOM     28  N   UNL     1      33.271 -12.862 -26.012  0.00  0.00    -0.283 N 
ATOM     29  C   UNL     1      35.115 -16.964 -22.942  0.00  0.00    +0.031 C 
ATOM     30  C   UNL     1      34.685 -15.731 -23.488  0.00  0.00    +0.180 C 
ATOM     31  C   UNL     1      34.308 -15.997 -24.801  0.00  0.00    +0.281 C 
ATOM     32  C   UNL     1      34.977 -17.896 -23.944  0.00  0.00    +0.176 C 
ATOM     33  C   UNL     1      34.559 -14.413 -23.054  0.00  0.00    +0.181 C 
ATOM     34  C   UNL     1      33.759 -13.875 -25.154  0.00  0.00    +0.200 C 
ATOM     35  H   UNL     1      33.013 -13.083 -26.936  0.00  0.00    +0.156 HD
ATOM     36  H   UNL     1      33.190 -11.937 -25.685  0.00  0.00    +0.156 HD
ATOM     37  N   UNL     1      34.915 -14.045 -21.744  0.00  0.00    -0.335 N 
ATOM     38  H   UNL     1      34.820 -13.109 -21.452  0.00  0.00    +0.144 HD
ATOM     39  H   UNL     1      35.260 -14.722 -21.118  0.00  0.00    +0.144 HD
ENDBRANCH  24  29
ENDBRANCH  22  24
ENDBRANCH   1  22
TORSDOF 11
ENDMDL
MODEL 2
REMARK VINA RESULT:     -11.0      1.782      2.626
REMARK  Name = 158376
REMARK  11 active torsions:
REMARK  status: ('A' for Active; 'I' for Inactive)
REMARK    1  A    between atoms: C_1  and  N_22
REMARK    2  A    between atoms: C_2  and  C_9
REMARK    3  A    between atoms: N_8  and  CA_11
REMARK    4  A    between atoms: CA_11  and  C_13
REMARK    5  A    between atoms: CA_11  and  CB_16
REMARK    6  A    between atoms: C_13  and  O_14
REMARK    7  A    between atoms: CB_16  and  CG_17
REMARK    8  A    between atoms: CG_17  and  CD_19
REMARK    9  A    between atoms: CD_19  and  OE1_20
REMARK   10  A    between atoms: N_22  and  C_24
REMARK   11  A    between atoms: C_24  and  C_29
REMARK                            x       y       z     vdW  Elec       q    Type
REMARK                         _______ _______ _______ _____ _____    ______ ____
ROOT
ATOM      1  C   UNL     1      35.146 -20.377 -20.207  0.00  0.00    +0.048 C 
ATOM      2  C   UNL     1      33.799 -21.965 -18.350  0.00  0.00    +0.053 C 
ATOM      3  C   UNL     1      33.751 -20.387 -20.181  0.00  0.00    +0.015 C 
ATOM      4  C   UNL     1      35.867 -21.159 -19.305  0.00  0.00    +0.015 C 
ATOM      5  C   UNL     1      33.078 -21.181 -19.252  0.00  0.00    +0.006 C 
ATOM      6  C   UNL     1      35.193 -21.953 -18.377  0.00  0.00    +0.006 C 
ENDROOT
BRANCH   2   9
ATOM      7  O   UNL     1      33.621 -23.831 -16.942  0.00  0.00    -0.270 OA
ATOM      8  N   UNL     1      31.834 -22.352 -16.961  0.00  0.00    -0.293 N 
ATOM      9  C   ACE A   0      33.081 -22.810 -17.361  0.00  0.00    +0.246 C 
ATOM     10  H   UNL     1      31.486 -21.520 -17.356  0.00  0.00    +0.150 HD
BRANCH   8  11
ATOM     11  CA  UNL     1      31.027 -23.047 -15.991  0.00  0.00    +0.172 C 
BRANCH  11  13
ATOM     12  OXT UNL     1      29.051 -21.886 -16.815  0.00  0.00    -0.248 OA
ATOM     13  C   UNL     1      29.580 -22.917 -16.419  0.00  0.00    +0.332 C 
BRANCH  13  14
ATOM     14  O   UNL     1      28.922 -24.105 -16.352  0.00  0.00    -0.479 OA
ATOM     15  H   UNL     1      29.231 -24.839 -16.844  0.00  0.00    +0.295 HD
ENDBRANCH  13  14
ENDBRANCH  11  13
BRANCH  11  16
ATOM     16  CB  UNL     1      31.292 -22.578 -14.555  0.00  0.00    +0.043 C 
BRANCH  16  17
ATOM     17  CG  UNL     1      31.132 -23.645 -13.464  0.00  0.00    +0.112 C 
BRANCH  17  19
ATOM     18  OE2 UNL     1      30.504 -25.793 -14.428  0.00  0.00    -0.250 OA
ATOM     19  CD  UNL     1      31.360 -25.058 -13.955  0.00  0.00    +0.314 C 
BRANCH  19  20
ATOM     20  OE1 UNL     1      32.649 -25.449 -13.772  0.00  0.00    -0.480 OA
ATOM     21  HE1 UNL     1      32.838 -26.331 -13.517  0.00  0.00    +0.295 HD
ENDBRANCH  19  20
ENDBRANCH  17  19
ENDBRANCH  16  17
ENDBRANCH  11  16
ENDBRANCH   8  11
ENDBRANCH   2   9
BRANCH   1  22
ATOM     22  N   UNL     1      35.827 -19.573 -21.144  0.00  0.00    -0.302 N 
ATOM     23  C   UNL     1      37.208 -19.197 -20.922  0.00  0.00    +0.112 C 
BRANCH  22  24
ATOM     24  C   UNL     1      35.158 -19.125 -22.351  0.00  0.00    +0.118 C 
BRANCH  24  29
ATOM     25  O   UNL     1      35.496 -15.446 -22.242  0.00  0.00    -0.427 OA
ATOM     26  N   UNL     1      34.343 -14.550 -24.131  0.00  0.00    -0.294 NA
ATOM     27  N   UNL     1      33.307 -16.242 -25.545  0.00  0.00    -0.317 NA
ATOM     28  N   UNL     1      33.146 -13.963 -26.054  0.00  0.00    -0.283 N 
ATOM     29  C   UNL     1      35.129 -17.644 -22.564  0.00  0.00    +0.031 C 
ATOM     30  C   UNL     1      34.501 -16.933 -23.615  0.00  0.00    +0.180 C 
ATOM     31  C   UNL     1      34.753 -15.585 -23.378  0.00  0.00    +0.281 C 
ATOM     32  C   UNL     1      35.716 -16.696 -21.758  0.00  0.00    +0.176 C 
ATOM     33  C   UNL     1      33.749 -17.241 -24.747  0.00  0.00    +0.181 C 
ATOM     34  C   UNL     1      33.628 -14.976 -25.193  0.00  0.00    +0.200 C 
ATOM     35  H   UNL     1      33.341 -13.018 -25.858  0.00  0.00    +0.156 HD
ATOM     36  H   UNL     1      32.616 -14.203 -26.847  0.00  0.00    +0.156 HD
ATOM     37  N   UNL     1      33.441 -18.575 -25.070  0.00  0.00    -0.335 N 
ATOM     38  H   UNL     1      32.909 -18.776 -25.873  0.00  0.00    +0.144 HD
ATOM     39  H   UNL     1      33.758 -19.308 -24.494  0.00  0.00    +0.144 HD
ENDBRANCH  24  29
ENDBRANCH  22  24
ENDBRANCH   1  22
TORSDOF 11
ENDMDL
MODEL 3
REMARK VINA RESULT:     -10.9      1.190      1.775
REMARK  Name = 158376
REMARK  11 active torsions:
REMARK  status: ('A' for Active; 'I' for Inactive)
REMARK    1  A    between atoms: C_1  and  N_22
REMARK    2  A    between atoms: C_2  and  C_9
REMARK    3  A    between atoms: N_8  and  CA_11
REMARK    4  A    between atoms: CA_11  and  C_13
REMARK    5  A    between atoms: CA_11  and  CB_16
REMARK    6  A    between atoms: C_13  and  O_14
REMARK    7  A    between atoms: CB_16  and  CG_17
REMARK    8  A    between atoms: CG_17  and  CD_19
REMARK    9  A    between atoms: CD_19  and  OE1_20
REMARK   10  A    between atoms: N_22  and  C_24
REMARK   11  A    between atoms: C_24  and  C_29
REMARK                            x       y       z     vdW  Elec       q    Type
REMARK                         _______ _______ _______ _____ _____    ______ ____
ROOT
ATOM      1  C   UNL     1      35.679 -19.373 -20.840  0.00  0.00    +0.048 C 
ATOM      2  C   UNL     1      34.534 -21.544 -19.514  0.00  0.00    +0.053 C 
ATOM      3  C   UNL     1      36.492 -20.290 -20.172  0.00  0.00    +0.015 C 
ATOM      4  C   UNL     1      34.295 -19.542 -20.845  0.00  0.00    +0.015 C 
ATOM      5  C   UNL     1      35.919 -21.375 -19.509  0.00  0.00    +0.006 C 
ATOM      6  C   UNL     1      33.722 -20.628 -20.181  0.00  0.00    +0.006 C 
ENDROOT
BRANCH   2   9
ATOM      7  O   UNL     1      34.023 -23.822 -19.298  0.00  0.00    -0.270 OA
ATOM      8  N   UNL     1      33.294 -22.414 -17.605  0.00  0.00    -0.293 N 
ATOM      9  C   ACE A   0      33.924 -22.700 -18.808  0.00  0.00    +0.246 C 
ATOM     10  H   UNL     1      33.267 -21.481 -17.294  0.00  0.00    +0.150 HD
BRANCH   8  11
ATOM     11  CA  UNL     1      32.677 -23.432 -16.792  0.00  0.00    +0.172 C 
BRANCH  11  13
ATOM     12  OXT UNL     1      30.580 -23.439 -15.554  0.00  0.00    -0.248 OA
ATOM     13  C   UNL     1      31.294 -22.943 -16.416  0.00  0.00    +0.332 C 
BRANCH  13  14
ATOM     14  O   UNL     1      30.933 -21.844 -17.130  0.00  0.00    -0.479 OA
ATOM     15  H   UNL     1      31.540 -21.141 -17.246  0.00  0.00    +0.295 HD
ENDBRANCH  13  14
ENDBRANCH  11  13
BRANCH  11  16
ATOM     16  CB  UNL     1      33.540 -23.833 -15.589  0.00  0.00    +0.043 C 
BRANCH  16  17
ATOM     17  CG  UNL     1      33.431 -22.927 -14.357  0.00  0.00    +0.112 C 
BRANCH  17  19
ATOM     18  OE2 UNL     1      33.894 -24.290 -12.391  0.00  0.00    -0.250 OA
ATOM     19  CD  UNL     1      33.098 -23.669 -13.081  0.00  0.00    +0.314 C 
BRANCH  19  20
ATOM     20  OE1 UNL     1      31.770 -23.603 -12.796  0.00  0.00    -0.480 OA
ATOM     21  HE1 UNL     1      31.464 -23.823 -11.938  0.00  0.00    +0.295 HD
ENDBRANCH  19  20
ENDBRANCH  17  19
ENDBRANCH  16  17
ENDBRANCH  11  16
ENDBRANCH   8  11
ENDBRANCH   2   9
BRANCH   1  22
ATOM     22  N   UNL     1      36.258 -18.276 -21.511  0.00  0.00    -0.302 N 
ATOM     23  C   UNL     1      37.591 -18.378 -22.071  0.00  0.00    +0.112 C 
BRANCH  22  24
ATOM     24  C   UNL     1      35.521 -17.037 -21.663  0.00  0.00    +0.118 C 
BRANCH  24  29
ATOM     25  O   UNL     1      34.535 -16.982 -25.225  0.00  0.00    -0.427 OA
ATOM     26  N   UNL     1      33.886 -14.750 -25.770  0.00  0.00    -0.294 NA
ATOM     27  N   UNL     1      34.048 -13.195 -23.902  0.00  0.00    -0.317 NA
ATOM     28  N   UNL     1      33.314 -12.495 -26.011  0.00  0.00    -0.283 N 
ATOM     29  C   UNL     1      35.069 -16.717 -23.055  0.00  0.00    +0.031 C 
ATOM     30  C   UNL     1      34.650 -15.464 -23.562  0.00  0.00    +0.180 C 
ATOM     31  C   UNL     1      34.331 -15.674 -24.900  0.00  0.00    +0.281 C 
ATOM     32  C   UNL     1      34.982 -17.604 -24.103  0.00  0.00    +0.176 C 
ATOM     33  C   UNL     1      34.493 -14.168 -23.074  0.00  0.00    +0.181 C 
ATOM     34  C   UNL     1      33.775 -13.542 -25.180  0.00  0.00    +0.200 C 
ATOM     35  H   UNL     1      33.096 -12.675 -26.954  0.00  0.00    +0.156 HD
ATOM     36  H   UNL     1      33.210 -11.587 -25.646  0.00  0.00    +0.156 HD
ATOM     37  N   UNL     1      34.791 -13.857 -21.735  0.00  0.00    -0.335 N 
ATOM     38  H   UNL     1      34.674 -12.937 -21.406  0.00  0.00    +0.144 HD
ATOM     39  H   UNL     1      35.116 -14.560 -21.126  0.00  0.00    +0.144 HD
ENDBRANCH  24  29
ENDBRANCH  22  24
ENDBRANCH   1  22
TORSDOF 11
ENDMDL
MODEL 4
REMARK VINA RESULT:     -10.6      3.853     11.014
REMARK  Name = 158376
REMARK  11 active torsions:
REMARK  status: ('A' for Active; 'I' for Inactive)
REMARK    1  A    between atoms: C_1  and  N_22
REMARK    2  A    between atoms: C_2  and  C_9
REMARK    3  A    between atoms: N_8  and  CA_11
REMARK    4  A    between atoms: CA_11  and  C_13
REMARK    5  A    between atoms: CA_11  and  CB_16
REMARK    6  A    between atoms: C_13  and  O_14
REMARK    7  A    between atoms: CB_16  and  CG_17
REMARK    8  A    between atoms: CG_17  and  CD_19
REMARK    9  A    between atoms: CD_19  and  OE1_20
REMARK   10  A    between atoms: N_22  and  C_24
REMARK   11  A    between atoms: C_24  and  C_29
REMARK                            x       y       z     vdW  Elec       q    Type
REMARK                         _______ _______ _______ _____ _____    ______ ____
ROOT
ATOM      1  C   UNL     1      34.335 -22.910 -16.132  0.00  0.00    +0.048 C 
ATOM      2  C   UNL     1      35.437 -21.707 -18.396  0.00  0.00    +0.053 C 
ATOM      3  C   UNL     1      35.652 -22.452 -16.106  0.00  0.00    +0.015 C 
ATOM      4  C   UNL     1      33.569 -22.766 -17.289  0.00  0.00    +0.015 C 
ATOM      5  C   UNL     1      36.203 -21.851 -17.238  0.00  0.00    +0.006 C 
ATOM      6  C   UNL     1      34.121 -22.165 -18.421  0.00  0.00    +0.006 C 
ENDROOT
BRANCH   2   9
ATOM      7  O   UNL     1      37.152 -21.391 -19.963  0.00  0.00    -0.270 OA
ATOM      8  N   UNL     1      35.218 -20.144 -20.252  0.00  0.00    -0.293 N 
ATOM      9  C   ACE A   0      36.024 -21.067 -19.600  0.00  0.00    +0.246 C 
ATOM     10  H   UNL     1      34.326 -19.950 -19.883  0.00  0.00    +0.150 HD
BRANCH   8  11
ATOM     11  CA  UNL     1      35.636 -19.457 -21.448  0.00  0.00    +0.172 C 
BRANCH  11  13
ATOM     12  OXT UNL     1      35.758 -17.065 -21.005  0.00  0.00    -0.248 OA
ATOM     13  C   UNL     1      36.300 -18.163 -21.025  0.00  0.00    +0.332 C 
BRANCH  13  14
ATOM     14  O   UNL     1      37.584 -18.359 -20.625  0.00  0.00    -0.479 OA
ATOM     15  H   UNL     1      37.809 -19.119 -20.127  0.00  0.00    +0.295 HD
ENDBRANCH  13  14
ENDBRANCH  11  13
BRANCH  11  16
ATOM     16  CB  UNL     1      34.493 -19.267 -22.452  0.00  0.00    +0.043 C 
BRANCH  16  17
ATOM     17  CG  UNL     1      34.913 -19.109 -23.919  0.00  0.00    +0.112 C 
BRANCH  17  19
ATOM     18  OE2 UNL     1      33.767 -17.351 -25.158  0.00  0.00    -0.250 OA
ATOM     19  CD  UNL     1      34.708 -17.712 -24.464  0.00  0.00    +0.314 C 
BRANCH  19  20
ATOM     20  OE1 UNL     1      35.732 -16.886 -24.123  0.00  0.00    -0.480 OA
ATOM     21  HE1 UNL     1      36.514 -17.241 -23.748  0.00  0.00    +0.295 HD
ENDBRANCH  19  20
ENDBRANCH  17  19
ENDBRANCH  16  17
ENDBRANCH  11  16
ENDBRANCH   8  11
ENDBRANCH   2   9
BRANCH   1  22
ATOM     22  N   UNL     1      33.776 -23.516 -14.988  0.00  0.00    -0.302 N 
ATOM     23  C   UNL     1      32.552 -23.002 -14.408  0.00  0.00    +0.112 C 
BRANCH  22  24
ATOM     24  C   UNL     1      34.412 -24.672 -14.386  0.00  0.00    +0.118 C 
BRANCH  24  29
ATOM     25  O   UNL     1      37.315 -23.490 -12.426  0.00  0.00    -0.427 OA
ATOM     26  N   UNL     1      39.187 -24.860 -12.994  0.00  0.00    -0.294 NA
ATOM     27  N   UNL     1      38.681 -26.583 -14.639  0.00  0.00    -0.317 NA
ATOM     28  N   UNL     1      40.829 -26.350 -13.738  0.00  0.00    -0.283 N 
ATOM     29  C   UNL     1      35.738 -24.418 -13.737  0.00  0.00    +0.031 C 
ATOM     30  C   UNL     1      36.951 -25.118 -13.944  0.00  0.00    +0.180 C 
ATOM     31  C   UNL     1      37.894 -24.514 -13.117  0.00  0.00    +0.281 C 
ATOM     32  C   UNL     1      36.013 -23.440 -12.809  0.00  0.00    +0.176 C 
ATOM     33  C   UNL     1      37.390 -26.188 -14.720  0.00  0.00    +0.181 C 
ATOM     34  C   UNL     1      39.488 -25.904 -13.792  0.00  0.00    +0.200 C 
ATOM     35  H   UNL     1      41.473 -25.901 -13.143  0.00  0.00    +0.156 HD
ATOM     36  H   UNL     1      41.118 -27.108 -14.295  0.00  0.00    +0.156 HD
ATOM     37  N   UNL     1      36.511 -26.863 -15.587  0.00  0.00    -0.335 N 
ATOM     38  H   UNL     1      36.837 -27.617 -16.128  0.00  0.00    +0.144 HD
ATOM     39  H   UNL     1      35.570 -26.581 -15.652  0.00  0.00    +0.144 HD
ENDBRANCH  24  29
ENDBRANCH  22  24
ENDBRANCH   1  22
TORSDOF 11
ENDMDL
MODEL 5
REMARK VINA RESULT:     -10.5      2.550      3.670
REMARK  Name = 158376
REMARK  11 active torsions:
REMARK  status: ('A' for Active; 'I' for Inactive)
REMARK    1  A    between atoms: C_1  and  N_22
REMARK    2  A    between atoms: C_2  and  C_9
REMARK    3  A    between atoms: N_8  and  CA_11
REMARK    4  A    between atoms: CA_11  and  C_13
REMARK    5  A    between atoms: CA_11  and  CB_16
REMARK    6  A    between atoms: C_13  and  O_14
REMARK    7  A    between atoms: CB_16  and  CG_17
REMARK    8  A    between atoms: CG_17  and  CD_19
REMARK    9  A    between atoms: CD_19  and  OE1_20
REMARK   10  A    between atoms: N_22  and  C_24
REMARK   11  A    between atoms: C_24  and  C_29
REMARK                            x       y       z     vdW  Elec       q    Type
REMARK                         _______ _______ _______ _____ _____    ______ ____
ROOT
ATOM      1  C   UNL     1      35.479 -20.737 -19.542  0.00  0.00    +0.048 C 
ATOM      2  C   UNL     1      36.328 -22.001 -17.204  0.00  0.00    +0.053 C 
ATOM      3  C   UNL     1      36.784 -20.553 -19.085  0.00  0.00    +0.015 C 
ATOM      4  C   UNL     1      34.599 -21.553 -18.831  0.00  0.00    +0.015 C 
ATOM      5  C   UNL     1      37.208 -21.185 -17.916  0.00  0.00    +0.006 C 
ATOM      6  C   UNL     1      35.024 -22.184 -17.661  0.00  0.00    +0.006 C 
ENDROOT
BRANCH   2   9
ATOM      7  O   UNL     1      37.837 -22.324 -15.439  0.00  0.00    -0.270 OA
ATOM      8  N   UNL     1      35.937 -23.654 -15.457  0.00  0.00    -0.293 N 
ATOM      9  C   ACE A   0      36.781 -22.673 -15.959  0.00  0.00    +0.246 C 
ATOM     10  H   UNL     1      35.109 -23.864 -15.948  0.00  0.00    +0.150 HD
BRANCH   8  11
ATOM     11  CA  UNL     1      36.225 -24.379 -14.246  0.00  0.00    +0.172 C 
BRANCH  11  13
ATOM     12  OXT UNL     1      36.193 -26.321 -15.716  0.00  0.00    -0.248 OA
ATOM     13  C   UNL     1      36.433 -25.833 -14.619  0.00  0.00    +0.332 C 
BRANCH  13  14
ATOM     14  O   UNL     1      36.963 -26.549 -13.593  0.00  0.00    -0.479 OA
ATOM     15  H   UNL     1      36.977 -26.189 -12.729  0.00  0.00    +0.295 HD
ENDBRANCH  13  14
ENDBRANCH  11  13
BRANCH  11  16
ATOM     16  CB  UNL     1      35.163 -24.165 -13.160  0.00  0.00    +0.043 C 
BRANCH  16  17
ATOM     17  CG  UNL     1      35.659 -23.525 -11.858  0.00  0.00    +0.112 C 
BRANCH  17  19
ATOM     18  OE2 UNL     1      35.438 -25.047  -9.967  0.00  0.00    -0.250 OA
ATOM     19  CD  UNL     1      36.135 -24.527 -10.828  0.00  0.00    +0.314 C 
BRANCH  19  20
ATOM     20  OE1 UNL     1      37.468 -24.766 -10.942  0.00  0.00    -0.480 OA
ATOM     21  HE1 UNL     1      37.933 -25.168 -10.235  0.00  0.00    +0.295 HD
ENDBRANCH  19  20
ENDBRANCH  17  19
ENDBRANCH  16  17
ENDBRANCH  11  16
ENDBRANCH   8  11
ENDBRANCH   2   9
BRANCH   1  22
ATOM     22  N   UNL     1      35.050 -20.100 -20.724  0.00  0.00    -0.302 N 
ATOM     23  C   UNL     1      33.636 -19.980 -21.022  0.00  0.00    +0.112 C 
BRANCH  22  24
ATOM     24  C   UNL     1      36.016 -19.543 -21.651  0.00  0.00    +0.118 C 
BRANCH  24  29
ATOM     25  O   UNL     1      34.653 -18.786 -25.002  0.00  0.00    -0.427 OA
ATOM     26  N   UNL     1      34.174 -16.448 -25.086  0.00  0.00    -0.294 NA
ATOM     27  N   UNL     1      34.698 -15.263 -23.023  0.00  0.00    -0.317 NA
ATOM     28  N   UNL     1      33.809 -14.147 -24.878  0.00  0.00    -0.283 N 
ATOM     29  C   UNL     1      35.447 -18.950 -22.902  0.00  0.00    +0.031 C 
ATOM     30  C   UNL     1      35.103 -17.597 -23.140  0.00  0.00    +0.180 C 
ATOM     31  C   UNL     1      34.618 -17.543 -24.443  0.00  0.00    +0.281 C 
ATOM     32  C   UNL     1      35.156 -19.629 -24.063  0.00  0.00    +0.176 C 
ATOM     33  C   UNL     1      35.131 -16.399 -22.430  0.00  0.00    +0.181 C 
ATOM     34  C   UNL     1      34.252 -15.357 -24.296  0.00  0.00    +0.200 C 
ATOM     35  H   UNL     1      33.471 -14.141 -25.804  0.00  0.00    +0.156 HD
ATOM     36  H   UNL     1      33.838 -13.312 -24.359  0.00  0.00    +0.156 HD
ATOM     37  N   UNL     1      35.606 -16.352 -21.106  0.00  0.00    -0.335 N 
ATOM     38  H   UNL     1      35.619 -15.498 -20.618  0.00  0.00    +0.144 HD
ATOM     39  H   UNL     1      35.924 -17.174 -20.667  0.00  0.00    +0.144 HD
ENDBRANCH  24  29
ENDBRANCH  22  24
ENDBRANCH   1  22
TORSDOF 11
ENDMDL
MODEL 6
REMARK VINA RESULT:     -10.5      2.482      3.841
REMARK  Name = 158376
REMARK  11 active torsions:
REMARK  status: ('A' for Active; 'I' for Inactive)
REMARK    1  A    between atoms: C_1  and  N_22
REMARK    2  A    between atoms: C_2  and  C_9
REMARK    3  A    between atoms: N_8  and  CA_11
REMARK    4  A    between atoms: CA_11  and  C_13
REMARK    5  A    between atoms: CA_11  and  CB_16
REMARK    6  A    between atoms: C_13  and  O_14
REMARK    7  A    between atoms: CB_16  and  CG_17
REMARK    8  A    between atoms: CG_17  and  CD_19
REMARK    9  A    between atoms: CD_19  and  OE1_20
REMARK   10  A    between atoms: N_22  and  C_24
REMARK   11  A    between atoms: C_24  and  C_29
REMARK                            x       y       z     vdW  Elec       q    Type
REMARK                         _______ _______ _______ _____ _____    ______ ____
ROOT
ATOM      1  C   UNL     1      34.913 -20.839 -19.635  0.00  0.00    +0.048 C 
ATOM      2  C   UNL     1      35.430 -22.423 -17.397  0.00  0.00    +0.053 C 
ATOM      3  C   UNL     1      36.209 -20.924 -19.125  0.00  0.00    +0.015 C 
ATOM      4  C   UNL     1      33.876 -21.546 -19.027  0.00  0.00    +0.015 C 
ATOM      5  C   UNL     1      36.467 -21.716 -18.007  0.00  0.00    +0.006 C 
ATOM      6  C   UNL     1      34.135 -22.338 -17.908  0.00  0.00    +0.006 C 
ENDROOT
BRANCH   2   9
ATOM      7  O   UNL     1      34.814 -23.984 -15.760  0.00  0.00    -0.270 OA
ATOM      8  N   UNL     1      36.993 -23.192 -15.693  0.00  0.00    -0.293 N 
ATOM      9  C   ACE A   0      35.706 -23.267 -16.206  0.00  0.00    +0.246 C 
ATOM     10  H   UNL     1      37.639 -22.585 -16.121  0.00  0.00    +0.150 HD
BRANCH   8  11
ATOM     11  CA  UNL     1      37.421 -23.968 -14.556  0.00  0.00    +0.172 C 
BRANCH  11  13
ATOM     12  OXT UNL     1      37.996 -22.524 -12.681  0.00  0.00    -0.248 OA
ATOM     13  C   UNL     1      37.151 -23.146 -13.312  0.00  0.00    +0.332 C 
BRANCH  13  14
ATOM     14  O   UNL     1      35.833 -23.142 -12.983  0.00  0.00    -0.479 OA
ATOM     15  H   UNL     1      35.529 -22.611 -12.274  0.00  0.00    +0.295 HD
ENDBRANCH  13  14
ENDBRANCH  11  13
BRANCH  11  16
ATOM     16  CB  UNL     1      38.872 -24.448 -14.679  0.00  0.00    +0.043 C 
BRANCH  16  17
ATOM     17  CG  UNL     1      39.097 -25.952 -14.477  0.00  0.00    +0.112 C 
BRANCH  17  19
ATOM     18  OE2 UNL     1      41.367 -26.749 -14.091  0.00  0.00    -0.250 OA
ATOM     19  CD  UNL     1      40.482 -26.419 -14.869  0.00  0.00    +0.314 C 
BRANCH  19  20
ATOM     20  OE1 UNL     1      40.656 -26.394 -16.217  0.00  0.00    -0.480 OA
ATOM     21  HE1 UNL     1      40.250 -27.046 -16.753  0.00  0.00    +0.295 HD
ENDBRANCH  19  20
ENDBRANCH  17  19
ENDBRANCH  16  17
ENDBRANCH  11  16
ENDBRANCH   8  11
ENDBRANCH   2   9
BRANCH   1  22
ATOM     22  N   UNL     1      34.651 -20.040 -20.767  0.00  0.00    -0.302 N 
ATOM     23  C   UNL     1      33.289 -19.698 -21.126  0.00  0.00    +0.112 C 
BRANCH  22  24
ATOM     24  C   UNL     1      35.743 -19.536 -21.578  0.00  0.00    +0.118 C 
BRANCH  24  29
ATOM     25  O   UNL     1      34.809 -18.580 -25.025  0.00  0.00    -0.427 OA
ATOM     26  N   UNL     1      34.418 -16.225 -25.049  0.00  0.00    -0.294 NA
ATOM     27  N   UNL     1      34.731 -15.153 -22.884  0.00  0.00    -0.317 NA
ATOM     28  N   UNL     1      34.102 -13.923 -24.774  0.00  0.00    -0.283 N 
ATOM     29  C   UNL     1      35.345 -18.866 -22.857  0.00  0.00    +0.031 C 
ATOM     30  C   UNL     1      35.073 -17.493 -23.067  0.00  0.00    +0.180 C 
ATOM     31  C   UNL     1      34.747 -17.362 -24.413  0.00  0.00    +0.281 C 
ATOM     32  C   UNL     1      35.172 -19.482 -24.075  0.00  0.00    +0.176 C 
ATOM     33  C   UNL     1      35.055 -16.329 -22.300  0.00  0.00    +0.181 C 
ATOM     34  C   UNL     1      34.435 -15.174 -24.204  0.00  0.00    +0.200 C 
ATOM     35  H   UNL     1      33.877 -13.864 -25.730  0.00  0.00    +0.156 HD
ATOM     36  H   UNL     1      34.096 -13.114 -24.214  0.00  0.00    +0.156 HD
ATOM     37  N   UNL     1      35.371 -16.360 -20.930  0.00  0.00    -0.335 N 
ATOM     38  H   UNL     1      35.353 -15.529 -20.402  0.00  0.00    +0.144 HD
ATOM     39  H   UNL     1      35.609 -17.212 -20.497  0.00  0.00    +0.144 HD
ENDBRANCH  24  29
ENDBRANCH  22  24
ENDBRANCH   1  22
TORSDOF 11
ENDMDL
MODEL 7
REMARK VINA RESULT:     -10.4      1.220      2.021
REMARK  Name = 158376
REMARK  11 active torsions:
REMARK  status: ('A' for Active; 'I' for Inactive)
REMARK    1  A    between atoms: C_1  and  N_22
REMARK    2  A    between atoms: C_2  and  C_9
REMARK    3  A    between atoms: N_8  and  CA_11
REMARK    4  A    between atoms: CA_11  and  C_13
REMARK    5  A    between atoms: CA_11  and  CB_16
REMARK    6  A    between atoms: C_13  and  O_14
REMARK    7  A    between atoms: CB_16  and  CG_17
REMARK    8  A    between atoms: CG_17  and  CD_19
REMARK    9  A    between atoms: CD_19  and  OE1_20
REMARK   10  A    between atoms: N_22  and  C_24
REMARK   11  A    between atoms: C_24  and  C_29
REMARK                            x       y       z     vdW  Elec       q    Type
REMARK                         _______ _______ _______ _____ _____    ______ ____
ROOT
ATOM      1  C   UNL     1      35.560 -19.753 -20.676  0.00  0.00    +0.048 C 
ATOM      2  C   UNL     1      34.378 -21.755 -19.133  0.00  0.00    +0.053 C 
ATOM      3  C   UNL     1      36.357 -20.613 -19.920  0.00  0.00    +0.015 C 
ATOM      4  C   UNL     1      34.172 -19.894 -20.660  0.00  0.00    +0.015 C 
ATOM      5  C   UNL     1      35.766 -21.614 -19.149  0.00  0.00    +0.006 C 
ATOM      6  C   UNL     1      33.582 -20.896 -19.889  0.00  0.00    +0.006 C 
ENDROOT
BRANCH   2   9
ATOM      7  O   UNL     1      33.797 -23.986 -18.703  0.00  0.00    -0.270 OA
ATOM      8  N   UNL     1      33.162 -22.408 -17.125  0.00  0.00    -0.293 N 
ATOM      9  C   ACE A   0      33.749 -22.822 -18.312  0.00  0.00    +0.246 C 
ATOM     10  H   UNL     1      33.175 -21.450 -16.898  0.00  0.00    +0.150 HD
BRANCH   8  11
ATOM     11  CA  UNL     1      32.534 -23.327 -16.209  0.00  0.00    +0.172 C 
BRANCH  11  13
ATOM     12  OXT UNL     1      30.317 -23.301 -15.201  0.00  0.00    -0.248 OA
ATOM     13  C   UNL     1      31.078 -22.926 -16.084  0.00  0.00    +0.332 C 
BRANCH  13  14
ATOM     14  O   UNL     1      30.706 -22.056 -17.059  0.00  0.00    -0.479 OA
ATOM     15  H   UNL     1      30.230 -22.364 -17.804  0.00  0.00    +0.295 HD
ENDBRANCH  13  14
ENDBRANCH  11  13
BRANCH  11  16
ATOM     16  CB  UNL     1      33.268 -23.420 -14.866  0.00  0.00    +0.043 C 
BRANCH  16  17
ATOM     17  CG  UNL     1      34.726 -22.945 -14.867  0.00  0.00    +0.112 C 
BRANCH  17  19
ATOM     18  OE2 UNL     1      35.597 -25.200 -15.179  0.00  0.00    -0.250 OA
ATOM     19  CD  UNL     1      35.708 -23.993 -15.345  0.00  0.00    +0.314 C 
BRANCH  19  20
ATOM     20  OE1 UNL     1      36.779 -23.429 -15.965  0.00  0.00    -0.480 OA
ATOM     21  HE1 UNL     1      37.006 -23.690 -16.836  0.00  0.00    +0.295 HD
ENDBRANCH  19  20
ENDBRANCH  17  19
ENDBRANCH  16  17
ENDBRANCH  11  16
ENDBRANCH   8  11
ENDBRANCH   2   9
BRANCH   1  22
ATOM     22  N   UNL     1      36.156 -18.742 -21.456  0.00  0.00    -0.302 N 
ATOM     23  C   UNL     1      37.577 -18.475 -21.351  0.00  0.00    +0.112 C 
BRANCH  22  24
ATOM     24  C   UNL     1      35.359 -17.965 -22.386  0.00  0.00    +0.118 C 
BRANCH  24  29
ATOM     25  O   UNL     1      34.830 -14.714 -20.707  0.00  0.00    -0.427 OA
ATOM     26  N   UNL     1      34.385 -13.085 -22.394  0.00  0.00    -0.294 NA
ATOM     27  N   UNL     1      34.402 -13.983 -24.658  0.00  0.00    -0.317 NA
ATOM     28  N   UNL     1      33.980 -11.717 -24.249  0.00  0.00    -0.283 N 
ATOM     29  C   UNL     1      35.104 -16.543 -21.990  0.00  0.00    +0.031 C 
ATOM     30  C   UNL     1      34.823 -15.446 -22.840  0.00  0.00    +0.180 C 
ATOM     31  C   UNL     1      34.663 -14.342 -22.008  0.00  0.00    +0.281 C 
ATOM     32  C   UNL     1      35.095 -16.047 -20.708  0.00  0.00    +0.176 C 
ATOM     33  C   UNL     1      34.682 -15.227 -24.209  0.00  0.00    +0.181 C 
ATOM     34  C   UNL     1      34.273 -13.002 -23.736  0.00  0.00    +0.200 C 
ATOM     35  H   UNL     1      33.872 -10.956 -23.634  0.00  0.00    +0.156 HD
ATOM     36  H   UNL     1      33.884 -11.585 -25.219  0.00  0.00    +0.156 HD
ATOM     37  N   UNL     1      34.825 -16.281 -25.129  0.00  0.00    -0.335 N 
ATOM     38  H   UNL     1      34.723 -16.110 -26.093  0.00  0.00    +0.144 HD
ATOM     39  H   UNL     1      35.029 -17.191 -24.810  0.00  0.00    +0.144 HD
ENDBRANCH  24  29
ENDBRANCH  22  24
ENDBRANCH   1  22
TORSDOF 11
ENDMDL
MODEL 8
REMARK VINA RESULT:     -10.4      3.378     10.399
REMARK  Name = 158376
REMARK  11 active torsions:
REMARK  status: ('A' for Active; 'I' for Inactive)
REMARK    1  A    between atoms: C_1  and  N_22
REMARK    2  A    between atoms: C_2  and  C_9
REMARK    3  A    between atoms: N_8  and  CA_11
REMARK    4  A    between atoms: CA_11  and  C_13
REMARK    5  A    between atoms: CA_11  and  CB_16
REMARK    6  A    between atoms: C_13  and  O_14
REMARK    7  A    between atoms: CB_16  and  CG_17
REMARK    8  A    between atoms: CG_17  and  CD_19
REMARK    9  A    between atoms: CD_19  and  OE1_20
REMARK   10  A    between atoms: N_22  and  C_24
REMARK   11  A    between atoms: C_24  and  C_29
REMARK                            x       y       z     vdW  Elec       q    Type
REMARK                         _______ _______ _______ _____ _____    ______ ____
ROOT
ATOM      1  C   UNL     1      34.991 -17.406 -23.402  0.00  0.00    +0.048 C 
ATOM      2  C   UNL     1      34.258 -14.844 -24.229  0.00  0.00    +0.053 C 
ATOM      3  C   UNL     1      34.263 -17.235 -24.580  0.00  0.00    +0.015 C 
ATOM      4  C   UNL     1      35.352 -16.296 -22.638  0.00  0.00    +0.015 C 
ATOM      5  C   UNL     1      33.897 -15.954 -24.993  0.00  0.00    +0.006 C 
ATOM      6  C   UNL     1      34.985 -15.015 -23.052  0.00  0.00    +0.006 C 
ENDROOT
BRANCH   2   9
ATOM      7  O   UNL     1      33.378 -13.327 -25.786  0.00  0.00    -0.270 OA
ATOM      8  N   UNL     1      34.071 -12.462 -23.749  0.00  0.00    -0.293 N 
ATOM      9  C   ACE A   0      33.867 -13.480 -24.670  0.00  0.00    +0.246 C 
ATOM     10  H   UNL     1      34.472 -12.685 -22.877  0.00  0.00    +0.150 HD
BRANCH   8  11
ATOM     11  CA  UNL     1      33.721 -11.091 -24.019  0.00  0.00    +0.172 C 
BRANCH  11  13
ATOM     12  OXT UNL     1      35.280 -10.597 -25.823  0.00  0.00    -0.248 OA
ATOM     13  C   UNL     1      34.921 -10.429 -24.665  0.00  0.00    +0.332 C 
BRANCH  13  14
ATOM     14  O   UNL     1      35.552  -9.579 -23.812  0.00  0.00    -0.479 OA
ATOM     15  H   UNL     1      35.061  -9.120 -23.161  0.00  0.00    +0.295 HD
ENDBRANCH  13  14
ENDBRANCH  11  13
BRANCH  11  16
ATOM     16  CB  UNL     1      33.203 -10.356 -22.776  0.00  0.00    +0.043 C 
BRANCH  16  17
ATOM     17  CG  UNL     1      31.933 -10.934 -22.139  0.00  0.00    +0.112 C 
BRANCH  17  19
ATOM     18  OE2 UNL     1      32.159 -11.335 -19.746  0.00  0.00    -0.250 OA
ATOM     19  CD  UNL     1      32.195 -11.755 -20.895  0.00  0.00    +0.314 C 
BRANCH  19  20
ATOM     20  OE1 UNL     1      32.522 -13.038 -21.202  0.00  0.00    -0.480 OA
ATOM     21  HE1 UNL     1      32.399 -13.716 -20.568  0.00  0.00    +0.295 HD
ENDBRANCH  19  20
ENDBRANCH  17  19
ENDBRANCH  16  17
ENDBRANCH  11  16
ENDBRANCH   8  11
ENDBRANCH   2   9
BRANCH   1  22
ATOM     22  N   UNL     1      35.363 -18.700 -22.984  0.00  0.00    -0.302 N 
ATOM     23  C   UNL     1      35.548 -19.760 -23.955  0.00  0.00    +0.112 C 
BRANCH  22  24
ATOM     24  C   UNL     1      35.580 -18.984 -21.579  0.00  0.00    +0.118 C 
BRANCH  24  29
ATOM     25  O   UNL     1      32.407 -20.416 -20.335  0.00  0.00    -0.427 OA
ATOM     26  N   UNL     1      32.939 -21.999 -18.629  0.00  0.00    -0.294 NA
ATOM     27  N   UNL     1      35.327 -22.219 -18.202  0.00  0.00    -0.317 NA
ATOM     28  N   UNL     1      33.754 -23.478 -17.010  0.00  0.00    -0.283 N 
ATOM     29  C   UNL     1      34.477 -19.726 -20.890  0.00  0.00    +0.031 C 
ATOM     30  C   UNL     1      34.595 -20.694 -19.863  0.00  0.00    +0.180 C 
ATOM     31  C   UNL     1      33.297 -21.091 -19.553  0.00  0.00    +0.281 C 
ATOM     32  C   UNL     1      33.130 -19.593 -21.138  0.00  0.00    +0.176 C 
ATOM     33  C   UNL     1      35.625 -21.297 -19.145  0.00  0.00    +0.181 C 
ATOM     34  C   UNL     1      34.021 -22.510 -18.005  0.00  0.00    +0.200 C 
ATOM     35  H   UNL     1      32.825 -23.738 -16.813  0.00  0.00    +0.156 HD
ATOM     36  H   UNL     1      34.497 -23.892 -16.514  0.00  0.00    +0.156 HD
ATOM     37  N   UNL     1      36.969 -20.961 -19.386  0.00  0.00    -0.335 N 
ATOM     38  H   UNL     1      37.686 -21.396 -18.871  0.00  0.00    +0.144 HD
ATOM     39  H   UNL     1      37.195 -20.290 -20.071  0.00  0.00    +0.144 HD
ENDBRANCH  24  29
ENDBRANCH  22  24
ENDBRANCH   1  22
TORSDOF 11
ENDMDL
MODEL 9
REMARK VINA RESULT:     -10.2      4.044     11.240
REMARK  Name = 158376
REMARK  11 active torsions:
REMARK  status: ('A' for Active; 'I' for Inactive)
REMARK    1  A    between atoms: C_1  and  N_22
REMARK    2  A    between atoms: C_2  and  C_9
REMARK    3  A    between atoms: N_8  and  CA_11
REMARK    4  A    between atoms: CA_11  and  C_13
REMARK    5  A    between atoms: CA_11  and  CB_16
REMARK    6  A    between atoms: C_13  and  O_14
REMARK    7  A    between atoms: CB_16  and  CG_17
REMARK    8  A    between atoms: CG_17  and  CD_19
REMARK    9  A    between atoms: CD_19  and  OE1_20
REMARK   10  A    between atoms: N_22  and  C_24
REMARK   11  A    between atoms: C_24  and  C_29
REMARK                            x       y       z     vdW  Elec       q    Type
REMARK                         _______ _______ _______ _____ _____    ______ ____
ROOT
ATOM      1  C   UNL     1      35.574 -17.044 -22.457  0.00  0.00    +0.048 C 
ATOM      2  C   UNL     1      34.643 -14.691 -23.633  0.00  0.00    +0.053 C 
ATOM      3  C   UNL     1      35.372 -16.987 -23.837  0.00  0.00    +0.015 C 
ATOM      4  C   UNL     1      35.310 -15.926 -21.666  0.00  0.00    +0.015 C 
ATOM      5  C   UNL     1      34.908 -15.810 -24.424  0.00  0.00    +0.006 C 
ATOM      6  C   UNL     1      34.844 -14.750 -22.255  0.00  0.00    +0.006 C 
ENDROOT
BRANCH   2   9
ATOM      7  O   UNL     1      33.544 -13.500 -25.327  0.00  0.00    -0.270 OA
ATOM      8  N   UNL     1      34.396 -12.268 -23.555  0.00  0.00    -0.293 N 
ATOM      9  C   ACE A   0      34.148 -13.438 -24.259  0.00  0.00    +0.246 C 
ATOM     10  H   UNL     1      34.890 -12.322 -22.706  0.00  0.00    +0.150 HD
BRANCH   8  11
ATOM     11  CA  UNL     1      33.957 -10.976 -24.020  0.00  0.00    +0.172 C 
BRANCH  11  13
ATOM     12  OXT UNL     1      35.484 -10.515 -25.861  0.00  0.00    -0.248 OA
ATOM     13  C   UNL     1      35.133 -10.312 -24.705  0.00  0.00    +0.332 C 
BRANCH  13  14
ATOM     14  O   UNL     1      35.752  -9.414 -23.894  0.00  0.00    -0.479 OA
ATOM     15  H   UNL     1      35.247  -8.886 -23.308  0.00  0.00    +0.295 HD
ENDBRANCH  13  14
ENDBRANCH  11  13
BRANCH  11  16
ATOM     16  CB  UNL     1      33.328 -10.129 -22.908  0.00  0.00    +0.043 C 
BRANCH  16  17
ATOM     17  CG  UNL     1      32.404  -8.996 -23.372  0.00  0.00    +0.112 C 
BRANCH  17  19
ATOM     18  OE2 UNL     1      31.769  -6.901 -22.304  0.00  0.00    -0.250 OA
ATOM     19  CD  UNL     1      32.640  -7.684 -22.657  0.00  0.00    +0.314 C 
BRANCH  19  20
ATOM     20  OE1 UNL     1      33.966  -7.443 -22.478  0.00  0.00    -0.480 OA
ATOM     21  HE1 UNL     1      34.306  -6.580 -22.609  0.00  0.00    +0.295 HD
ENDBRANCH  19  20
ENDBRANCH  17  19
ENDBRANCH  16  17
ENDBRANCH  11  16
ENDBRANCH   8  11
ENDBRANCH   2   9
BRANCH   1  22
ATOM     22  N   UNL     1      36.045 -18.233 -21.863  0.00  0.00    -0.302 N 
ATOM     23  C   UNL     1      37.426 -18.343 -21.436  0.00  0.00    +0.112 C 
BRANCH  22  24
ATOM     24  C   UNL     1      35.150 -19.355 -21.656  0.00  0.00    +0.118 C 
BRANCH  24  29
ATOM     25  O   UNL     1      36.690 -21.382 -18.976  0.00  0.00    -0.427 OA
ATOM     26  N   UNL     1      34.930 -22.433 -17.751  0.00  0.00    -0.294 NA
ATOM     27  N   UNL     1      32.702 -21.898 -18.577  0.00  0.00    -0.317 NA
ATOM     28  N   UNL     1      33.014 -23.321 -16.745  0.00  0.00    -0.283 N 
ATOM     29  C   UNL     1      35.484 -20.246 -20.500  0.00  0.00    +0.031 C 
ATOM     30  C   UNL     1      34.586 -20.951 -19.662  0.00  0.00    +0.180 C 
ATOM     31  C   UNL     1      35.371 -21.635 -18.739  0.00  0.00    +0.281 C 
ATOM     32  C   UNL     1      36.748 -20.543 -20.042  0.00  0.00    +0.176 C 
ATOM     33  C   UNL     1      33.206 -21.107 -19.552  0.00  0.00    +0.181 C 
ATOM     34  C   UNL     1      33.583 -22.503 -17.748  0.00  0.00    +0.200 C 
ATOM     35  H   UNL     1      33.597 -23.792 -16.106  0.00  0.00    +0.156 HD
ATOM     36  H   UNL     1      32.037 -23.418 -16.685  0.00  0.00    +0.156 HD
ATOM     37  N   UNL     1      32.330 -20.456 -20.439  0.00  0.00    -0.335 N 
ATOM     38  H   UNL     1      31.357 -20.577 -20.348  0.00  0.00    +0.144 HD
ATOM     39  H   UNL     1      32.689 -19.879 -21.152  0.00  0.00    +0.144 HD
ENDBRANCH  24  29
ENDBRANCH  22  24
ENDBRANCH   1  22
TORSDOF 11
ENDMDL
