MODEL 1
REMARK VINA RESULT:     -12.2      0.000      0.000
REMARK  Name = 447735
REMARK  4 active torsions:
REMARK  status: ('A' for Active; 'I' for Inactive)
REMARK    1  A    between atoms: N_2  and  C_13
REMARK    2  A    between atoms: C_3  and  C_18
REMARK    3  A    between atoms: C_7  and  C_15
REMARK    4  A    between atoms: C_26  and  C_30
REMARK                            x       y       z     vdW  Elec       q    Type
REMARK                         _______ _______ _______ _____ _____    ______ ____
ROOT
ATOM      1  O   UNL     1      33.884 -23.653 -17.709  0.00  0.00    -0.270 OA
ATOM      2  N   UNL     1      35.380 -22.252 -16.556  0.00  0.00    -0.280 N 
ATOM      3  C   UNL     1      34.543 -22.623 -17.617  0.00  0.00    +0.249 C 
ATOM      4  H   UNL     1      35.835 -21.385 -16.649  0.00  0.00    +0.155 HD
ENDROOT
BRANCH   2  13
ATOM      5  N   UNL     1      38.777 -25.476 -12.666  0.00  0.00    -0.274 NA
ATOM      6  C   UNL     1      37.119 -24.334 -14.057  0.00  0.00    +0.010 C 
ATOM      7  C   UNL     1      38.379 -25.088 -13.832  0.00  0.00    +0.053 C 
ATOM      8  C   UNL     1      36.170 -24.369 -13.027  0.00  0.00    -0.019 C 
ATOM      9  C   UNL     1      36.475 -25.165 -11.794  0.00  0.00    +0.053 C 
ATOM     10  C   UNL     1      37.969 -25.092 -11.504  0.00  0.00    +0.130 C 
ATOM     11  C   UNL     1      36.862 -23.626 -15.233  0.00  0.00    +0.016 C 
ATOM     12  C   UNL     1      34.947 -23.713 -13.194  0.00  0.00    -0.003 C 
ATOM     13  C   UNL     1      35.644 -22.961 -15.384  0.00  0.00    +0.051 C 
ATOM     14  C   UNL     1      34.689 -23.007 -14.368  0.00  0.00    +0.014 C 
BRANCH   7  15
ATOM     15  C   UNL     1      39.244 -25.429 -15.022  0.00  0.00    +0.040 C 
ATOM     16  C   UNL     1      40.685 -25.089 -14.688  0.00  0.00    +0.006 C 
ATOM     17  C   UNL     1      39.070 -26.899 -15.359  0.00  0.00    +0.006 C 
ENDBRANCH   7  15
ENDBRANCH   2  13
BRANCH   3  18
ATOM     18  C   UNL     1      34.487 -21.662 -18.750  0.00  0.00    +0.054 C 
ATOM     19  C   UNL     1      35.629 -20.220 -20.299  0.00  0.00    +0.000 C 
ATOM     20  C   UNL     1      34.381 -19.869 -20.866  0.00  0.00    +0.000 C 
ATOM     21  C   UNL     1      35.666 -21.130 -19.230  0.00  0.00    +0.005 C 
ATOM     22  C   UNL     1      33.261 -21.337 -19.282  0.00  0.00    +0.005 C 
ATOM     23  C   UNL     1      33.205 -20.436 -20.346  0.00  0.00    +0.000 C 
ATOM     24  C   UNL     1      34.344 -18.959 -21.936  0.00  0.00    +0.003 C 
ATOM     25  C   UNL     1      36.803 -19.653 -20.820  0.00  0.00    +0.000 C 
ATOM     26  C   UNL     1      35.521 -18.405 -22.440  0.00  0.00    +0.031 C 
ATOM     27  C   UNL     1      36.748 -18.752 -21.883  0.00  0.00    +0.003 C 
BRANCH  26  30
ATOM     28  N   UNL     1      35.943 -16.163 -23.419  0.00  0.00    -0.343 N 
ATOM     29  N   UNL     1      34.952 -17.844 -24.706  0.00  0.00    -0.285 NA
ATOM     30  C   UNL     1      35.466 -17.466 -23.549  0.00  0.00    +0.117 C 
ATOM     31  H   UNL     1      35.896 -15.544 -24.184  0.00  0.00    +0.144 HD
ATOM     32  H   UNL     1      36.327 -15.862 -22.565  0.00  0.00    +0.144 HD
ATOM     33  H   UNL     1      34.913 -17.209 -25.459  0.00  0.00    +0.188 HD
ENDBRANCH  26  30
ENDBRANCH   3  18
TORSDOF 4
ENDMDL
MODEL 2
REMARK VINA RESULT:     -10.8      0.739      1.509
REMARK  Name = 447735
REMARK  4 active torsions:
REMARK  status: ('A' for Active; 'I' for Inactive)
REMARK    1  A    between atoms: N_2  and  C_13
REMARK    2  A    between atoms: C_3  and  C_18
REMARK    3  A    between atoms: C_7  and  C_15
REMARK    4  A    between atoms: C_26  and  C_30
REMARK                            x       y       z     vdW  Elec       q    Type
REMARK                         _______ _______ _______ _____ _____    ______ ____
ROOT
ATOM      1  O   UNL     1      34.601 -23.061 -18.071  0.00  0.00    -0.270 OA
ATOM      2  N   UNL     1      36.214 -21.973 -16.749  0.00  0.00    -0.280 N 
ATOM      3  C   UNL     1      35.422 -22.168 -17.889  0.00  0.00    +0.249 C 
ATOM      4  H   UNL     1      36.823 -21.200 -16.775  0.00  0.00    +0.155 HD
ENDROOT
BRANCH   2  13
ATOM      5  N   UNL     1      38.708 -25.641 -12.579  0.00  0.00    -0.274 NA
ATOM      6  C   UNL     1      37.379 -24.294 -14.131  0.00  0.00    +0.010 C 
ATOM      7  C   UNL     1      38.515 -25.180 -13.771  0.00  0.00    +0.053 C 
ATOM      8  C   UNL     1      36.297 -24.261 -13.240  0.00  0.00    -0.019 C 
ATOM      9  C   UNL     1      36.349 -25.118 -12.012  0.00  0.00    +0.053 C 
ATOM     10  C   UNL     1      37.789 -25.208 -11.521  0.00  0.00    +0.130 C 
ATOM     11  C   UNL     1      37.357 -23.530 -15.300  0.00  0.00    +0.016 C 
ATOM     12  C   UNL     1      35.179 -23.477 -13.542  0.00  0.00    -0.003 C 
ATOM     13  C   UNL     1      36.243 -22.738 -15.584  0.00  0.00    +0.051 C 
ATOM     14  C   UNL     1      35.156 -22.715 -14.709  0.00  0.00    +0.014 C 
BRANCH   7  15
ATOM     15  C   UNL     1      39.498 -25.575 -14.846  0.00  0.00    +0.040 C 
ATOM     16  C   UNL     1      40.899 -25.526 -14.264  0.00  0.00    +0.006 C 
ATOM     17  C   UNL     1      39.143 -26.957 -15.363  0.00  0.00    +0.006 C 
ENDBRANCH   7  15
ENDBRANCH   2  13
BRANCH   3  18
ATOM     18  C   UNL     1      35.638 -21.193 -18.990  0.00  0.00    +0.054 C 
ATOM     19  C   UNL     1      34.771 -19.963 -20.866  0.00  0.00    +0.000 C 
ATOM     20  C   UNL     1      36.043 -19.370 -21.044  0.00  0.00    +0.000 C 
ATOM     21  C   UNL     1      34.582 -20.883 -19.821  0.00  0.00    +0.005 C 
ATOM     22  C   UNL     1      36.885 -20.631 -19.141  0.00  0.00    +0.005 C 
ATOM     23  C   UNL     1      37.091 -19.714 -20.173  0.00  0.00    +0.000 C 
ATOM     24  C   UNL     1      36.231 -18.450 -22.089  0.00  0.00    +0.003 C 
ATOM     25  C   UNL     1      33.725 -19.619 -21.737  0.00  0.00    +0.000 C 
ATOM     26  C   UNL     1      35.180 -18.120 -22.945  0.00  0.00    +0.031 C 
ATOM     27  C   UNL     1      33.929 -18.703 -22.769  0.00  0.00    +0.003 C 
BRANCH  26  30
ATOM     28  N   UNL     1      35.947 -15.911 -23.779  0.00  0.00    -0.343 N 
ATOM     29  N   UNL     1      35.049 -17.481 -25.258  0.00  0.00    -0.285 NA
ATOM     30  C   UNL     1      35.391 -17.165 -24.021  0.00  0.00    +0.117 C 
ATOM     31  H   UNL     1      36.081 -15.280 -24.523  0.00  0.00    +0.144 HD
ATOM     32  H   UNL     1      36.206 -15.655 -22.864  0.00  0.00    +0.144 HD
ATOM     33  H   UNL     1      35.190 -16.836 -25.988  0.00  0.00    +0.188 HD
ENDBRANCH  26  30
ENDBRANCH   3  18
TORSDOF 4
ENDMDL
MODEL 3
REMARK VINA RESULT:     -10.6      1.195      2.677
REMARK  Name = 447735
REMARK  4 active torsions:
REMARK  status: ('A' for Active; 'I' for Inactive)
REMARK    1  A    between atoms: N_2  and  C_13
REMARK    2  A    between atoms: C_3  and  C_18
REMARK    3  A    between atoms: C_7  and  C_15
REMARK    4  A    between atoms: C_26  and  C_30
REMARK                            x       y       z     vdW  Elec       q    Type
REMARK                         _______ _______ _______ _____ _____    ______ ____
ROOT
ATOM      1  O   UNL     1      34.613 -23.018 -17.618  0.00  0.00    -0.270 OA
ATOM      2  N   UNL     1      36.711 -22.025 -17.239  0.00  0.00    -0.280 N 
ATOM      3  C   UNL     1      35.476 -22.188 -17.882  0.00  0.00    +0.249 C 
ATOM      4  H   UNL     1      37.283 -21.302 -17.583  0.00  0.00    +0.155 HD
ENDROOT
BRANCH   2  13
ATOM      5  N   UNL     1      36.435 -25.330 -12.134  0.00  0.00    -0.274 NA
ATOM      6  C   UNL     1      36.897 -23.927 -14.085  0.00  0.00    +0.010 C 
ATOM      7  C   UNL     1      36.062 -24.402 -12.952  0.00  0.00    +0.053 C 
ATOM      8  C   UNL     1      38.262 -24.239 -14.038  0.00  0.00    -0.019 C 
ATOM      9  C   UNL     1      38.786 -25.004 -12.860  0.00  0.00    +0.053 C 
ATOM     10  C   UNL     1      37.723 -25.986 -12.385  0.00  0.00    +0.130 C 
ATOM     11  C   UNL     1      36.374 -23.193 -15.152  0.00  0.00    +0.016 C 
ATOM     12  C   UNL     1      39.108 -23.785 -15.054  0.00  0.00    -0.003 C 
ATOM     13  C   UNL     1      37.225 -22.759 -16.170  0.00  0.00    +0.051 C 
ATOM     14  C   UNL     1      38.588 -23.051 -16.119  0.00  0.00    +0.014 C 
BRANCH   7  15
ATOM     15  C   UNL     1      34.709 -23.770 -12.731  0.00  0.00    +0.040 C 
ATOM     16  C   UNL     1      33.659 -24.617 -13.426  0.00  0.00    +0.006 C 
ATOM     17  C   UNL     1      34.451 -23.654 -11.239  0.00  0.00    +0.006 C 
ENDBRANCH   7  15
ENDBRANCH   2  13
BRANCH   3  18
ATOM     18  C   UNL     1      35.221 -21.262 -19.016  0.00  0.00    +0.054 C 
ATOM     19  C   UNL     1      36.067 -19.753 -20.687  0.00  0.00    +0.000 C 
ATOM     20  C   UNL     1      34.743 -19.534 -21.136  0.00  0.00    +0.000 C 
ATOM     21  C   UNL     1      36.292 -20.631 -19.614  0.00  0.00    +0.005 C 
ATOM     22  C   UNL     1      33.924 -21.066 -19.433  0.00  0.00    +0.005 C 
ATOM     23  C   UNL     1      33.682 -20.198 -20.498  0.00  0.00    +0.000 C 
ATOM     24  C   UNL     1      34.519 -18.656 -22.209  0.00  0.00    +0.003 C 
ATOM     25  C   UNL     1      37.127 -19.089 -21.325  0.00  0.00    +0.000 C 
ATOM     26  C   UNL     1      35.584 -18.004 -22.831  0.00  0.00    +0.031 C 
ATOM     27  C   UNL     1      36.886 -18.221 -22.389  0.00  0.00    +0.003 C 
BRANCH  26  30
ATOM     28  N   UNL     1      35.718 -15.761 -23.886  0.00  0.00    -0.343 N 
ATOM     29  N   UNL     1      34.729 -17.543 -25.029  0.00  0.00    -0.285 NA
ATOM     30  C   UNL     1      35.335 -17.099 -23.941  0.00  0.00    +0.117 C 
ATOM     31  H   UNL     1      35.539 -15.166 -24.650  0.00  0.00    +0.144 HD
ATOM     32  H   UNL     1      36.167 -15.410 -23.083  0.00  0.00    +0.144 HD
ATOM     33  H   UNL     1      34.559 -16.932 -25.782  0.00  0.00    +0.188 HD
ENDBRANCH  26  30
ENDBRANCH   3  18
TORSDOF 4
ENDMDL
MODEL 4
REMARK VINA RESULT:     -10.5      9.625     16.078
REMARK  Name = 447735
REMARK  4 active torsions:
REMARK  status: ('A' for Active; 'I' for Inactive)
REMARK    1  A    between atoms: N_2  and  C_13
REMARK    2  A    between atoms: C_3  and  C_18
REMARK    3  A    between atoms: C_7  and  C_15
REMARK    4  A    between atoms: C_26  and  C_30
REMARK                            x       y       z     vdW  Elec       q    Type
REMARK                         _______ _______ _______ _____ _____    ______ ____
ROOT
ATOM      1  O   UNL     1      35.036  -9.565 -24.447  0.00  0.00    -0.270 OA
ATOM      2  N   UNL     1      33.108  -9.745 -23.113  0.00  0.00    -0.280 N 
ATOM      3  C   UNL     1      34.139 -10.224 -23.933  0.00  0.00    +0.249 C 
ATOM      4  H   UNL     1      32.470 -10.419 -22.784  0.00  0.00    +0.155 HD
ENDROOT
BRANCH   2  13
ATOM      5  N   UNL     1      32.279  -3.761 -23.866  0.00  0.00    -0.274 NA
ATOM      6  C   UNL     1      32.711  -6.080 -23.214  0.00  0.00    +0.010 C 
ATOM      7  C   UNL     1      32.786  -4.919 -24.136  0.00  0.00    +0.053 C 
ATOM      8  C   UNL     1      32.404  -5.805 -21.875  0.00  0.00    -0.019 C 
ATOM      9  C   UNL     1      32.191  -4.379 -21.464  0.00  0.00    +0.053 C 
ATOM     10  C   UNL     1      31.536  -3.617 -22.609  0.00  0.00    +0.130 C 
ATOM     11  C   UNL     1      32.942  -7.393 -23.632  0.00  0.00    +0.016 C 
ATOM     12  C   UNL     1      32.357  -6.851 -20.949  0.00  0.00    -0.003 C 
ATOM     13  C   UNL     1      32.878  -8.432 -22.703  0.00  0.00    +0.051 C 
ATOM     14  C   UNL     1      32.589  -8.161 -21.365  0.00  0.00    +0.014 C 
BRANCH   7  15
ATOM     15  C   UNL     1      33.496  -5.084 -25.458  0.00  0.00    +0.040 C 
ATOM     16  C   UNL     1      33.129  -3.917 -26.356  0.00  0.00    +0.006 C 
ATOM     17  C   UNL     1      34.993  -5.166 -25.214  0.00  0.00    +0.006 C 
ENDBRANCH   7  15
ENDBRANCH   2  13
BRANCH   3  18
ATOM     18  C   UNL     1      34.103 -11.683 -24.216  0.00  0.00    +0.054 C 
ATOM     19  C   UNL     1      34.528 -13.940 -23.504  0.00  0.00    +0.000 C 
ATOM     20  C   UNL     1      34.033 -14.407 -24.744  0.00  0.00    +0.000 C 
ATOM     21  C   UNL     1      34.556 -12.559 -23.251  0.00  0.00    +0.005 C 
ATOM     22  C   UNL     1      33.617 -12.110 -25.430  0.00  0.00    +0.005 C 
ATOM     23  C   UNL     1      33.581 -13.479 -25.698  0.00  0.00    +0.000 C 
ATOM     24  C   UNL     1      34.006 -15.789 -24.996  0.00  0.00    +0.003 C 
ATOM     25  C   UNL     1      34.980 -14.868 -22.552  0.00  0.00    +0.000 C 
ATOM     26  C   UNL     1      34.459 -16.697 -24.038  0.00  0.00    +0.031 C 
ATOM     27  C   UNL     1      34.946 -16.237 -22.818  0.00  0.00    +0.003 C 
BRANCH  26  30
ATOM     28  N   UNL     1      35.451 -18.968 -23.901  0.00  0.00    -0.343 N 
ATOM     29  N   UNL     1      33.401 -18.641 -24.974  0.00  0.00    -0.285 NA
ATOM     30  C   UNL     1      34.423 -18.123 -24.314  0.00  0.00    +0.117 C 
ATOM     31  H   UNL     1      35.406 -19.932 -24.099  0.00  0.00    +0.144 HD
ATOM     32  H   UNL     1      36.223 -18.602 -23.411  0.00  0.00    +0.144 HD
ATOM     33  H   UNL     1      33.375 -19.607 -25.163  0.00  0.00    +0.188 HD
ENDBRANCH  26  30
ENDBRANCH   3  18
TORSDOF 4
ENDMDL
MODEL 5
REMARK VINA RESULT:     -10.3      9.742     16.419
REMARK  Name = 447735
REMARK  4 active torsions:
REMARK  status: ('A' for Active; 'I' for Inactive)
REMARK    1  A    between atoms: N_2  and  C_13
REMARK    2  A    between atoms: C_3  and  C_18
REMARK    3  A    between atoms: C_7  and  C_15
REMARK    4  A    between atoms: C_26  and  C_30
REMARK                            x       y       z     vdW  Elec       q    Type
REMARK                         _______ _______ _______ _____ _____    ______ ____
ROOT
ATOM      1  O   UNL     1      30.734  -9.851 -22.118  0.00  0.00    -0.270 OA
ATOM      2  N   UNL     1      32.857  -8.843 -22.025  0.00  0.00    -0.280 N 
ATOM      3  C   UNL     1      31.954  -9.915 -22.015  0.00  0.00    +0.249 C 
ATOM      4  H   UNL     1      33.808  -9.079 -21.931  0.00  0.00    +0.155 HD
ENDROOT
BRANCH   2  13
ATOM      5  N   UNL     1      32.392  -3.521 -24.945  0.00  0.00    -0.274 NA
ATOM      6  C   UNL     1      32.594  -5.456 -23.460  0.00  0.00    +0.010 C 
ATOM      7  C   UNL     1      32.917  -4.672 -24.679  0.00  0.00    +0.053 C 
ATOM      8  C   UNL     1      31.988  -4.762 -22.405  0.00  0.00    -0.019 C 
ATOM      9  C   UNL     1      31.723  -3.295 -22.565  0.00  0.00    +0.053 C 
ATOM     10  C   UNL     1      31.378  -3.002 -24.020  0.00  0.00    +0.130 C 
ATOM     11  C   UNL     1      32.882  -6.817 -23.339  0.00  0.00    +0.016 C 
ATOM     12  C   UNL     1      31.696  -5.434 -21.214  0.00  0.00    -0.003 C 
ATOM     13  C   UNL     1      32.572  -7.484 -22.153  0.00  0.00    +0.051 C 
ATOM     14  C   UNL     1      31.984  -6.793 -21.092  0.00  0.00    +0.014 C 
BRANCH   7  15
ATOM     15  C   UNL     1      33.914  -5.235 -25.663  0.00  0.00    +0.040 C 
ATOM     16  C   UNL     1      34.106  -4.231 -26.786  0.00  0.00    +0.006 C 
ATOM     17  C   UNL     1      35.214  -5.535 -24.939  0.00  0.00    +0.006 C 
ENDBRANCH   7  15
ENDBRANCH   2  13
BRANCH   3  18
ATOM     18  C   UNL     1      32.564 -11.259 -21.834  0.00  0.00    +0.054 C 
ATOM     19  C   UNL     1      33.888 -13.066 -22.709  0.00  0.00    +0.000 C 
ATOM     20  C   UNL     1      33.703 -13.768 -21.495  0.00  0.00    +0.000 C 
ATOM     21  C   UNL     1      33.306 -11.797 -22.865  0.00  0.00    +0.005 C 
ATOM     22  C   UNL     1      32.368 -11.920 -20.644  0.00  0.00    +0.005 C 
ATOM     23  C   UNL     1      32.939 -13.182 -20.471  0.00  0.00    +0.000 C 
ATOM     24  C   UNL     1      34.284 -15.037 -21.339  0.00  0.00    +0.003 C 
ATOM     25  C   UNL     1      34.651 -13.653 -23.731  0.00  0.00    +0.000 C 
ATOM     26  C   UNL     1      35.040 -15.605 -22.366  0.00  0.00    +0.031 C 
ATOM     27  C   UNL     1      35.222 -14.914 -23.560  0.00  0.00    +0.003 C 
BRANCH  26  30
ATOM     28  N   UNL     1      35.665 -17.540 -20.942  0.00  0.00    -0.343 N 
ATOM     29  N   UNL     1      36.169 -17.544 -23.224  0.00  0.00    -0.285 NA
ATOM     30  C   UNL     1      35.636 -16.919 -22.188  0.00  0.00    +0.117 C 
ATOM     31  H   UNL     1      36.075 -18.430 -20.845  0.00  0.00    +0.144 HD
ATOM     32  H   UNL     1      35.277 -17.089 -20.158  0.00  0.00    +0.144 HD
ATOM     33  H   UNL     1      36.574 -18.434 -23.106  0.00  0.00    +0.188 HD
ENDBRANCH  26  30
ENDBRANCH   3  18
TORSDOF 4
ENDMDL
MODEL 6
REMARK VINA RESULT:     -10.0      8.948     15.631
REMARK  Name = 447735
REMARK  4 active torsions:
REMARK  status: ('A' for Active; 'I' for Inactive)
REMARK    1  A    between atoms: N_2  and  C_13
REMARK    2  A    between atoms: C_3  and  C_18
REMARK    3  A    between atoms: C_7  and  C_15
REMARK    4  A    between atoms: C_26  and  C_30
REMARK                            x       y       z     vdW  Elec       q    Type
REMARK                         _______ _______ _______ _____ _____    ______ ____
ROOT
ATOM      1  O   UNL     1      31.418 -11.126 -21.720  0.00  0.00    -0.270 OA
ATOM      2  N   UNL     1      33.285  -9.904 -22.462  0.00  0.00    -0.280 N 
ATOM      3  C   UNL     1      32.539 -11.064 -22.213  0.00  0.00    +0.249 C 
ATOM      4  H   UNL     1      34.172 -10.040 -22.866  0.00  0.00    +0.155 HD
ENDROOT
BRANCH   2  13
ATOM      5  N   UNL     1      32.140  -4.095 -23.880  0.00  0.00    -0.274 NA
ATOM      6  C   UNL     1      32.654  -6.305 -22.964  0.00  0.00    +0.010 C 
ATOM      7  C   UNL     1      32.750  -5.229 -23.983  0.00  0.00    +0.053 C 
ATOM      8  C   UNL     1      32.186  -5.934 -21.696  0.00  0.00    -0.019 C 
ATOM      9  C   UNL     1      31.833  -4.497 -21.451  0.00  0.00    +0.053 C 
ATOM     10  C   UNL     1      31.257  -3.896 -22.726  0.00  0.00    +0.130 C 
ATOM     11  C   UNL     1      33.018  -7.628 -23.224  0.00  0.00    +0.016 C 
ATOM     12  C   UNL     1      32.110  -6.892 -20.681  0.00  0.00    -0.003 C 
ATOM     13  C   UNL     1      32.923  -8.580 -22.209  0.00  0.00    +0.051 C 
ATOM     14  C   UNL     1      32.474  -8.213 -20.940  0.00  0.00    +0.014 C 
BRANCH   7  15
ATOM     15  C   UNL     1      33.609  -5.459 -25.203  0.00  0.00    +0.040 C 
ATOM     16  C   UNL     1      33.347  -4.342 -26.198  0.00  0.00    +0.006 C 
ATOM     17  C   UNL     1      35.067  -5.516 -24.783  0.00  0.00    +0.006 C 
ENDBRANCH   7  15
ENDBRANCH   2  13
BRANCH   3  18
ATOM     18  C   UNL     1      33.211 -12.342 -22.570  0.00  0.00    +0.054 C 
ATOM     19  C   UNL     1      34.266 -14.388 -21.877  0.00  0.00    +0.000 C 
ATOM     20  C   UNL     1      34.462 -14.728 -23.236  0.00  0.00    +0.000 C 
ATOM     21  C   UNL     1      33.630 -13.177 -21.556  0.00  0.00    +0.005 C 
ATOM     22  C   UNL     1      33.389 -12.647 -23.899  0.00  0.00    +0.005 C 
ATOM     23  C   UNL     1      34.018 -13.846 -24.237  0.00  0.00    +0.000 C 
ATOM     24  C   UNL     1      35.099 -15.938 -23.557  0.00  0.00    +0.003 C 
ATOM     25  C   UNL     1      34.711 -15.269 -20.878  0.00  0.00    +0.000 C 
ATOM     26  C   UNL     1      35.534 -16.802 -22.551  0.00  0.00    +0.031 C 
ATOM     27  C   UNL     1      35.341 -16.468 -21.214  0.00  0.00    +0.003 C 
BRANCH  26  30
ATOM     28  N   UNL     1      37.519 -18.293 -22.557  0.00  0.00    -0.343 N 
ATOM     29  N   UNL     1      35.523 -18.984 -23.558  0.00  0.00    -0.285 NA
ATOM     30  C   UNL     1      36.190 -18.052 -22.900  0.00  0.00    +0.117 C 
ATOM     31  H   UNL     1      37.943 -19.148 -22.804  0.00  0.00    +0.144 HD
ATOM     32  H   UNL     1      38.033 -17.611 -22.070  0.00  0.00    +0.144 HD
ATOM     33  H   UNL     1      35.965 -19.831 -23.796  0.00  0.00    +0.188 HD
ENDBRANCH  26  30
ENDBRANCH   3  18
TORSDOF 4
ENDMDL
MODEL 7
REMARK VINA RESULT:      -9.9     10.119     17.034
REMARK  Name = 447735
REMARK  4 active torsions:
REMARK  status: ('A' for Active; 'I' for Inactive)
REMARK    1  A    between atoms: N_2  and  C_13
REMARK    2  A    between atoms: C_3  and  C_18
REMARK    3  A    between atoms: C_7  and  C_15
REMARK    4  A    between atoms: C_26  and  C_30
REMARK                            x       y       z     vdW  Elec       q    Type
REMARK                         _______ _______ _______ _____ _____    ______ ____
ROOT
ATOM      1  O   UNL     1      31.344  -9.418 -22.496  0.00  0.00    -0.270 OA
ATOM      2  N   UNL     1      33.384  -8.367 -23.008  0.00  0.00    -0.280 N 
ATOM      3  C   UNL     1      32.533  -9.459 -22.790  0.00  0.00    +0.249 C 
ATOM      4  H   UNL     1      34.316  -8.586 -23.237  0.00  0.00    +0.155 HD
ENDROOT
BRANCH   2  13
ATOM      5  N   UNL     1      32.269  -2.814 -25.239  0.00  0.00    -0.274 NA
ATOM      6  C   UNL     1      32.799  -4.871 -24.024  0.00  0.00    +0.010 C 
ATOM      7  C   UNL     1      32.845  -3.970 -25.204  0.00  0.00    +0.053 C 
ATOM      8  C   UNL     1      32.433  -4.292 -22.801  0.00  0.00    -0.019 C 
ATOM      9  C   UNL     1      32.132  -2.824 -22.761  0.00  0.00    +0.053 C 
ATOM     10  C   UNL     1      31.478  -2.408 -24.072  0.00  0.00    +0.130 C 
ATOM     11  C   UNL     1      33.113  -6.230 -24.098  0.00  0.00    +0.016 C 
ATOM     12  C   UNL     1      32.410  -5.078 -21.645  0.00  0.00    -0.003 C 
ATOM     13  C   UNL     1      33.072  -7.010 -22.941  0.00  0.00    +0.051 C 
ATOM     14  C   UNL     1      32.725  -6.435 -21.719  0.00  0.00    +0.014 C 
BRANCH   7  15
ATOM     15  C   UNL     1      33.607  -4.415 -26.428  0.00  0.00    +0.040 C 
ATOM     16  C   UNL     1      33.356  -3.417 -27.545  0.00  0.00    +0.006 C 
ATOM     17  C   UNL     1      35.082  -4.527 -26.086  0.00  0.00    +0.006 C 
ENDBRANCH   7  15
ENDBRANCH   2  13
BRANCH   3  18
ATOM     18  C   UNL     1      33.171 -10.798 -22.907  0.00  0.00    +0.054 C 
ATOM     19  C   UNL     1      33.762 -12.903 -21.908  0.00  0.00    +0.000 C 
ATOM     20  C   UNL     1      34.359 -13.296 -23.129  0.00  0.00    +0.000 C 
ATOM     21  C   UNL     1      33.163 -11.636 -21.812  0.00  0.00    +0.005 C 
ATOM     22  C   UNL     1      33.745 -11.154 -24.106  0.00  0.00    +0.005 C 
ATOM     23  C   UNL     1      34.343 -12.410 -24.220  0.00  0.00    +0.000 C 
ATOM     24  C   UNL     1      34.958 -14.563 -23.225  0.00  0.00    +0.003 C 
ATOM     25  C   UNL     1      33.779 -13.790 -20.820  0.00  0.00    +0.000 C 
ATOM     26  C   UNL     1      34.965 -15.431 -22.132  0.00  0.00    +0.031 C 
ATOM     27  C   UNL     1      34.377 -15.045 -20.932  0.00  0.00    +0.003 C 
BRANCH  26  30
ATOM     28  N   UNL     1      35.680 -17.598 -21.154  0.00  0.00    -0.343 N 
ATOM     29  N   UNL     1      36.083 -17.133 -23.408  0.00  0.00    -0.285 NA
ATOM     30  C   UNL     1      35.588 -16.740 -22.248  0.00  0.00    +0.117 C 
ATOM     31  H   UNL     1      36.106 -18.480 -21.255  0.00  0.00    +0.144 HD
ATOM     32  H   UNL     1      35.320 -17.323 -20.280  0.00  0.00    +0.144 HD
ATOM     33  H   UNL     1      36.506 -18.019 -23.489  0.00  0.00    +0.188 HD
ENDBRANCH  26  30
ENDBRANCH   3  18
TORSDOF 4
ENDMDL
MODEL 8
REMARK VINA RESULT:      -9.8      3.504     11.360
REMARK  Name = 447735
REMARK  4 active torsions:
REMARK  status: ('A' for Active; 'I' for Inactive)
REMARK    1  A    between atoms: N_2  and  C_13
REMARK    2  A    between atoms: C_3  and  C_18
REMARK    3  A    between atoms: C_7  and  C_15
REMARK    4  A    between atoms: C_26  and  C_30
REMARK                            x       y       z     vdW  Elec       q    Type
REMARK                         _______ _______ _______ _____ _____    ______ ____
ROOT
ATOM      1  O   UNL     1      34.477 -19.249 -22.942  0.00  0.00    -0.270 OA
ATOM      2  N   UNL     1      35.118 -17.392 -21.650  0.00  0.00    -0.280 N 
ATOM      3  C   UNL     1      34.892 -18.752 -21.902  0.00  0.00    +0.249 C 
ATOM      4  H   UNL     1      35.456 -17.170 -20.753  0.00  0.00    +0.155 HD
ENDROOT
BRANCH   2  13
ATOM      5  N   UNL     1      33.405 -11.762 -23.209  0.00  0.00    -0.274 NA
ATOM      6  C   UNL     1      34.057 -14.106 -22.944  0.00  0.00    +0.010 C 
ATOM      7  C   UNL     1      33.326 -12.873 -22.554  0.00  0.00    +0.053 C 
ATOM      8  C   UNL     1      34.548 -14.160 -24.255  0.00  0.00    -0.019 C 
ATOM      9  C   UNL     1      34.296 -12.998 -25.168  0.00  0.00    +0.053 C 
ATOM     10  C   UNL     1      34.316 -11.709 -24.358  0.00  0.00    +0.130 C 
ATOM     11  C   UNL     1      34.247 -15.179 -22.071  0.00  0.00    +0.016 C 
ATOM     12  C   UNL     1      35.210 -15.310 -24.696  0.00  0.00    -0.003 C 
ATOM     13  C   UNL     1      34.923 -16.316 -22.516  0.00  0.00    +0.051 C 
ATOM     14  C   UNL     1      35.400 -16.383 -23.826  0.00  0.00    +0.014 C 
BRANCH   7  15
ATOM     15  C   UNL     1      32.436 -12.910 -21.336  0.00  0.00    +0.040 C 
ATOM     16  C   UNL     1      33.285 -13.258 -20.126  0.00  0.00    +0.006 C 
ATOM     17  C   UNL     1      31.747 -11.567 -21.180  0.00  0.00    +0.006 C 
ENDBRANCH   7  15
ENDBRANCH   2  13
BRANCH   3  18
ATOM     18  C   UNL     1      35.169 -19.666 -20.761  0.00  0.00    +0.054 C 
ATOM     19  C   UNL     1      34.358 -21.182 -19.080  0.00  0.00    +0.000 C 
ATOM     20  C   UNL     1      35.687 -21.371 -18.634  0.00  0.00    +0.000 C 
ATOM     21  C   UNL     1      34.113 -20.316 -20.159  0.00  0.00    +0.005 C 
ATOM     22  C   UNL     1      36.470 -19.831 -20.347  0.00  0.00    +0.005 C 
ATOM     23  C   UNL     1      36.733 -20.689 -19.277  0.00  0.00    +0.000 C 
ATOM     24  C   UNL     1      35.933 -22.237 -17.555  0.00  0.00    +0.003 C 
ATOM     25  C   UNL     1      33.314 -21.864 -18.436  0.00  0.00    +0.000 C 
ATOM     26  C   UNL     1      34.883 -22.907 -16.927  0.00  0.00    +0.031 C 
ATOM     27  C   UNL     1      33.575 -22.721 -17.366  0.00  0.00    +0.003 C 
BRANCH  26  30
ATOM     28  N   UNL     1      34.136 -24.225 -14.959  0.00  0.00    -0.343 N 
ATOM     29  N   UNL     1      36.386 -24.222 -15.591  0.00  0.00    -0.285 NA
ATOM     30  C   UNL     1      35.153 -23.801 -15.812  0.00  0.00    +0.117 C 
ATOM     31  H   UNL     1      34.343 -24.830 -14.211  0.00  0.00    +0.144 HD
ATOM     32  H   UNL     1      33.212 -23.920 -15.105  0.00  0.00    +0.144 HD
ATOM     33  H   UNL     1      36.572 -24.827 -14.836  0.00  0.00    +0.188 HD
ENDBRANCH  26  30
ENDBRANCH   3  18
TORSDOF 4
ENDMDL
MODEL 9
REMARK VINA RESULT:      -9.7      3.255      5.398
REMARK  Name = 447735
REMARK  4 active torsions:
REMARK  status: ('A' for Active; 'I' for Inactive)
REMARK    1  A    between atoms: N_2  and  C_13
REMARK    2  A    between atoms: C_3  and  C_18
REMARK    3  A    between atoms: C_7  and  C_15
REMARK    4  A    between atoms: C_26  and  C_30
REMARK                            x       y       z     vdW  Elec       q    Type
REMARK                         _______ _______ _______ _____ _____    ______ ____
ROOT
ATOM      1  O   UNL     1      36.201 -22.463 -17.613  0.00  0.00    -0.270 OA
ATOM      2  N   UNL     1      33.909 -21.943 -17.704  0.00  0.00    -0.280 N 
ATOM      3  C   UNL     1      35.251 -21.861 -18.100  0.00  0.00    +0.249 C 
ATOM      4  H   UNL     1      33.275 -21.387 -18.210  0.00  0.00    +0.155 HD
ENDROOT
BRANCH   2  13
ATOM      5  N   UNL     1      29.453 -24.698 -14.603  0.00  0.00    -0.274 NA
ATOM      6  C   UNL     1      31.438 -23.611 -15.533  0.00  0.00    +0.010 C 
ATOM      7  C   UNL     1      29.976 -23.759 -15.320  0.00  0.00    +0.053 C 
ATOM      8  C   UNL     1      32.278 -24.287 -14.637  0.00  0.00    -0.019 C 
ATOM      9  C   UNL     1      31.658 -25.089 -13.533  0.00  0.00    +0.053 C 
ATOM     10  C   UNL     1      30.354 -25.702 -14.028  0.00  0.00    +0.130 C 
ATOM     11  C   UNL     1      31.978 -22.832 -16.559  0.00  0.00    +0.016 C 
ATOM     12  C   UNL     1      33.665 -24.155 -14.759  0.00  0.00    -0.003 C 
ATOM     13  C   UNL     1      33.363 -22.720 -16.682  0.00  0.00    +0.051 C 
ATOM     14  C   UNL     1      34.204 -23.377 -15.783  0.00  0.00    +0.014 C 
BRANCH   7  15
ATOM     15  C   UNL     1      29.043 -22.762 -15.964  0.00  0.00    +0.040 C 
ATOM     16  C   UNL     1      28.221 -23.479 -17.020  0.00  0.00    +0.006 C 
ATOM     17  C   UNL     1      28.170 -22.132 -14.893  0.00  0.00    +0.006 C 
ENDBRANCH   7  15
ENDBRANCH   2  13
BRANCH   3  18
ATOM     18  C   UNL     1      35.529 -20.916 -19.214  0.00  0.00    +0.054 C 
ATOM     19  C   UNL     1      34.750 -19.689 -21.130  0.00  0.00    +0.000 C 
ATOM     20  C   UNL     1      36.048 -19.151 -21.293  0.00  0.00    +0.000 C 
ATOM     21  C   UNL     1      34.503 -20.580 -20.073  0.00  0.00    +0.005 C 
ATOM     22  C   UNL     1      36.800 -20.408 -19.350  0.00  0.00    +0.005 C 
ATOM     23  C   UNL     1      37.064 -19.520 -20.394  0.00  0.00    +0.000 C 
ATOM     24  C   UNL     1      36.295 -18.260 -22.350  0.00  0.00    +0.003 C 
ATOM     25  C   UNL     1      33.737 -19.319 -22.029  0.00  0.00    +0.000 C 
ATOM     26  C   UNL     1      35.276 -17.903 -23.234  0.00  0.00    +0.031 C 
ATOM     27  C   UNL     1      33.999 -18.432 -23.073  0.00  0.00    +0.003 C 
BRANCH  26  30
ATOM     28  N   UNL     1      35.957 -15.670 -24.077  0.00  0.00    -0.343 N 
ATOM     29  N   UNL     1      35.401 -17.376 -25.575  0.00  0.00    -0.285 NA
ATOM     30  C   UNL     1      35.547 -16.979 -24.323  0.00  0.00    +0.117 C 
ATOM     31  H   UNL     1      36.135 -15.061 -24.831  0.00  0.00    +0.144 HD
ATOM     32  H   UNL     1      36.068 -15.354 -23.152  0.00  0.00    +0.144 HD
ATOM     33  H   UNL     1      35.584 -16.752 -26.314  0.00  0.00    +0.188 HD
ENDBRANCH  26  30
ENDBRANCH   3  18
TORSDOF 4
ENDMDL
