MODEL 1
REMARK VINA RESULT:     -11.9      0.000      0.000
REMARK  Name = 49866474
REMARK  7 active torsions:
REMARK  status: ('A' for Active; 'I' for Inactive)
REMARK    1  A    between atoms: O_1  and  C_3
REMARK    2  A    between atoms: O_1  and  C_18
REMARK    3  A    between atoms: C_4  and  C_10
REMARK    4  A    between atoms: C_18  and  C_19
REMARK    5  A    between atoms: C_19  and  N_20
REMARK    6  A    between atoms: C_19  and  C_24
REMARK    7  A    between atoms: C_24  and  C_26
REMARK                            x       y       z     vdW  Elec       q    Type
REMARK                         _______ _______ _______ _____ _____    ______ ____
ROOT
ATOM      1  O   UNL     1      35.431 -14.951 -23.260  0.00  0.00    -0.476 OA
ENDROOT
BRANCH   1   3
ATOM      2  N   UNL     1      34.717 -18.179 -24.828  0.00  0.00    -0.239 NA
ATOM      3  C   UNL     1      35.233 -16.301 -23.395  0.00  0.00    +0.158 C 
ATOM      4  C   UNL     1      35.132 -18.519 -22.470  0.00  0.00    +0.022 C 
ATOM      5  C   UNL     1      35.337 -17.153 -22.302  0.00  0.00    +0.040 C 
ATOM      6  C   UNL     1      34.923 -16.859 -24.625  0.00  0.00    +0.136 C 
ATOM      7  C   UNL     1      34.827 -18.977 -23.741  0.00  0.00    +0.099 C 
BRANCH   4  10
ATOM      8  N   UNL     1      35.233 -22.034 -18.190  0.00  0.00    -0.236 N 
ATOM      9  N   UNL     1      33.939 -22.330 -17.982  0.00  0.00    -0.180 NA
ATOM     10  C   UNL     1      35.233 -19.430 -21.354  0.00  0.00    +0.002 C 
ATOM     11  C   UNL     1      34.188 -20.870 -19.727  0.00  0.00    +0.035 C 
ATOM     12  C   UNL     1      34.067 -19.988 -20.813  0.00  0.00    +0.003 C 
ATOM     13  C   UNL     1      35.451 -21.163 -19.223  0.00  0.00    +0.067 C 
ATOM     14  C   UNL     1      36.488 -19.741 -20.829  0.00  0.00    +0.001 C 
ATOM     15  C   UNL     1      36.624 -20.617 -19.747  0.00  0.00    +0.016 C 
ATOM     16  C   UNL     1      33.307 -21.620 -18.919  0.00  0.00    +0.119 C 
ATOM     17  H   UNL     1      35.962 -22.411 -17.647  0.00  0.00    +0.174 HD
ENDBRANCH   4  10
ENDBRANCH   1   3
BRANCH   1  18
ATOM     18  C   UNL     1      34.608 -14.273 -22.321  0.00  0.00    +0.184 C 
BRANCH  18  19
ATOM     19  C   UNL     1      33.773 -13.194 -23.020  0.00  0.00    -0.017 C 
BRANCH  19  20
ATOM     20  N   UNL     1      33.164 -13.788 -24.214  0.00  0.00    +0.384 N 
ATOM     21  H   UNL     1      33.814 -14.453 -24.633  0.00  0.00    -0.089 HD
ATOM     22  H   UNL     1      32.948 -13.053 -24.887  0.00  0.00    -0.089 HD
ATOM     23  H   UNL     1      32.304 -14.272 -23.952  0.00  0.00    -0.089 HD
ENDBRANCH  19  20
BRANCH  19  24
ATOM     24  C   UNL     1      32.657 -12.610 -22.121  0.00  0.00    +0.006 C 
BRANCH  24  26
ATOM     25  N   UNL     1      32.998  -9.023 -23.184  0.00  0.00    -0.234 NA
ATOM     26  C   UNL     1      32.464 -11.153 -22.248  0.00  0.00    -0.024 C 
ATOM     27  C   UNL     1      31.943 -10.219 -21.452  0.00  0.00    +0.065 C 
ATOM     28  C   UNL     1      32.067  -8.846 -22.050  0.00  0.00    +0.122 C 
ATOM     29  C   UNL     1      33.101 -10.317 -23.274  0.00  0.00    +0.072 C 
ATOM     30  C   UNL     1      31.458 -10.329 -20.100  0.00  0.00    -0.020 C 
ATOM     31  C   UNL     1      32.508  -7.833 -21.031  0.00  0.00    -0.004 C 
ATOM     32  C   UNL     1      31.594  -9.269 -19.282  0.00  0.00    -0.004 C 
ATOM     33  C   UNL     1      32.253  -8.048 -19.726  0.00  0.00    -0.003 C 
ENDBRANCH  24  26
ENDBRANCH  19  24
ENDBRANCH  18  19
ENDBRANCH   1  18
TORSDOF 7
ENDMDL
MODEL 2
REMARK VINA RESULT:     -11.9      1.644      9.808
REMARK  Name = 49866474
REMARK  7 active torsions:
REMARK  status: ('A' for Active; 'I' for Inactive)
REMARK    1  A    between atoms: O_1  and  C_3
REMARK    2  A    between atoms: O_1  and  C_18
REMARK    3  A    between atoms: C_4  and  C_10
REMARK    4  A    between atoms: C_18  and  C_19
REMARK    5  A    between atoms: C_19  and  N_20
REMARK    6  A    between atoms: C_19  and  C_24
REMARK    7  A    between atoms: C_24  and  C_26
REMARK                            x       y       z     vdW  Elec       q    Type
REMARK                         _______ _______ _______ _____ _____    ______ ____
ROOT
ATOM      1  O   UNL     1      36.085 -16.827 -22.777  0.00  0.00    -0.476 OA
ENDROOT
BRANCH   1   3
ATOM      2  N   UNL     1      33.716 -15.911 -25.411  0.00  0.00    -0.239 NA
ATOM      3  C   UNL     1      35.205 -16.077 -23.513  0.00  0.00    +0.158 C 
ATOM      4  C   UNL     1      34.000 -14.034 -23.914  0.00  0.00    +0.022 C 
ATOM      5  C   UNL     1      34.898 -14.771 -23.149  0.00  0.00    +0.040 C 
ATOM      6  C   UNL     1      34.593 -16.596 -24.642  0.00  0.00    +0.136 C 
ATOM      7  C   UNL     1      33.442 -14.644 -25.025  0.00  0.00    +0.099 C 
BRANCH   4  10
ATOM      8  N   UNL     1      32.545  -8.927 -22.340  0.00  0.00    -0.236 N 
ATOM      9  N   UNL     1      31.787  -9.127 -21.248  0.00  0.00    -0.180 NA
ATOM     10  C   UNL     1      33.661 -12.675 -23.561  0.00  0.00    +0.002 C 
ATOM     11  C   UNL     1      32.534 -11.108 -22.116  0.00  0.00    +0.035 C 
ATOM     12  C   UNL     1      32.854 -12.436 -22.441  0.00  0.00    +0.003 C 
ATOM     13  C   UNL     1      33.024 -10.076 -22.908  0.00  0.00    +0.067 C 
ATOM     14  C   UNL     1      34.139 -11.620 -24.339  0.00  0.00    +0.001 C 
ATOM     15  C   UNL     1      33.829 -10.292 -24.028  0.00  0.00    +0.016 C 
ATOM     16  C   UNL     1      31.784 -10.455 -21.115  0.00  0.00    +0.119 C 
ATOM     17  H   UNL     1      32.739  -8.031 -22.699  0.00  0.00    +0.174 HD
ENDBRANCH   4  10
ENDBRANCH   1   3
BRANCH   1  18
ATOM     18  C   UNL     1      36.181 -18.207 -23.104  0.00  0.00    +0.184 C 
BRANCH  18  19
ATOM     19  C   UNL     1      36.270 -19.055 -21.830  0.00  0.00    -0.017 C 
BRANCH  19  20
ATOM     20  N   UNL     1      37.470 -18.649 -21.092  0.00  0.00    +0.384 N 
ATOM     21  H   UNL     1      37.616 -19.282 -20.305  0.00  0.00    -0.089 HD
ATOM     22  H   UNL     1      37.350 -17.698 -20.745  0.00  0.00    -0.089 HD
ATOM     23  H   UNL     1      38.279 -18.686 -21.712  0.00  0.00    -0.089 HD
ENDBRANCH  19  20
BRANCH  19  24
ATOM     24  C   UNL     1      35.035 -18.902 -20.909  0.00  0.00    +0.006 C 
BRANCH  24  26
ATOM     25  N   UNL     1      32.830 -21.600 -19.504  0.00  0.00    -0.234 NA
ATOM     26  C   UNL     1      34.557 -20.160 -20.306  0.00  0.00    -0.024 C 
ATOM     27  C   UNL     1      35.127 -21.087 -19.537  0.00  0.00    +0.065 C 
ATOM     28  C   UNL     1      34.148 -22.152 -19.130  0.00  0.00    +0.122 C 
ATOM     29  C   UNL     1      33.145 -20.553 -20.211  0.00  0.00    +0.072 C 
ATOM     30  C   UNL     1      36.440 -21.111 -18.943  0.00  0.00    -0.020 C 
ATOM     31  C   UNL     1      34.287 -22.509 -17.676  0.00  0.00    -0.004 C 
ATOM     32  C   UNL     1      36.596 -21.722 -17.754  0.00  0.00    -0.004 C 
ATOM     33  C   UNL     1      35.464 -22.315 -17.053  0.00  0.00    -0.003 C 
ENDBRANCH  24  26
ENDBRANCH  19  24
ENDBRANCH  18  19
ENDBRANCH   1  18
TORSDOF 7
ENDMDL
MODEL 3
REMARK VINA RESULT:     -11.7      1.436      2.162
REMARK  Name = 49866474
REMARK  7 active torsions:
REMARK  status: ('A' for Active; 'I' for Inactive)
REMARK    1  A    between atoms: O_1  and  C_3
REMARK    2  A    between atoms: O_1  and  C_18
REMARK    3  A    between atoms: C_4  and  C_10
REMARK    4  A    between atoms: C_18  and  C_19
REMARK    5  A    between atoms: C_19  and  N_20
REMARK    6  A    between atoms: C_19  and  C_24
REMARK    7  A    between atoms: C_24  and  C_26
REMARK                            x       y       z     vdW  Elec       q    Type
REMARK                         _______ _______ _______ _____ _____    ______ ____
ROOT
ATOM      1  O   UNL     1      34.657 -13.232 -23.278  0.00  0.00    -0.476 OA
ENDROOT
BRANCH   1   3
ATOM      2  N   UNL     1      34.266 -16.278 -25.267  0.00  0.00    -0.239 NA
ATOM      3  C   UNL     1      34.679 -14.560 -23.616  0.00  0.00    +0.158 C 
ATOM      4  C   UNL     1      35.130 -16.863 -23.085  0.00  0.00    +0.022 C 
ATOM      5  C   UNL     1      35.117 -15.523 -22.713  0.00  0.00    +0.040 C 
ATOM      6  C   UNL     1      34.268 -14.986 -24.869  0.00  0.00    +0.136 C 
ATOM      7  C   UNL     1      34.699 -17.185 -24.361  0.00  0.00    +0.099 C 
BRANCH   4  10
ATOM      8  N   UNL     1      36.579 -20.869 -19.546  0.00  0.00    -0.236 N 
ATOM      9  N   UNL     1      35.417 -21.473 -19.245  0.00  0.00    -0.180 NA
ATOM     10  C   UNL     1      35.579 -17.885 -22.170  0.00  0.00    +0.002 C 
ATOM     11  C   UNL     1      35.102 -19.750 -20.717  0.00  0.00    +0.035 C 
ATOM     12  C   UNL     1      34.644 -18.764 -21.606  0.00  0.00    +0.003 C 
ATOM     13  C   UNL     1      36.459 -19.826 -20.424  0.00  0.00    +0.067 C 
ATOM     14  C   UNL     1      36.936 -17.985 -21.858  0.00  0.00    +0.001 C 
ATOM     15  C   UNL     1      37.407 -18.961 -20.974  0.00  0.00    +0.016 C 
ATOM     16  C   UNL     1      34.521 -20.790 -19.960  0.00  0.00    +0.119 C 
ATOM     17  H   UNL     1      37.442 -21.152 -19.167  0.00  0.00    +0.174 HD
ENDBRANCH   4  10
ENDBRANCH   1   3
BRANCH   1  18
ATOM     18  C   UNL     1      33.906 -12.368 -24.121  0.00  0.00    +0.184 C 
BRANCH  18  19
ATOM     19  C   UNL     1      34.368 -10.917 -23.948  0.00  0.00    -0.017 C 
BRANCH  19  20
ATOM     20  N   UNL     1      35.411 -10.645 -24.942  0.00  0.00    +0.384 N 
ATOM     21  H   UNL     1      35.739  -9.685 -24.838  0.00  0.00    -0.089 HD
ATOM     22  H   UNL     1      35.030 -10.776 -25.878  0.00  0.00    -0.089 HD
ATOM     23  H   UNL     1      36.191 -11.287 -24.800  0.00  0.00    -0.089 HD
ENDBRANCH  19  20
BRANCH  19  24
ATOM     24  C   UNL     1      33.224  -9.889 -24.123  0.00  0.00    +0.006 C 
BRANCH  24  26
ATOM     25  N   UNL     1      33.155  -7.491 -21.232  0.00  0.00    -0.234 NA
ATOM     26  C   UNL     1      32.838  -9.181 -22.888  0.00  0.00    -0.024 C 
ATOM     27  C   UNL     1      32.110  -9.516 -21.823  0.00  0.00    +0.065 C 
ATOM     28  C   UNL     1      32.097  -8.422 -20.792  0.00  0.00    +0.122 C 
ATOM     29  C   UNL     1      33.452  -7.931 -22.421  0.00  0.00    +0.072 C 
ATOM     30  C   UNL     1      31.509 -10.779 -21.480  0.00  0.00    -0.020 C 
ATOM     31  C   UNL     1      32.280  -8.966 -19.403  0.00  0.00    -0.004 C 
ATOM     32  C   UNL     1      31.407 -11.109 -20.179  0.00  0.00    -0.004 C 
ATOM     33  C   UNL     1      31.926 -10.237 -19.133  0.00  0.00    -0.003 C 
ENDBRANCH  24  26
ENDBRANCH  19  24
ENDBRANCH  18  19
ENDBRANCH   1  18
TORSDOF 7
ENDMDL
MODEL 4
REMARK VINA RESULT:     -11.6      1.630     10.260
REMARK  Name = 49866474
REMARK  7 active torsions:
REMARK  status: ('A' for Active; 'I' for Inactive)
REMARK    1  A    between atoms: O_1  and  C_3
REMARK    2  A    between atoms: O_1  and  C_18
REMARK    3  A    between atoms: C_4  and  C_10
REMARK    4  A    between atoms: C_18  and  C_19
REMARK    5  A    between atoms: C_19  and  N_20
REMARK    6  A    between atoms: C_19  and  C_24
REMARK    7  A    between atoms: C_24  and  C_26
REMARK                            x       y       z     vdW  Elec       q    Type
REMARK                         _______ _______ _______ _____ _____    ______ ____
ROOT
ATOM      1  O   UNL     1      35.049 -15.861 -22.704  0.00  0.00    -0.476 OA
ENDROOT
BRANCH   1   3
ATOM      2  N   UNL     1      33.600 -14.492 -25.772  0.00  0.00    -0.239 NA
ATOM      3  C   UNL     1      34.578 -14.944 -23.607  0.00  0.00    +0.158 C 
ATOM      4  C   UNL     1      34.097 -12.677 -24.253  0.00  0.00    +0.022 C 
ATOM      5  C   UNL     1      34.583 -13.584 -23.317  0.00  0.00    +0.040 C 
ATOM      6  C   UNL     1      34.080 -15.343 -24.838  0.00  0.00    +0.136 C 
ATOM      7  C   UNL     1      33.620 -13.177 -25.454  0.00  0.00    +0.099 C 
BRANCH   4  10
ATOM      8  N   UNL     1      33.834  -7.280 -23.039  0.00  0.00    -0.236 N 
ATOM      9  N   UNL     1      32.791  -7.186 -22.197  0.00  0.00    -0.180 NA
ATOM     10  C   UNL     1      34.088 -11.259 -23.981  0.00  0.00    +0.002 C 
ATOM     11  C   UNL     1      33.129  -9.348 -22.866  0.00  0.00    +0.035 C 
ATOM     12  C   UNL     1      33.120 -10.730 -23.116  0.00  0.00    +0.003 C 
ATOM     13  C   UNL     1      34.090  -8.550 -23.478  0.00  0.00    +0.067 C 
ATOM     14  C   UNL     1      35.041 -10.436 -24.581  0.00  0.00    +0.001 C 
ATOM     15  C   UNL     1      35.062  -9.058 -24.342  0.00  0.00    +0.016 C 
ATOM     16  C   UNL     1      32.365  -8.446 -22.094  0.00  0.00    +0.119 C 
ATOM     17  H   UNL     1      34.369  -6.501 -23.317  0.00  0.00    +0.174 HD
ENDBRANCH   4  10
ENDBRANCH   1   3
BRANCH   1  18
ATOM     18  C   UNL     1      35.628 -17.046 -23.236  0.00  0.00    +0.184 C 
BRANCH  18  19
ATOM     19  C   UNL     1      34.935 -18.286 -22.659  0.00  0.00    -0.017 C 
BRANCH  19  20
ATOM     20  N   UNL     1      35.140 -19.401 -23.588  0.00  0.00    +0.384 N 
ATOM     21  H   UNL     1      36.119 -19.688 -23.564  0.00  0.00    -0.089 HD
ATOM     22  H   UNL     1      34.896 -19.106 -24.533  0.00  0.00    -0.089 HD
ATOM     23  H   UNL     1      34.549 -20.186 -23.313  0.00  0.00    -0.089 HD
ENDBRANCH  19  20
BRANCH  19  24
ATOM     24  C   UNL     1      35.469 -18.687 -21.262  0.00  0.00    +0.006 C 
BRANCH  24  26
ATOM     25  N   UNL     1      32.866 -21.010 -19.868  0.00  0.00    -0.234 NA
ATOM     26  C   UNL     1      34.800 -19.856 -20.660  0.00  0.00    -0.024 C 
ATOM     27  C   UNL     1      35.215 -20.858 -19.887  0.00  0.00    +0.065 C 
ATOM     28  C   UNL     1      34.080 -21.758 -19.485  0.00  0.00    +0.122 C 
ATOM     29  C   UNL     1      33.343 -20.026 -20.575  0.00  0.00    +0.072 C 
ATOM     30  C   UNL     1      36.504 -21.083 -19.285  0.00  0.00    -0.020 C 
ATOM     31  C   UNL     1      34.154 -22.129 -18.030  0.00  0.00    -0.004 C 
ATOM     32  C   UNL     1      36.556 -21.708 -18.094  0.00  0.00    -0.004 C 
ATOM     33  C   UNL     1      35.343 -22.118 -17.399  0.00  0.00    -0.003 C 
ENDBRANCH  24  26
ENDBRANCH  19  24
ENDBRANCH  18  19
ENDBRANCH   1  18
TORSDOF 7
ENDMDL
MODEL 5
REMARK VINA RESULT:     -11.5      1.840      2.571
REMARK  Name = 49866474
REMARK  7 active torsions:
REMARK  status: ('A' for Active; 'I' for Inactive)
REMARK    1  A    between atoms: O_1  and  C_3
REMARK    2  A    between atoms: O_1  and  C_18
REMARK    3  A    between atoms: C_4  and  C_10
REMARK    4  A    between atoms: C_18  and  C_19
REMARK    5  A    between atoms: C_19  and  N_20
REMARK    6  A    between atoms: C_19  and  C_24
REMARK    7  A    between atoms: C_24  and  C_26
REMARK                            x       y       z     vdW  Elec       q    Type
REMARK                         _______ _______ _______ _____ _____    ______ ____
ROOT
ATOM      1  O   UNL     1      34.897 -14.016 -23.400  0.00  0.00    -0.476 OA
ENDROOT
BRANCH   1   3
ATOM      2  N   UNL     1      34.571 -17.229 -25.118  0.00  0.00    -0.239 NA
ATOM      3  C   UNL     1      34.918 -15.369 -23.612  0.00  0.00    +0.158 C 
ATOM      4  C   UNL     1      35.306 -17.617 -22.848  0.00  0.00    +0.022 C 
ATOM      5  C   UNL     1      35.292 -16.248 -22.602  0.00  0.00    +0.040 C 
ATOM      6  C   UNL     1      34.569 -15.906 -24.842  0.00  0.00    +0.136 C 
ATOM      7  C   UNL     1      34.940 -18.052 -24.111  0.00  0.00    +0.099 C 
BRANCH   4  10
ATOM      8  N   UNL     1      36.504 -21.303 -18.891  0.00  0.00    -0.236 N 
ATOM      9  N   UNL     1      35.332 -21.918 -18.655  0.00  0.00    -0.180 NA
ATOM     10  C   UNL     1      35.690 -18.554 -21.819  0.00  0.00    +0.002 C 
ATOM     11  C   UNL     1      35.119 -20.319 -20.278  0.00  0.00    +0.035 C 
ATOM     12  C   UNL     1      34.726 -19.416 -21.279  0.00  0.00    +0.003 C 
ATOM     13  C   UNL     1      36.444 -20.333 -19.854  0.00  0.00    +0.067 C 
ATOM     14  C   UNL     1      37.012 -18.589 -21.375  0.00  0.00    +0.001 C 
ATOM     15  C   UNL     1      37.419 -19.483 -20.379  0.00  0.00    +0.016 C 
ATOM     16  C   UNL     1      34.493 -21.318 -19.500  0.00  0.00    +0.119 C 
ATOM     17  H   UNL     1      37.333 -21.531 -18.413  0.00  0.00    +0.174 HD
ENDBRANCH   4  10
ENDBRANCH   1   3
BRANCH   1  18
ATOM     18  C   UNL     1      34.135 -13.235 -24.311  0.00  0.00    +0.184 C 
BRANCH  18  19
ATOM     19  C   UNL     1      33.556 -12.002 -23.607  0.00  0.00    -0.017 C 
BRANCH  19  20
ATOM     20  N   UNL     1      33.651 -12.214 -22.159  0.00  0.00    +0.384 N 
ATOM     21  H   UNL     1      34.045 -13.136 -21.975  0.00  0.00    -0.089 HD
ATOM     22  H   UNL     1      32.722 -12.152 -21.745  0.00  0.00    -0.089 HD
ATOM     23  H   UNL     1      34.253 -11.499 -21.750  0.00  0.00    -0.089 HD
ENDBRANCH  19  20
BRANCH  19  24
ATOM     24  C   UNL     1      34.292 -10.690 -23.975  0.00  0.00    +0.006 C 
BRANCH  24  26
ATOM     25  N   UNL     1      31.888  -8.162 -22.581  0.00  0.00    -0.234 NA
ATOM     26  C   UNL     1      33.721  -9.474 -23.365  0.00  0.00    -0.024 C 
ATOM     27  C   UNL     1      34.144  -8.215 -23.251  0.00  0.00    +0.065 C 
ATOM     28  C   UNL     1      33.116  -7.340 -22.590  0.00  0.00    +0.122 C 
ATOM     29  C   UNL     1      32.321  -9.334 -22.943  0.00  0.00    +0.072 C 
ATOM     30  C   UNL     1      35.319  -7.586 -23.797  0.00  0.00    -0.020 C 
ATOM     31  C   UNL     1      32.979  -6.018 -23.290  0.00  0.00    -0.004 C 
ATOM     32  C   UNL     1      35.252  -6.285 -24.137  0.00  0.00    -0.004 C 
ATOM     33  C   UNL     1      34.013  -5.530 -24.000  0.00  0.00    -0.003 C 
ENDBRANCH  24  26
ENDBRANCH  19  24
ENDBRANCH  18  19
ENDBRANCH   1  18
TORSDOF 7
ENDMDL
MODEL 6
REMARK VINA RESULT:     -11.5      5.669     10.975
REMARK  Name = 49866474
REMARK  7 active torsions:
REMARK  status: ('A' for Active; 'I' for Inactive)
REMARK    1  A    between atoms: O_1  and  C_3
REMARK    2  A    between atoms: O_1  and  C_18
REMARK    3  A    between atoms: C_4  and  C_10
REMARK    4  A    between atoms: C_18  and  C_19
REMARK    5  A    between atoms: C_19  and  N_20
REMARK    6  A    between atoms: C_19  and  C_24
REMARK    7  A    between atoms: C_24  and  C_26
REMARK                            x       y       z     vdW  Elec       q    Type
REMARK                         _______ _______ _______ _____ _____    ______ ____
ROOT
ATOM      1  O   UNL     1      36.255 -22.352 -17.577  0.00  0.00    -0.476 OA
ENDROOT
BRANCH   1   3
ATOM      2  N   UNL     1      33.053 -21.822 -19.265  0.00  0.00    -0.239 NA
ATOM      3  C   UNL     1      35.331 -21.850 -18.455  0.00  0.00    +0.158 C 
ATOM      4  C   UNL     1      34.726 -20.401 -20.278  0.00  0.00    +0.022 C 
ATOM      5  C   UNL     1      35.686 -20.894 -19.401  0.00  0.00    +0.040 C 
ATOM      6  C   UNL     1      34.013 -22.277 -18.430  0.00  0.00    +0.136 C 
ATOM      7  C   UNL     1      33.436 -20.893 -20.170  0.00  0.00    +0.099 C 
BRANCH   4  10
ATOM      8  N   UNL     1      35.805 -16.689 -24.245  0.00  0.00    -0.236 N 
ATOM      9  N   UNL     1      34.864 -16.924 -25.175  0.00  0.00    -0.180 NA
ATOM     10  C   UNL     1      35.065 -19.408 -21.270  0.00  0.00    +0.002 C 
ATOM     11  C   UNL     1      34.646 -18.343 -23.393  0.00  0.00    +0.035 C 
ATOM     12  C   UNL     1      34.299 -19.315 -22.440  0.00  0.00    +0.003 C 
ATOM     13  C   UNL     1      35.730 -17.507 -23.151  0.00  0.00    +0.067 C 
ATOM     14  C   UNL     1      36.148 -18.556 -21.053  0.00  0.00    +0.001 C 
ATOM     15  C   UNL     1      36.506 -17.584 -21.992  0.00  0.00    +0.016 C 
ATOM     16  C   UNL     1      34.160 -17.930 -24.652  0.00  0.00    +0.119 C 
ATOM     17  H   UNL     1      36.490 -15.989 -24.343  0.00  0.00    +0.174 HD
ENDBRANCH   4  10
ENDBRANCH   1   3
BRANCH   1  18
ATOM     18  C   UNL     1      36.118 -21.972 -16.214  0.00  0.00    +0.184 C 
BRANCH  18  19
ATOM     19  C   UNL     1      36.162 -23.206 -15.306  0.00  0.00    -0.017 C 
BRANCH  19  20
ATOM     20  N   UNL     1      36.174 -22.750 -13.913  0.00  0.00    +0.384 N 
ATOM     21  H   UNL     1      36.471 -23.516 -13.307  0.00  0.00    -0.089 HD
ATOM     22  H   UNL     1      35.238 -22.448 -13.646  0.00  0.00    -0.089 HD
ATOM     23  H   UNL     1      36.824 -21.970 -13.816  0.00  0.00    -0.089 HD
ENDBRANCH  19  20
BRANCH  19  24
ATOM     24  C   UNL     1      34.960 -24.159 -15.516  0.00  0.00    +0.006 C 
BRANCH  24  26
ATOM     25  N   UNL     1      32.398 -24.311 -12.772  0.00  0.00    -0.234 NA
ATOM     26  C   UNL     1      33.793 -23.874 -14.659  0.00  0.00    -0.024 C 
ATOM     27  C   UNL     1      32.633 -23.249 -14.860  0.00  0.00    +0.065 C 
ATOM     28  C   UNL     1      31.750 -23.311 -13.645  0.00  0.00    +0.122 C 
ATOM     29  C   UNL     1      33.544 -24.507 -13.357  0.00  0.00    +0.072 C 
ATOM     30  C   UNL     1      32.081 -22.701 -16.072  0.00  0.00    -0.020 C 
ATOM     31  C   UNL     1      30.326 -23.627 -14.008  0.00  0.00    -0.004 C 
ATOM     32  C   UNL     1      30.745 -22.721 -16.235  0.00  0.00    -0.004 C 
ATOM     33  C   UNL     1      29.868 -23.318 -15.236  0.00  0.00    -0.003 C 
ENDBRANCH  24  26
ENDBRANCH  19  24
ENDBRANCH  18  19
ENDBRANCH   1  18
TORSDOF 7
ENDMDL
MODEL 7
REMARK VINA RESULT:     -11.4      3.125     11.537
REMARK  Name = 49866474
REMARK  7 active torsions:
REMARK  status: ('A' for Active; 'I' for Inactive)
REMARK    1  A    between atoms: O_1  and  C_3
REMARK    2  A    between atoms: O_1  and  C_18
REMARK    3  A    between atoms: C_4  and  C_10
REMARK    4  A    between atoms: C_18  and  C_19
REMARK    5  A    between atoms: C_19  and  N_20
REMARK    6  A    between atoms: C_19  and  C_24
REMARK    7  A    between atoms: C_24  and  C_26
REMARK                            x       y       z     vdW  Elec       q    Type
REMARK                         _______ _______ _______ _____ _____    ______ ____
ROOT
ATOM      1  O   UNL     1      31.700 -11.954 -21.426  0.00  0.00    -0.476 OA
ENDROOT
BRANCH   1   3
ATOM      2  N   UNL     1      32.389  -9.203 -19.114  0.00  0.00    -0.239 NA
ATOM      3  C   UNL     1      31.867 -10.676 -20.959  0.00  0.00    +0.158 C 
ATOM      4  C   UNL     1      31.876  -8.294 -21.295  0.00  0.00    +0.022 C 
ATOM      5  C   UNL     1      31.699  -9.579 -21.797  0.00  0.00    +0.040 C 
ATOM      6  C   UNL     1      32.209 -10.437 -19.638  0.00  0.00    +0.136 C 
ATOM      7  C   UNL     1      32.218  -8.161 -19.959  0.00  0.00    +0.099 C 
BRANCH   4  10
ATOM      8  N   UNL     1      31.212  -3.688 -24.298  0.00  0.00    -0.236 N 
ATOM      9  N   UNL     1      31.093  -2.715 -23.378  0.00  0.00    -0.180 NA
ATOM     10  C   UNL     1      31.708  -7.135 -22.140  0.00  0.00    +0.002 C 
ATOM     11  C   UNL     1      31.383  -4.759 -22.393  0.00  0.00    +0.035 C 
ATOM     12  C   UNL     1      31.546  -5.873 -21.553  0.00  0.00    +0.003 C 
ATOM     13  C   UNL     1      31.388  -4.939 -23.771  0.00  0.00    +0.067 C 
ATOM     14  C   UNL     1      31.710  -7.286 -23.527  0.00  0.00    +0.001 C 
ATOM     15  C   UNL     1      31.548  -6.187 -24.376  0.00  0.00    +0.016 C 
ATOM     16  C   UNL     1      31.198  -3.371 -22.221  0.00  0.00    +0.119 C 
ATOM     17  H   UNL     1      31.176  -3.515 -25.266  0.00  0.00    +0.174 HD
ENDBRANCH   4  10
ENDBRANCH   1   3
BRANCH   1  18
ATOM     18  C   UNL     1      32.736 -12.883 -21.136  0.00  0.00    +0.184 C 
BRANCH  18  19
ATOM     19  C   UNL     1      33.404 -13.362 -22.430  0.00  0.00    -0.017 C 
BRANCH  19  20
ATOM     20  N   UNL     1      33.690 -12.188 -23.261  0.00  0.00    +0.384 N 
ATOM     21  H   UNL     1      33.100 -11.410 -22.965  0.00  0.00    -0.089 HD
ATOM     22  H   UNL     1      33.500 -12.408 -24.237  0.00  0.00    -0.089 HD
ATOM     23  H   UNL     1      34.672 -11.929 -23.156  0.00  0.00    -0.089 HD
ENDBRANCH  19  20
BRANCH  19  24
ATOM     24  C   UNL     1      34.720 -14.140 -22.184  0.00  0.00    +0.006 C 
BRANCH  24  26
ATOM     25  N   UNL     1      34.513 -16.518 -25.085  0.00  0.00    -0.234 NA
ATOM     26  C   UNL     1      34.928 -15.295 -23.077  0.00  0.00    -0.024 C 
ATOM     27  C   UNL     1      35.350 -16.544 -22.885  0.00  0.00    +0.065 C 
ATOM     28  C   UNL     1      35.301 -17.350 -24.152  0.00  0.00    +0.122 C 
ATOM     29  C   UNL     1      34.420 -15.384 -24.452  0.00  0.00    +0.072 C 
ATOM     30  C   UNL     1      35.669 -17.229 -21.658  0.00  0.00    -0.020 C 
ATOM     31  C   UNL     1      34.741 -18.725 -23.916  0.00  0.00    -0.004 C 
ATOM     32  C   UNL     1      35.436 -18.553 -21.583  0.00  0.00    -0.004 C 
ATOM     33  C   UNL     1      34.837 -19.281 -22.693  0.00  0.00    -0.003 C 
ENDBRANCH  24  26
ENDBRANCH  19  24
ENDBRANCH  18  19
ENDBRANCH   1  18
TORSDOF 7
ENDMDL
MODEL 8
REMARK VINA RESULT:     -11.4      2.307     10.199
REMARK  Name = 49866474
REMARK  7 active torsions:
REMARK  status: ('A' for Active; 'I' for Inactive)
REMARK    1  A    between atoms: O_1  and  C_3
REMARK    2  A    between atoms: O_1  and  C_18
REMARK    3  A    between atoms: C_4  and  C_10
REMARK    4  A    between atoms: C_18  and  C_19
REMARK    5  A    between atoms: C_19  and  N_20
REMARK    6  A    between atoms: C_19  and  C_24
REMARK    7  A    between atoms: C_24  and  C_26
REMARK                            x       y       z     vdW  Elec       q    Type
REMARK                         _______ _______ _______ _____ _____    ______ ____
ROOT
ATOM      1  O   UNL     1      34.291 -15.019 -23.575  0.00  0.00    -0.476 OA
ENDROOT
BRANCH   1   3
ATOM      2  N   UNL     1      33.566 -13.021 -26.554  0.00  0.00    -0.239 NA
ATOM      3  C   UNL     1      34.106 -13.922 -24.375  0.00  0.00    +0.158 C 
ATOM      4  C   UNL     1      34.056 -11.539 -24.707  0.00  0.00    +0.022 C 
ATOM      5  C   UNL     1      34.252 -12.634 -23.871  0.00  0.00    +0.040 C 
ATOM      6  C   UNL     1      33.765 -14.060 -25.711  0.00  0.00    +0.136 C 
ATOM      7  C   UNL     1      33.717 -11.785 -26.027  0.00  0.00    +0.099 C 
BRANCH   4  10
ATOM      8  N   UNL     1      34.350  -6.390 -22.688  0.00  0.00    -0.236 N 
ATOM      9  N   UNL     1      33.200  -6.241 -22.010  0.00  0.00    -0.180 NA
ATOM     10  C   UNL     1      34.200 -10.190 -24.213  0.00  0.00    +0.002 C 
ATOM     11  C   UNL     1      33.340  -8.317 -22.961  0.00  0.00    +0.035 C 
ATOM     12  C   UNL     1      33.181  -9.631 -23.431  0.00  0.00    +0.003 C 
ATOM     13  C   UNL     1      34.496  -7.614 -23.283  0.00  0.00    +0.067 C 
ATOM     14  C   UNL     1      35.350  -9.462 -24.520  0.00  0.00    +0.001 C 
ATOM     15  C   UNL     1      35.523  -8.153 -24.061  0.00  0.00    +0.016 C 
ATOM     16  C   UNL     1      32.589  -7.415 -22.178  0.00  0.00    +0.119 C 
ATOM     17  H   UNL     1      35.030  -5.681 -22.751  0.00  0.00    +0.174 HD
ENDBRANCH   4  10
ENDBRANCH   1   3
BRANCH   1  18
ATOM     18  C   UNL     1      35.017 -16.105 -24.135  0.00  0.00    +0.184 C 
BRANCH  18  19
ATOM     19  C   UNL     1      34.258 -17.421 -23.927  0.00  0.00    -0.017 C 
BRANCH  19  20
ATOM     20  N   UNL     1      33.364 -17.621 -25.072  0.00  0.00    +0.384 N 
ATOM     21  H   UNL     1      33.061 -18.595 -25.101  0.00  0.00    -0.089 HD
ATOM     22  H   UNL     1      33.858 -17.392 -25.933  0.00  0.00    -0.089 HD
ATOM     23  H   UNL     1      32.549 -17.014 -24.976  0.00  0.00    -0.089 HD
ENDBRANCH  19  20
BRANCH  19  24
ATOM     24  C   UNL     1      35.193 -18.648 -23.796  0.00  0.00    +0.006 C 
BRANCH  24  26
ATOM     25  N   UNL     1      37.934 -18.780 -21.230  0.00  0.00    -0.234 NA
ATOM     26  C   UNL     1      35.924 -18.731 -22.518  0.00  0.00    -0.024 C 
ATOM     27  C   UNL     1      35.621 -19.210 -21.312  0.00  0.00    +0.065 C 
ATOM     28  C   UNL     1      36.783 -19.110 -20.364  0.00  0.00    +0.122 C 
ATOM     29  C   UNL     1      37.369 -18.510 -22.371  0.00  0.00    +0.072 C 
ATOM     30  C   UNL     1      34.447 -19.921 -20.873  0.00  0.00    -0.020 C 
ATOM     31  C   UNL     1      36.949 -20.365 -19.554  0.00  0.00    -0.004 C 
ATOM     32  C   UNL     1      34.582 -20.846 -19.904  0.00  0.00    -0.004 C 
ATOM     33  C   UNL     1      35.886 -21.160 -19.333  0.00  0.00    -0.003 C 
ENDBRANCH  24  26
ENDBRANCH  19  24
ENDBRANCH  18  19
ENDBRANCH   1  18
TORSDOF 7
ENDMDL
MODEL 9
REMARK VINA RESULT:     -11.3      5.966     12.523
REMARK  Name = 49866474
REMARK  7 active torsions:
REMARK  status: ('A' for Active; 'I' for Inactive)
REMARK    1  A    between atoms: O_1  and  C_3
REMARK    2  A    between atoms: O_1  and  C_18
REMARK    3  A    between atoms: C_4  and  C_10
REMARK    4  A    between atoms: C_18  and  C_19
REMARK    5  A    between atoms: C_19  and  N_20
REMARK    6  A    between atoms: C_19  and  C_24
REMARK    7  A    between atoms: C_24  and  C_26
REMARK                            x       y       z     vdW  Elec       q    Type
REMARK                         _______ _______ _______ _____ _____    ______ ____
ROOT
ATOM      1  O   UNL     1      35.610 -23.117 -16.321  0.00  0.00    -0.476 OA
ENDROOT
BRANCH   1   3
ATOM      2  N   UNL     1      32.768 -22.392 -18.508  0.00  0.00    -0.239 NA
ATOM      3  C   UNL     1      34.883 -22.578 -17.350  0.00  0.00    +0.158 C 
ATOM      4  C   UNL     1      34.702 -21.169 -19.291  0.00  0.00    +0.022 C 
ATOM      5  C   UNL     1      35.466 -21.701 -18.258  0.00  0.00    +0.040 C 
ATOM      6  C   UNL     1      33.542 -22.888 -17.518  0.00  0.00    +0.136 C 
ATOM      7  C   UNL     1      33.370 -21.542 -19.372  0.00  0.00    +0.099 C 
BRANCH   4  10
ATOM      8  N   UNL     1      36.661 -17.661 -23.104  0.00  0.00    -0.236 N 
ATOM      9  N   UNL     1      35.610 -17.439 -23.911  0.00  0.00    -0.180 NA
ATOM     10  C   UNL     1      35.279 -20.256 -20.250  0.00  0.00    +0.002 C 
ATOM     11  C   UNL     1      35.067 -18.879 -22.218  0.00  0.00    +0.035 C 
ATOM     12  C   UNL     1      34.486 -19.765 -21.296  0.00  0.00    +0.003 C 
ATOM     13  C   UNL     1      36.402 -18.517 -22.068  0.00  0.00    +0.067 C 
ATOM     14  C   UNL     1      36.615 -19.876 -20.123  0.00  0.00    +0.001 C 
ATOM     15  C   UNL     1      37.208 -18.995 -21.033  0.00  0.00    +0.016 C 
ATOM     16  C   UNL     1      34.643 -18.181 -23.369  0.00  0.00    +0.119 C 
ATOM     17  H   UNL     1      37.541 -17.245 -23.245  0.00  0.00    +0.174 HD
ENDBRANCH   4  10
ENDBRANCH   1   3
BRANCH   1  18
ATOM     18  C   UNL     1      34.921 -23.989 -15.436  0.00  0.00    +0.184 C 
BRANCH  18  19
ATOM     19  C   UNL     1      34.756 -23.336 -14.059  0.00  0.00    -0.017 C 
BRANCH  19  20
ATOM     20  N   UNL     1      33.362 -22.905 -13.918  0.00  0.00    +0.384 N 
ATOM     21  H   UNL     1      32.869 -23.058 -14.798  0.00  0.00    -0.089 HD
ATOM     22  H   UNL     1      33.335 -21.915 -13.680  0.00  0.00    -0.089 HD
ATOM     23  H   UNL     1      32.912 -23.446 -13.179  0.00  0.00    -0.089 HD
ENDBRANCH  19  20
BRANCH  19  24
ATOM     24  C   UNL     1      35.112 -24.286 -12.889  0.00  0.00    +0.006 C 
BRANCH  24  26
ATOM     25  N   UNL     1      38.712 -23.636 -12.034  0.00  0.00    -0.234 NA
ATOM     26  C   UNL     1      36.558 -24.457 -12.654  0.00  0.00    -0.024 C 
ATOM     27  C   UNL     1      37.465 -25.331 -13.090  0.00  0.00    +0.065 C 
ATOM     28  C   UNL     1      38.843 -24.998 -12.591  0.00  0.00    +0.122 C 
ATOM     29  C   UNL     1      37.424 -23.447 -12.031  0.00  0.00    +0.072 C 
ATOM     30  C   UNL     1      37.331 -26.392 -14.055  0.00  0.00    -0.020 C 
ATOM     31  C   UNL     1      39.875 -25.134 -13.676  0.00  0.00    -0.004 C 
ATOM     32  C   UNL     1      38.396 -26.703 -14.818  0.00  0.00    -0.004 C 
ATOM     33  C   UNL     1      39.647 -25.965 -14.710  0.00  0.00    -0.003 C 
ENDBRANCH  24  26
ENDBRANCH  19  24
ENDBRANCH  18  19
ENDBRANCH   1  18
TORSDOF 7
ENDMDL
