MODEL 1
REMARK VINA RESULT:     -13.1      0.000      0.000
REMARK  Name = 11560856
REMARK  5 active torsions:
REMARK  status: ('A' for Active; 'I' for Inactive)
REMARK    1  A    between atoms: C_2  and  O_24
REMARK    2  A    between atoms: C_3  and  N_10
REMARK    3  A    between atoms: C_12  and  C_16
REMARK    4  A    between atoms: C_16  and  C_18
REMARK    5  A    between atoms: O_24  and  C_28
REMARK                            x       y       z     vdW  Elec       q    Type
REMARK                         _______ _______ _______ _____ _____    ______ ____
ROOT
ATOM      1  F   UNL     1      36.830 -22.088 -18.475  0.00  0.00    -0.201 F 
ATOM      2  C   UNL     1      34.502 -22.114 -18.925  0.00  0.00    +0.173 C 
ATOM      3  C   UNL     1      34.780 -19.797 -20.416  0.00  0.00    +0.054 C 
ATOM      4  C   UNL     1      35.756 -21.540 -19.057  0.00  0.00    +0.176 C 
ATOM      5  C   UNL     1      33.384 -21.555 -19.521  0.00  0.00    +0.041 C 
ATOM      6  C   UNL     1      35.895 -20.374 -19.809  0.00  0.00    +0.047 C 
ATOM      7  C   UNL     1      33.524 -20.388 -20.272  0.00  0.00    +0.018 C 
ENDROOT
BRANCH   3  10
ATOM      8  O   UNL     1      34.997 -17.328 -25.259  0.00  0.00    -0.274 OA
ATOM      9  O   UNL     1      34.761 -19.391 -23.391  0.00  0.00    -0.252 OA
ATOM     10  N   UNL     1      34.921 -18.631 -21.169  0.00  0.00    -0.268 N 
ATOM     11  N   UNL     1      35.080 -17.137 -22.935  0.00  0.00    -0.239 N 
ATOM     12  C   UNL     1      35.115 -16.646 -24.243  0.00  0.00    +0.234 C 
ATOM     13  C   UNL     1      34.905 -18.487 -22.572  0.00  0.00    +0.310 C 
ATOM     14  H   UNL     1      35.047 -17.802 -20.655  0.00  0.00    +0.156 HD
ATOM     15  H   UNL     1      35.188 -16.484 -22.206  0.00  0.00    +0.159 HD
BRANCH  12  16
ATOM     16  C   UNL     1      35.321 -15.144 -24.263  0.00  0.00    +0.112 C 
BRANCH  16  18
ATOM     17  F   UNL     1      32.398 -12.440 -20.295  0.00  0.00    -0.204 F 
ATOM     18  C   UNL     1      34.537 -14.420 -23.199  0.00  0.00    -0.013 C 
ATOM     19  C   UNL     1      34.878 -14.590 -21.865  0.00  0.00    -0.001 C 
ATOM     20  C   UNL     1      33.487 -13.593 -23.570  0.00  0.00    -0.001 C 
ATOM     21  C   UNL     1      34.152 -13.919 -20.880  0.00  0.00    +0.029 C 
ATOM     22  C   UNL     1      32.761 -12.922 -22.586  0.00  0.00    +0.029 C 
ATOM     23  C   UNL     1      33.094 -13.084 -21.241  0.00  0.00    +0.140 C 
ENDBRANCH  16  18
ENDBRANCH  12  16
ENDBRANCH   3  10
BRANCH   2  24
ATOM     24  O   UNL     1      34.363 -23.270 -18.181  0.00  0.00    -0.451 OA
BRANCH  24  28
ATOM     25  N   UNL     1      34.830 -23.142 -13.551  0.00  0.00    -0.297 N 
ATOM     26  N   UNL     1      32.576 -22.921 -14.371  0.00  0.00    -0.229 NA
ATOM     27  C   UNL     1      34.572 -23.200 -15.768  0.00  0.00    +0.067 C 
ATOM     28  C   UNL     1      33.800 -23.159 -16.941  0.00  0.00    +0.150 C 
ATOM     29  C   UNL     1      33.900 -23.076 -14.555  0.00  0.00    +0.135 C 
ATOM     30  C   UNL     1      35.951 -23.343 -15.463  0.00  0.00    +0.022 C 
ATOM     31  C   UNL     1      36.080 -23.303 -14.090  0.00  0.00    +0.063 C 
ATOM     32  C   UNL     1      32.422 -22.999 -16.808  0.00  0.00    +0.058 C 
ATOM     33  C   UNL     1      31.883 -22.890 -15.533  0.00  0.00    +0.103 C 
ATOM     34  H   UNL     1      34.631 -23.081 -12.588  0.00  0.00    +0.154 HD
ENDBRANCH  24  28
ENDBRANCH   2  24
TORSDOF 5
ENDMDL
MODEL 2
REMARK VINA RESULT:     -12.7      4.112     11.270
REMARK  Name = 11560856
REMARK  5 active torsions:
REMARK  status: ('A' for Active; 'I' for Inactive)
REMARK    1  A    between atoms: C_2  and  O_24
REMARK    2  A    between atoms: C_3  and  N_10
REMARK    3  A    between atoms: C_12  and  C_16
REMARK    4  A    between atoms: C_16  and  C_18
REMARK    5  A    between atoms: O_24  and  C_28
REMARK                            x       y       z     vdW  Elec       q    Type
REMARK                         _______ _______ _______ _____ _____    ______ ____
ROOT
ATOM      1  F   UNL     1      31.423 -11.750 -20.719  0.00  0.00    -0.201 F 
ATOM      2  C   UNL     1      32.884 -11.521 -22.574  0.00  0.00    +0.173 C 
ATOM      3  C   UNL     1      34.139 -13.882 -21.859  0.00  0.00    +0.054 C 
ATOM      4  C   UNL     1      32.443 -12.210 -21.456  0.00  0.00    +0.176 C 
ATOM      5  C   UNL     1      33.938 -11.985 -23.342  0.00  0.00    +0.041 C 
ATOM      6  C   UNL     1      33.075 -13.400 -21.097  0.00  0.00    +0.047 C 
ATOM      7  C   UNL     1      34.570 -13.175 -22.982  0.00  0.00    +0.018 C 
ENDROOT
BRANCH   3  10
ATOM      8  O   UNL     1      36.268 -18.685 -23.274  0.00  0.00    -0.274 OA
ATOM      9  O   UNL     1      35.021 -16.201 -23.551  0.00  0.00    -0.252 OA
ATOM     10  N   UNL     1      34.770 -15.074 -21.500  0.00  0.00    -0.268 N 
ATOM     11  N   UNL     1      35.775 -17.162 -21.576  0.00  0.00    -0.239 N 
ATOM     12  C   UNL     1      36.282 -18.359 -22.089  0.00  0.00    +0.234 C 
ATOM     13  C   UNL     1      35.169 -16.141 -22.333  0.00  0.00    +0.310 C 
ATOM     14  H   UNL     1      34.963 -15.185 -20.542  0.00  0.00    +0.156 HD
ATOM     15  H   UNL     1      35.848 -17.022 -20.604  0.00  0.00    +0.159 HD
BRANCH  12  16
ATOM     16  C   UNL     1      36.863 -19.227 -20.989  0.00  0.00    +0.112 C 
BRANCH  16  18
ATOM     17  F   UNL     1      33.027 -22.439 -18.427  0.00  0.00    -0.204 F 
ATOM     18  C   UNL     1      35.835 -20.087 -20.301  0.00  0.00    -0.013 C 
ATOM     19  C   UNL     1      34.489 -19.898 -20.581  0.00  0.00    -0.001 C 
ATOM     20  C   UNL     1      36.250 -21.057 -19.401  0.00  0.00    -0.001 C 
ATOM     21  C   UNL     1      33.537 -20.695 -19.944  0.00  0.00    +0.029 C 
ATOM     22  C   UNL     1      35.298 -21.854 -18.764  0.00  0.00    +0.029 C 
ATOM     23  C   UNL     1      33.942 -21.674 -19.037  0.00  0.00    +0.140 C 
ENDBRANCH  16  18
ENDBRANCH  12  16
ENDBRANCH   3  10
BRANCH   2  24
ATOM     24  O   UNL     1      32.257 -10.342 -22.931  0.00  0.00    -0.451 OA
BRANCH  24  28
ATOM     25  N   UNL     1      33.145  -6.654 -20.233  0.00  0.00    -0.297 N 
ATOM     26  N   UNL     1      34.375  -6.744 -22.303  0.00  0.00    -0.229 NA
ATOM     27  C   UNL     1      32.742  -8.410 -21.551  0.00  0.00    +0.067 C 
ATOM     28  C   UNL     1      32.934  -9.176 -22.713  0.00  0.00    +0.150 C 
ATOM     29  C   UNL     1      33.483  -7.238 -21.426  0.00  0.00    +0.135 C 
ATOM     30  C   UNL     1      31.938  -8.516 -20.385  0.00  0.00    +0.022 C 
ATOM     31  C   UNL     1      32.209  -7.421 -19.592  0.00  0.00    +0.063 C 
ATOM     32  C   UNL     1      33.849  -8.709 -23.655  0.00  0.00    +0.058 C 
ATOM     33  C   UNL     1      34.520  -7.519 -23.402  0.00  0.00    +0.103 C 
ATOM     34  H   UNL     1      33.521  -5.810 -19.889  0.00  0.00    +0.154 HD
ENDBRANCH  24  28
ENDBRANCH   2  24
TORSDOF 5
ENDMDL
MODEL 3
REMARK VINA RESULT:     -12.6      4.237     11.280
REMARK  Name = 11560856
REMARK  5 active torsions:
REMARK  status: ('A' for Active; 'I' for Inactive)
REMARK    1  A    between atoms: C_2  and  O_24
REMARK    2  A    between atoms: C_3  and  N_10
REMARK    3  A    between atoms: C_12  and  C_16
REMARK    4  A    between atoms: C_16  and  C_18
REMARK    5  A    between atoms: O_24  and  C_28
REMARK                            x       y       z     vdW  Elec       q    Type
REMARK                         _______ _______ _______ _____ _____    ______ ____
ROOT
ATOM      1  F   UNL     1      33.814 -11.195 -23.975  0.00  0.00    -0.201 F 
ATOM      2  C   UNL     1      32.499 -11.527 -22.029  0.00  0.00    +0.173 C 
ATOM      3  C   UNL     1      33.890 -13.863 -21.507  0.00  0.00    +0.054 C 
ATOM      4  C   UNL     1      33.507 -11.923 -22.894  0.00  0.00    +0.176 C 
ATOM      5  C   UNL     1      32.172 -12.273 -20.910  0.00  0.00    +0.041 C 
ATOM      6  C   UNL     1      34.207 -13.100 -22.629  0.00  0.00    +0.047 C 
ATOM      7  C   UNL     1      32.872 -13.450 -20.647  0.00  0.00    +0.018 C 
ENDROOT
BRANCH   3  10
ATOM      8  O   UNL     1      36.360 -18.367 -23.300  0.00  0.00    -0.274 OA
ATOM      9  O   UNL     1      34.956 -15.953 -23.381  0.00  0.00    -0.252 OA
ATOM     10  N   UNL     1      34.592 -15.040 -21.242  0.00  0.00    -0.268 N 
ATOM     11  N   UNL     1      35.735 -17.043 -21.484  0.00  0.00    -0.239 N 
ATOM     12  C   UNL     1      36.330 -18.152 -22.091  0.00  0.00    +0.234 C 
ATOM     13  C   UNL     1      35.076 -15.997 -22.159  0.00  0.00    +0.310 C 
ATOM     14  H   UNL     1      34.773 -15.226 -20.294  0.00  0.00    +0.156 HD
ATOM     15  H   UNL     1      35.779 -16.989 -20.502  0.00  0.00    +0.159 HD
BRANCH  12  16
ATOM     16  C   UNL     1      36.946 -19.079 -21.061  0.00  0.00    +0.112 C 
BRANCH  16  18
ATOM     17  F   UNL     1      33.191 -22.412 -18.533  0.00  0.00    -0.204 F 
ATOM     18  C   UNL     1      35.940 -19.971 -20.382  0.00  0.00    -0.013 C 
ATOM     19  C   UNL     1      34.589 -19.810 -20.658  0.00  0.00    -0.001 C 
ATOM     20  C   UNL     1      36.378 -20.943 -19.494  0.00  0.00    -0.001 C 
ATOM     21  C   UNL     1      33.657 -20.637 -20.030  0.00  0.00    +0.029 C 
ATOM     22  C   UNL     1      35.447 -21.770 -18.866  0.00  0.00    +0.029 C 
ATOM     23  C   UNL     1      34.087 -21.617 -19.135  0.00  0.00    +0.140 C 
ENDBRANCH  16  18
ENDBRANCH  12  16
ENDBRANCH   3  10
BRANCH   2  24
ATOM     24  O   UNL     1      31.806 -10.361 -22.289  0.00  0.00    -0.451 OA
BRANCH  24  28
ATOM     25  N   UNL     1      34.130  -6.328 -22.387  0.00  0.00    -0.297 N 
ATOM     26  N   UNL     1      33.070  -6.862 -20.291  0.00  0.00    -0.229 NA
ATOM     27  C   UNL     1      33.008  -8.256 -22.307  0.00  0.00    +0.067 C 
ATOM     28  C   UNL     1      32.223  -9.223 -21.657  0.00  0.00    +0.150 C 
ATOM     29  C   UNL     1      33.379  -7.133 -21.573  0.00  0.00    +0.135 C 
ATOM     30  C   UNL     1      33.564  -8.102 -23.604  0.00  0.00    +0.022 C 
ATOM     31  C   UNL     1      34.249  -6.906 -23.624  0.00  0.00    +0.063 C 
ATOM     32  C   UNL     1      31.874  -8.992 -20.328  0.00  0.00    +0.058 C 
ATOM     33  C   UNL     1      32.316  -7.826 -19.715  0.00  0.00    +0.103 C 
ATOM     34  H   UNL     1      34.524  -5.464 -22.124  0.00  0.00    +0.154 HD
ENDBRANCH  24  28
ENDBRANCH   2  24
TORSDOF 5
ENDMDL
MODEL 4
REMARK VINA RESULT:     -12.5      2.986      9.663
REMARK  Name = 11560856
REMARK  5 active torsions:
REMARK  status: ('A' for Active; 'I' for Inactive)
REMARK    1  A    between atoms: C_2  and  O_24
REMARK    2  A    between atoms: C_3  and  N_10
REMARK    3  A    between atoms: C_12  and  C_16
REMARK    4  A    between atoms: C_16  and  C_18
REMARK    5  A    between atoms: O_24  and  C_28
REMARK                            x       y       z     vdW  Elec       q    Type
REMARK                         _______ _______ _______ _____ _____    ______ ____
ROOT
ATOM      1  F   UNL     1      37.198 -21.092 -19.874  0.00  0.00    -0.201 F 
ATOM      2  C   UNL     1      35.301 -19.950 -20.724  0.00  0.00    +0.173 C 
ATOM      3  C   UNL     1      33.673 -21.443 -19.054  0.00  0.00    +0.054 C 
ATOM      4  C   UNL     1      35.874 -20.893 -19.886  0.00  0.00    +0.176 C 
ATOM      5  C   UNL     1      33.933 -19.737 -20.746  0.00  0.00    +0.041 C 
ATOM      6  C   UNL     1      35.053 -21.644 -19.045  0.00  0.00    +0.047 C 
ATOM      7  C   UNL     1      33.113 -20.489 -19.905  0.00  0.00    +0.018 C 
ENDROOT
BRANCH   3  10
ATOM      8  O   UNL     1      32.981 -24.237 -14.438  0.00  0.00    -0.274 OA
ATOM      9  O   UNL     1      34.260 -22.709 -16.396  0.00  0.00    -0.252 OA
ATOM     10  N   UNL     1      32.854 -22.194 -18.212  0.00  0.00    -0.268 N 
ATOM     11  N   UNL     1      32.060 -23.453 -16.433  0.00  0.00    -0.239 N 
ATOM     12  C   UNL     1      32.034 -24.136 -15.214  0.00  0.00    +0.234 C 
ATOM     13  C   UNL     1      33.173 -22.772 -16.965  0.00  0.00    +0.310 C 
ATOM     14  H   UNL     1      31.933 -22.340 -18.527  0.00  0.00    +0.156 HD
ATOM     15  H   UNL     1      31.231 -23.447 -16.964  0.00  0.00    +0.159 HD
BRANCH  12  16
ATOM     16  C   UNL     1      30.672 -24.752 -14.957  0.00  0.00    +0.112 C 
BRANCH  16  18
ATOM     17  F   UNL     1      26.404 -21.538 -16.703  0.00  0.00    -0.204 F 
ATOM     18  C   UNL     1      29.529 -23.890 -15.426  0.00  0.00    -0.013 C 
ATOM     19  C   UNL     1      28.838 -24.239 -16.578  0.00  0.00    -0.001 C 
ATOM     20  C   UNL     1      29.183 -22.761 -14.697  0.00  0.00    -0.001 C 
ATOM     21  C   UNL     1      27.779 -23.441 -17.011  0.00  0.00    +0.029 C 
ATOM     22  C   UNL     1      28.124 -21.963 -15.131  0.00  0.00    +0.029 C 
ATOM     23  C   UNL     1      27.421 -22.303 -16.286  0.00  0.00    +0.140 C 
ENDBRANCH  16  18
ENDBRANCH  12  16
ENDBRANCH   3  10
BRANCH   2  24
ATOM     24  O   UNL     1      36.113 -19.204 -21.557  0.00  0.00    -0.451 OA
BRANCH  24  28
ATOM     25  N   UNL     1      34.563 -15.503 -23.918  0.00  0.00    -0.297 N 
ATOM     26  N   UNL     1      34.361 -17.617 -25.055  0.00  0.00    -0.229 NA
ATOM     27  C   UNL     1      35.297 -17.299 -22.812  0.00  0.00    +0.067 C 
ATOM     28  C   UNL     1      35.547 -18.675 -22.682  0.00  0.00    +0.150 C 
ATOM     29  C   UNL     1      34.717 -16.862 -24.000  0.00  0.00    +0.135 C 
ATOM     30  C   UNL     1      35.490 -16.149 -22.001  0.00  0.00    +0.022 C 
ATOM     31  C   UNL     1      35.029 -15.059 -22.708  0.00  0.00    +0.063 C 
ATOM     32  C   UNL     1      35.197 -19.503 -23.747  0.00  0.00    +0.058 C 
ATOM     33  C   UNL     1      34.623 -18.932 -24.876  0.00  0.00    +0.103 C 
ATOM     34  H   UNL     1      34.176 -14.933 -24.622  0.00  0.00    +0.154 HD
ENDBRANCH  24  28
ENDBRANCH   2  24
TORSDOF 5
ENDMDL
MODEL 5
REMARK VINA RESULT:     -12.3      4.191      6.094
REMARK  Name = 11560856
REMARK  5 active torsions:
REMARK  status: ('A' for Active; 'I' for Inactive)
REMARK    1  A    between atoms: C_2  and  O_24
REMARK    2  A    between atoms: C_3  and  N_10
REMARK    3  A    between atoms: C_12  and  C_16
REMARK    4  A    between atoms: C_16  and  C_18
REMARK    5  A    between atoms: O_24  and  C_28
REMARK                            x       y       z     vdW  Elec       q    Type
REMARK                         _______ _______ _______ _____ _____    ______ ____
ROOT
ATOM      1  F   UNL     1      35.011 -18.602 -24.627  0.00  0.00    -0.201 F 
ATOM      2  C   UNL     1      35.450 -17.947 -22.390  0.00  0.00    +0.173 C 
ATOM      3  C   UNL     1      34.909 -15.318 -23.070  0.00  0.00    +0.054 C 
ATOM      4  C   UNL     1      35.095 -17.644 -23.694  0.00  0.00    +0.176 C 
ATOM      5  C   UNL     1      35.542 -16.964 -21.419  0.00  0.00    +0.041 C 
ATOM      6  C   UNL     1      34.821 -16.320 -24.036  0.00  0.00    +0.047 C 
ATOM      7  C   UNL     1      35.268 -15.640 -21.761  0.00  0.00    +0.018 C 
ENDROOT
BRANCH   3  10
ATOM      8  O   UNL     1      32.287 -10.655 -22.078  0.00  0.00    -0.274 OA
ATOM      9  O   UNL     1      33.111 -13.305 -21.755  0.00  0.00    -0.252 OA
ATOM     10  N   UNL     1      34.633 -13.994 -23.412  0.00  0.00    -0.268 N 
ATOM     11  N   UNL     1      33.778 -11.838 -23.427  0.00  0.00    -0.239 N 
ATOM     12  C   UNL     1      33.040 -10.714 -23.047  0.00  0.00    +0.234 C 
ATOM     13  C   UNL     1      33.777 -13.080 -22.762  0.00  0.00    +0.310 C 
ATOM     14  H   UNL     1      35.096 -13.652 -24.210  0.00  0.00    +0.156 HD
ATOM     15  H   UNL     1      34.346 -11.755 -24.227  0.00  0.00    +0.159 HD
BRANCH  12  16
ATOM     16  C   UNL     1      33.282  -9.552 -23.991  0.00  0.00    +0.112 C 
BRANCH  16  18
ATOM     17  F   UNL     1      32.173  -4.546 -21.686  0.00  0.00    -0.204 F 
ATOM     18  C   UNL     1      32.985  -8.210 -23.375  0.00  0.00    -0.013 C 
ATOM     19  C   UNL     1      31.719  -7.659 -23.514  0.00  0.00    -0.001 C 
ATOM     20  C   UNL     1      33.981  -7.545 -22.675  0.00  0.00    -0.001 C 
ATOM     21  C   UNL     1      31.444  -6.416 -22.942  0.00  0.00    +0.029 C 
ATOM     22  C   UNL     1      33.707  -6.303 -22.103  0.00  0.00    +0.029 C 
ATOM     23  C   UNL     1      32.438  -5.739 -22.236  0.00  0.00    +0.140 C 
ENDBRANCH  16  18
ENDBRANCH  12  16
ENDBRANCH   3  10
BRANCH   2  24
ATOM     24  O   UNL     1      35.720 -19.258 -22.051  0.00  0.00    -0.451 OA
BRANCH  24  28
ATOM     25  N   UNL     1      35.186 -21.805 -18.190  0.00  0.00    -0.297 N 
ATOM     26  N   UNL     1      33.144 -21.083 -19.246  0.00  0.00    -0.229 NA
ATOM     27  C   UNL     1      35.408 -20.582 -20.045  0.00  0.00    +0.067 C 
ATOM     28  C   UNL     1      34.901 -19.855 -21.134  0.00  0.00    +0.150 C 
ATOM     29  C   UNL     1      34.486 -21.149 -19.169  0.00  0.00    +0.135 C 
ATOM     30  C   UNL     1      36.699 -20.919 -19.560  0.00  0.00    +0.022 C 
ATOM     31  C   UNL     1      36.530 -21.672 -18.417  0.00  0.00    +0.063 C 
ATOM     32  C   UNL     1      33.516 -19.754 -21.262  0.00  0.00    +0.058 C 
ATOM     33  C   UNL     1      32.712 -20.373 -20.313  0.00  0.00    +0.103 C 
ATOM     34  H   UNL     1      34.783 -22.297 -17.438  0.00  0.00    +0.154 HD
ENDBRANCH  24  28
ENDBRANCH   2  24
TORSDOF 5
ENDMDL
MODEL 6
REMARK VINA RESULT:     -12.3      4.798     11.941
REMARK  Name = 11560856
REMARK  5 active torsions:
REMARK  status: ('A' for Active; 'I' for Inactive)
REMARK    1  A    between atoms: C_2  and  O_24
REMARK    2  A    between atoms: C_3  and  N_10
REMARK    3  A    between atoms: C_12  and  C_16
REMARK    4  A    between atoms: C_16  and  C_18
REMARK    5  A    between atoms: O_24  and  C_28
REMARK                            x       y       z     vdW  Elec       q    Type
REMARK                         _______ _______ _______ _____ _____    ______ ____
ROOT
ATOM      1  F   UNL     1      30.807 -11.294 -20.613  0.00  0.00    -0.201 F 
ATOM      2  C   UNL     1      32.171 -10.543 -22.402  0.00  0.00    +0.173 C 
ATOM      3  C   UNL     1      33.680 -12.855 -22.203  0.00  0.00    +0.054 C 
ATOM      4  C   UNL     1      31.841 -11.486 -21.443  0.00  0.00    +0.176 C 
ATOM      5  C   UNL     1      33.238 -10.730 -23.264  0.00  0.00    +0.041 C 
ATOM      6  C   UNL     1      32.601 -12.651 -21.344  0.00  0.00    +0.047 C 
ATOM      7  C   UNL     1      33.999 -11.895 -23.163  0.00  0.00    +0.018 C 
ENDROOT
BRANCH   3  10
ATOM      8  O   UNL     1      35.308 -17.597 -24.317  0.00  0.00    -0.274 OA
ATOM      9  O   UNL     1      33.962 -15.158 -24.109  0.00  0.00    -0.252 OA
ATOM     10  N   UNL     1      34.439 -14.022 -22.104  0.00  0.00    -0.268 N 
ATOM     11  N   UNL     1      35.418 -16.076 -22.551  0.00  0.00    -0.239 N 
ATOM     12  C   UNL     1      35.743 -17.260 -23.218  0.00  0.00    +0.234 C 
ATOM     13  C   UNL     1      34.542 -15.082 -23.029  0.00  0.00    +0.310 C 
ATOM     14  H   UNL     1      34.972 -14.118 -21.283  0.00  0.00    +0.156 HD
ATOM     15  H   UNL     1      35.835 -15.925 -21.672  0.00  0.00    +0.159 HD
BRANCH  12  16
ATOM     16  C   UNL     1      36.714 -18.099 -22.410  0.00  0.00    +0.112 C 
BRANCH  16  18
ATOM     17  F   UNL     1      34.180 -21.653 -18.869  0.00  0.00    -0.204 F 
ATOM     18  C   UNL     1      36.035 -19.052 -21.462  0.00  0.00    -0.013 C 
ATOM     19  C   UNL     1      36.800 -19.783 -20.563  0.00  0.00    -0.001 C 
ATOM     20  C   UNL     1      34.655 -19.184 -21.500  0.00  0.00    -0.001 C 
ATOM     21  C   UNL     1      36.171 -20.665 -19.685  0.00  0.00    +0.029 C 
ATOM     22  C   UNL     1      34.026 -20.067 -20.621  0.00  0.00    +0.029 C 
ATOM     23  C   UNL     1      34.783 -20.806 -19.714  0.00  0.00    +0.140 C 
ENDBRANCH  16  18
ENDBRANCH  12  16
ENDBRANCH   3  10
BRANCH   2  24
ATOM     24  O   UNL     1      31.417  -9.389 -22.502  0.00  0.00    -0.451 OA
BRANCH  24  28
ATOM     25  N   UNL     1      32.526  -4.894 -22.997  0.00  0.00    -0.297 N 
ATOM     26  N   UNL     1      33.073  -5.867 -20.862  0.00  0.00    -0.229 NA
ATOM     27  C   UNL     1      32.008  -7.049 -22.727  0.00  0.00    +0.067 C 
ATOM     28  C   UNL     1      31.950  -8.241 -21.986  0.00  0.00    +0.150 C 
ATOM     29  C   UNL     1      32.569  -5.936 -22.108  0.00  0.00    +0.135 C 
ATOM     30  C   UNL     1      31.620  -6.643 -24.031  0.00  0.00    +0.022 C 
ATOM     31  C   UNL     1      31.951  -5.312 -24.168  0.00  0.00    +0.063 C 
ATOM     32  C   UNL     1      32.458  -8.225 -20.688  0.00  0.00    +0.058 C 
ATOM     33  C   UNL     1      32.993  -7.042 -20.195  0.00  0.00    +0.103 C 
ATOM     34  H   UNL     1      32.857  -3.983 -22.820  0.00  0.00    +0.154 HD
ENDBRANCH  24  28
ENDBRANCH   2  24
TORSDOF 5
ENDMDL
MODEL 7
REMARK VINA RESULT:     -11.9      2.482      3.796
REMARK  Name = 11560856
REMARK  5 active torsions:
REMARK  status: ('A' for Active; 'I' for Inactive)
REMARK    1  A    between atoms: C_2  and  O_24
REMARK    2  A    between atoms: C_3  and  N_10
REMARK    3  A    between atoms: C_12  and  C_16
REMARK    4  A    between atoms: C_16  and  C_18
REMARK    5  A    between atoms: O_24  and  C_28
REMARK                            x       y       z     vdW  Elec       q    Type
REMARK                         _______ _______ _______ _____ _____    ______ ____
ROOT
ATOM      1  F   UNL     1      32.402 -23.721 -16.377  0.00  0.00    -0.201 F 
ATOM      2  C   UNL     1      34.680 -23.171 -16.014  0.00  0.00    +0.173 C 
ATOM      3  C   UNL     1      34.715 -21.793 -18.415  0.00  0.00    +0.054 C 
ATOM      4  C   UNL     1      33.527 -23.117 -16.780  0.00  0.00    +0.176 C 
ATOM      5  C   UNL     1      35.850 -22.553 -16.422  0.00  0.00    +0.041 C 
ATOM      6  C   UNL     1      33.545 -22.422 -17.989  0.00  0.00    +0.047 C 
ATOM      7  C   UNL     1      35.867 -21.858 -17.632  0.00  0.00    +0.018 C 
ENDROOT
BRANCH   3  10
ATOM      8  O   UNL     1      37.273 -18.494 -21.904  0.00  0.00    -0.274 OA
ATOM      9  O   UNL     1      36.828 -20.027 -19.612  0.00  0.00    -0.252 OA
ATOM     10  N   UNL     1      34.731 -21.097 -19.624  0.00  0.00    -0.268 N 
ATOM     11  N   UNL     1      35.375 -19.755 -21.403  0.00  0.00    -0.239 N 
ATOM     12  C   UNL     1      36.152 -18.905 -22.194  0.00  0.00    +0.234 C 
ATOM     13  C   UNL     1      35.751 -20.275 -20.149  0.00  0.00    +0.310 C 
ATOM     14  H   UNL     1      33.928 -21.191 -20.184  0.00  0.00    +0.156 HD
ATOM     15  H   UNL     1      34.490 -20.012 -21.751  0.00  0.00    +0.159 HD
BRANCH  12  16
ATOM     16  C   UNL     1      35.434 -18.542 -23.480  0.00  0.00    +0.112 C 
BRANCH  16  18
ATOM     17  F   UNL     1      33.994 -13.116 -23.770  0.00  0.00    -0.204 F 
ATOM     18  C   UNL     1      35.047 -17.088 -23.558  0.00  0.00    -0.013 C 
ATOM     19  C   UNL     1      35.282 -16.260 -22.469  0.00  0.00    -0.001 C 
ATOM     20  C   UNL     1      34.463 -16.598 -24.716  0.00  0.00    -0.001 C 
ATOM     21  C   UNL     1      34.924 -14.913 -22.541  0.00  0.00    +0.029 C 
ATOM     22  C   UNL     1      34.105 -15.252 -24.788  0.00  0.00    +0.029 C 
ATOM     23  C   UNL     1      34.336 -14.410 -23.702  0.00  0.00    +0.140 C 
ENDBRANCH  16  18
ENDBRANCH  12  16
ENDBRANCH   3  10
BRANCH   2  24
ATOM     24  O   UNL     1      34.663 -23.859 -14.816  0.00  0.00    -0.451 OA
BRANCH  24  28
ATOM     25  N   UNL     1      38.425 -24.413 -12.129  0.00  0.00    -0.297 N 
ATOM     26  N   UNL     1      38.102 -26.098 -13.820  0.00  0.00    -0.229 NA
ATOM     27  C   UNL     1      36.629 -24.176 -13.436  0.00  0.00    +0.067 C 
ATOM     28  C   UNL     1      35.779 -24.572 -14.481  0.00  0.00    +0.150 C 
ATOM     29  C   UNL     1      37.740 -24.974 -13.175  0.00  0.00    +0.135 C 
ATOM     30  C   UNL     1      36.664 -23.105 -12.504  0.00  0.00    +0.022 C 
ATOM     31  C   UNL     1      37.780 -23.278 -11.713  0.00  0.00    +0.063 C 
ATOM     32  C   UNL     1      36.108 -25.731 -15.183  0.00  0.00    +0.058 C 
ATOM     33  C   UNL     1      37.250 -26.432 -14.817  0.00  0.00    +0.103 C 
ATOM     34  H   UNL     1      39.253 -24.773 -11.736  0.00  0.00    +0.154 HD
ENDBRANCH  24  28
ENDBRANCH   2  24
TORSDOF 5
ENDMDL
MODEL 8
REMARK VINA RESULT:     -11.8      2.537      4.206
REMARK  Name = 11560856
REMARK  5 active torsions:
REMARK  status: ('A' for Active; 'I' for Inactive)
REMARK    1  A    between atoms: C_2  and  O_24
REMARK    2  A    between atoms: C_3  and  N_10
REMARK    3  A    between atoms: C_12  and  C_16
REMARK    4  A    between atoms: C_16  and  C_18
REMARK    5  A    between atoms: O_24  and  C_28
REMARK                            x       y       z     vdW  Elec       q    Type
REMARK                         _______ _______ _______ _____ _____    ______ ____
ROOT
ATOM      1  F   UNL     1      33.368 -23.725 -16.290  0.00  0.00    -0.201 F 
ATOM      2  C   UNL     1      35.562 -23.106 -15.633  0.00  0.00    +0.173 C 
ATOM      3  C   UNL     1      35.831 -21.640 -17.966  0.00  0.00    +0.054 C 
ATOM      4  C   UNL     1      34.509 -23.066 -16.532  0.00  0.00    +0.176 C 
ATOM      5  C   UNL     1      36.746 -22.430 -15.874  0.00  0.00    +0.041 C 
ATOM      6  C   UNL     1      34.645 -22.326 -17.707  0.00  0.00    +0.047 C 
ATOM      7  C   UNL     1      36.881 -21.692 -17.049  0.00  0.00    +0.018 C 
ENDROOT
BRANCH   3  10
ATOM      8  O   UNL     1      33.592 -19.371 -22.375  0.00  0.00    -0.274 OA
ATOM      9  O   UNL     1      33.769 -20.797 -19.979  0.00  0.00    -0.252 OA
ATOM     10  N   UNL     1      35.966 -20.899 -19.140  0.00  0.00    -0.268 N 
ATOM     11  N   UNL     1      35.516 -19.777 -21.119  0.00  0.00    -0.239 N 
ATOM     12  C   UNL     1      34.802 -19.252 -22.200  0.00  0.00    +0.234 C 
ATOM     13  C   UNL     1      34.964 -20.525 -20.061  0.00  0.00    +0.310 C 
ATOM     14  H   UNL     1      36.878 -20.599 -19.356  0.00  0.00    +0.156 HD
ATOM     15  H   UNL     1      36.486 -19.611 -21.097  0.00  0.00    +0.159 HD
BRANCH  12  16
ATOM     16  C   UNL     1      35.715 -18.503 -23.152  0.00  0.00    +0.112 C 
BRANCH  16  18
ATOM     17  F   UNL     1      34.156 -13.169 -23.996  0.00  0.00    -0.204 F 
ATOM     18  C   UNL     1      35.298 -17.073 -23.378  0.00  0.00    -0.013 C 
ATOM     19  C   UNL     1      34.879 -16.676 -24.640  0.00  0.00    -0.001 C 
ATOM     20  C   UNL     1      35.338 -16.176 -22.321  0.00  0.00    -0.001 C 
ATOM     21  C   UNL     1      34.493 -15.352 -24.849  0.00  0.00    +0.029 C 
ATOM     22  C   UNL     1      34.951 -14.852 -22.531  0.00  0.00    +0.029 C 
ATOM     23  C   UNL     1      34.528 -14.440 -23.794  0.00  0.00    +0.140 C 
ENDBRANCH  16  18
ENDBRANCH  12  16
ENDBRANCH   3  10
BRANCH   2  24
ATOM     24  O   UNL     1      35.427 -23.837 -14.468  0.00  0.00    -0.451 OA
BRANCH  24  28
ATOM     25  N   UNL     1      39.412 -25.974 -13.359  0.00  0.00    -0.297 N 
ATOM     26  N   UNL     1      38.798 -24.126 -11.942  0.00  0.00    -0.229 NA
ATOM     27  C   UNL     1      37.505 -24.928 -13.864  0.00  0.00    +0.067 C 
ATOM     28  C   UNL     1      36.524 -23.944 -13.660  0.00  0.00    +0.150 C 
ATOM     29  C   UNL     1      38.584 -24.950 -12.984  0.00  0.00    +0.135 C 
ATOM     30  C   UNL     1      37.711 -25.982 -14.793  0.00  0.00    +0.022 C 
ATOM     31  C   UNL     1      38.893 -26.608 -14.457  0.00  0.00    +0.063 C 
ATOM     32  C   UNL     1      36.698 -23.063 -12.594  0.00  0.00    +0.058 C 
ATOM     33  C   UNL     1      37.823 -23.200 -11.791  0.00  0.00    +0.103 C 
ATOM     34  H   UNL     1      40.254 -26.217 -12.908  0.00  0.00    +0.154 HD
ENDBRANCH  24  28
ENDBRANCH   2  24
TORSDOF 5
ENDMDL
MODEL 9
REMARK VINA RESULT:     -11.8      4.092     11.501
REMARK  Name = 11560856
REMARK  5 active torsions:
REMARK  status: ('A' for Active; 'I' for Inactive)
REMARK    1  A    between atoms: C_2  and  O_24
REMARK    2  A    between atoms: C_3  and  N_10
REMARK    3  A    between atoms: C_12  and  C_16
REMARK    4  A    between atoms: C_16  and  C_18
REMARK    5  A    between atoms: O_24  and  C_28
REMARK                            x       y       z     vdW  Elec       q    Type
REMARK                         _______ _______ _______ _____ _____    ______ ____
ROOT
ATOM      1  F   UNL     1      33.961 -12.746 -25.897  0.00  0.00    -0.201 F 
ATOM      2  C   UNL     1      33.652 -11.843 -23.725  0.00  0.00    +0.173 C 
ATOM      3  C   UNL     1      34.575 -14.211 -22.626  0.00  0.00    +0.054 C 
ATOM      4  C   UNL     1      34.034 -12.876 -24.566  0.00  0.00    +0.176 C 
ATOM      5  C   UNL     1      33.721 -11.968 -22.348  0.00  0.00    +0.041 C 
ATOM      6  C   UNL     1      34.500 -14.068 -24.011  0.00  0.00    +0.047 C 
ATOM      7  C   UNL     1      34.187 -13.161 -21.795  0.00  0.00    +0.018 C 
ENDROOT
BRANCH   3  10
ATOM      8  O   UNL     1      35.693 -19.511 -23.139  0.00  0.00    -0.274 OA
ATOM      9  O   UNL     1      34.845 -16.943 -23.842  0.00  0.00    -0.252 OA
ATOM     10  N   UNL     1      35.043 -15.403 -22.073  0.00  0.00    -0.268 N 
ATOM     11  N   UNL     1      35.674 -17.616 -21.779  0.00  0.00    -0.239 N 
ATOM     12  C   UNL     1      35.909 -18.964 -22.061  0.00  0.00    +0.234 C 
ATOM     13  C   UNL     1      35.153 -16.670 -22.684  0.00  0.00    +0.310 C 
ATOM     14  H   UNL     1      35.334 -15.355 -21.134  0.00  0.00    +0.156 HD
ATOM     15  H   UNL     1      35.890 -17.300 -20.872  0.00  0.00    +0.159 HD
BRANCH  12  16
ATOM     16  C   UNL     1      36.474 -19.688 -20.853  0.00  0.00    +0.112 C 
BRANCH  16  18
ATOM     17  F   UNL     1      32.592 -22.530 -17.945  0.00  0.00    -0.204 F 
ATOM     18  C   UNL     1      35.433 -20.449 -20.073  0.00  0.00    -0.013 C 
ATOM     19  C   UNL     1      34.088 -20.227 -20.332  0.00  0.00    -0.001 C 
ATOM     20  C   UNL     1      35.836 -21.361 -19.109  0.00  0.00    -0.001 C 
ATOM     21  C   UNL     1      33.125 -20.932 -19.609  0.00  0.00    +0.029 C 
ATOM     22  C   UNL     1      34.873 -22.066 -18.387  0.00  0.00    +0.029 C 
ATOM     23  C   UNL     1      33.518 -21.852 -18.638  0.00  0.00    +0.140 C 
ENDBRANCH  16  18
ENDBRANCH  12  16
ENDBRANCH   3  10
BRANCH   2  24
ATOM     24  O   UNL     1      33.192 -10.662 -24.273  0.00  0.00    -0.451 OA
BRANCH  24  28
ATOM     25  N   UNL     1      33.019  -6.648 -21.920  0.00  0.00    -0.297 N 
ATOM     26  N   UNL     1      35.096  -7.094 -23.057  0.00  0.00    -0.229 NA
ATOM     27  C   UNL     1      33.134  -8.565 -23.059  0.00  0.00    +0.067 C 
ATOM     28  C   UNL     1      33.794  -9.503 -23.871  0.00  0.00    +0.150 C 
ATOM     29  C   UNL     1      33.838  -7.417 -22.705  0.00  0.00    +0.135 C 
ATOM     30  C   UNL     1      31.852  -8.465 -22.457  0.00  0.00    +0.022 C 
ATOM     31  C   UNL     1      31.811  -7.275 -21.762  0.00  0.00    +0.063 C 
ATOM     32  C   UNL     1      35.100  -9.218 -24.265  0.00  0.00    +0.058 C 
ATOM     33  C   UNL     1      35.682  -8.030 -23.839  0.00  0.00    +0.103 C 
ATOM     34  H   UNL     1      33.263  -5.778 -21.528  0.00  0.00    +0.154 HD
ENDBRANCH  24  28
ENDBRANCH   2  24
TORSDOF 5
ENDMDL
