MODEL 1
REMARK VINA RESULT:     -11.2      0.000      0.000
REMARK  Name = 9887812
REMARK  11 active torsions:
REMARK  status: ('A' for Active; 'I' for Inactive)
REMARK    1  A    between atoms: N_1  and  C_3
REMARK    2  A    between atoms: N_1  and  C_19
REMARK    3  A    between atoms: C_4  and  C_9
REMARK    4  A    between atoms: C_12  and  C_16
REMARK    5  A    between atoms: C_16  and  O_17
REMARK    6  A    between atoms: C_19  and  C_20
REMARK    7  A    between atoms: C_20  and  N_21
REMARK    8  A    between atoms: N_21  and  C_24
REMARK    9  A    between atoms: C_24  and  C_25
REMARK   10  A    between atoms: C_25  and  C_27
REMARK   11  A    between atoms: C_25  and  O_33
REMARK                            x       y       z     vdW  Elec       q    Type
REMARK                         _______ _______ _______ _____ _____    ______ ____
ROOT
ATOM      1  N   UNL     1      35.560 -15.310 -23.240  0.00  0.00    -0.335 N 
ATOM      2  H   UNL     1      36.370 -14.962 -23.677  0.00  0.00    +0.147 HD
ENDROOT
BRANCH   1   3
ATOM      3  C   UNL     1      35.300 -16.694 -23.307  0.00  0.00    +0.045 C 
ATOM      4  C   UNL     1      35.256 -18.869 -22.255  0.00  0.00    +0.001 C 
ATOM      5  C   UNL     1      35.513 -17.499 -22.188  0.00  0.00    +0.014 C 
ATOM      6  C   UNL     1      34.832 -17.260 -24.493  0.00  0.00    +0.014 C 
ATOM      7  C   UNL     1      34.787 -19.434 -23.441  0.00  0.00    +0.000 C 
ATOM      8  C   UNL     1      34.576 -18.629 -24.561  0.00  0.00    +0.001 C 
BRANCH   4   9
ATOM      9  C   UNL     1      35.477 -19.703 -21.094  0.00  0.00    +0.000 C 
ATOM     10  C   UNL     1      34.421 -20.436 -20.550  0.00  0.00    +0.006 C 
ATOM     11  C   UNL     1      36.745 -19.775 -20.519  0.00  0.00    +0.000 C 
ATOM     12  C   UNL     1      34.635 -21.240 -19.431  0.00  0.00    +0.075 C 
ATOM     13  C   UNL     1      36.959 -20.579 -19.399  0.00  0.00    +0.000 C 
ATOM     14  C   UNL     1      35.904 -21.312 -18.855  0.00  0.00    +0.006 C 
BRANCH  12  16
ATOM     15  O   UNL     1      32.494 -21.527 -18.401  0.00  0.00    -0.245 OA
ATOM     16  C   UNL     1      33.536 -22.005 -18.863  0.00  0.00    +0.338 C 
BRANCH  16  17
ATOM     17  O   UNL     1      33.768 -23.347 -18.888  0.00  0.00    -0.477 OA
ATOM     18  H   UNL     1      33.589 -23.866 -18.130  0.00  0.00    +0.295 HD
ENDBRANCH  16  17
ENDBRANCH  12  16
ENDBRANCH   4   9
ENDBRANCH   1   3
BRANCH   1  19
ATOM     19  C   UNL     1      34.699 -14.389 -22.563  0.00  0.00    +0.064 C 
BRANCH  19  20
ATOM     20  C   UNL     1      33.612 -13.910 -23.516  0.00  0.00    -0.060 C 
BRANCH  20  21
ATOM     21  N   UNL     1      34.112 -12.824 -24.350  0.00  0.00    +0.387 N 
ATOM     22  H   UNL     1      35.065 -13.039 -24.642  0.00  0.00    -0.084 HD
ATOM     23  H   UNL     1      33.503 -12.731 -25.163  0.00  0.00    -0.084 HD
BRANCH  21  24
ATOM     24  C   UNL     1      34.109 -11.564 -23.619  0.00  0.00    -0.047 C 
BRANCH  24  25
ATOM     25  C   UNL     1      34.309 -10.380 -24.573  0.00  0.00    +0.112 C 
BRANCH  25  27
ATOM     26 CL   UNL     1      31.850  -7.139 -21.334  0.00  0.00    -0.082 Cl
ATOM     27  C   UNL     1      34.288  -9.062 -23.832  0.00  0.00    +0.003 C 
ATOM     28  C   UNL     1      33.205  -8.756 -23.026  0.00  0.00    +0.009 C 
ATOM     29  C   UNL     1      35.355  -8.191 -23.972  0.00  0.00    -0.002 C 
ATOM     30  C   UNL     1      33.187  -7.541 -22.342  0.00  0.00    +0.057 C 
ATOM     31  C   UNL     1      35.337  -6.976 -23.288  0.00  0.00    +0.001 C 
ATOM     32  C   UNL     1      34.253  -6.651 -22.473  0.00  0.00    +0.011 C 
ENDBRANCH  25  27
BRANCH  25  33
ATOM     33  O   UNL     1      35.561 -10.494 -25.247  0.00  0.00    -0.382 OA
ATOM     34  H   UNL     1      36.227 -10.844 -24.635  0.00  0.00    +0.211 HD
ENDBRANCH  25  33
ENDBRANCH  24  25
ENDBRANCH  21  24
ENDBRANCH  20  21
ENDBRANCH  19  20
ENDBRANCH   1  19
TORSDOF 11
ENDMDL
MODEL 2
REMARK VINA RESULT:     -11.0      4.568      7.949
REMARK  Name = 9887812
REMARK  11 active torsions:
REMARK  status: ('A' for Active; 'I' for Inactive)
REMARK    1  A    between atoms: N_1  and  C_3
REMARK    2  A    between atoms: N_1  and  C_19
REMARK    3  A    between atoms: C_4  and  C_9
REMARK    4  A    between atoms: C_12  and  C_16
REMARK    5  A    between atoms: C_16  and  O_17
REMARK    6  A    between atoms: C_19  and  C_20
REMARK    7  A    between atoms: C_20  and  N_21
REMARK    8  A    between atoms: N_21  and  C_24
REMARK    9  A    between atoms: C_24  and  C_25
REMARK   10  A    between atoms: C_25  and  C_27
REMARK   11  A    between atoms: C_25  and  O_33
REMARK                            x       y       z     vdW  Elec       q    Type
REMARK                         _______ _______ _______ _____ _____    ______ ____
ROOT
ATOM      1  N   UNL     1      34.843 -22.224 -19.140  0.00  0.00    -0.335 N 
ATOM      2  H   UNL     1      35.022 -22.992 -19.730  0.00  0.00    +0.147 HD
ENDROOT
BRANCH   1   3
ATOM      3  C   UNL     1      34.536 -22.472 -17.786  0.00  0.00    +0.045 C 
ATOM      4  C   UNL     1      32.934 -23.062 -16.076  0.00  0.00    +0.001 C 
ATOM      5  C   UNL     1      33.237 -22.817 -17.416  0.00  0.00    +0.014 C 
ATOM      6  C   UNL     1      35.533 -22.371 -16.816  0.00  0.00    +0.014 C 
ATOM      7  C   UNL     1      33.932 -22.960 -15.106  0.00  0.00    +0.000 C 
ATOM      8  C   UNL     1      35.232 -22.614 -15.477  0.00  0.00    +0.001 C 
BRANCH   4   9
ATOM      9  C   UNL     1      31.586 -23.419 -15.693  0.00  0.00    +0.000 C 
ATOM     10  C   UNL     1      30.498 -22.866 -16.370  0.00  0.00    +0.006 C 
ATOM     11  C   UNL     1      31.374 -24.317 -14.647  0.00  0.00    +0.000 C 
ATOM     12  C   UNL     1      29.199 -23.211 -15.999  0.00  0.00    +0.075 C 
ATOM     13  C   UNL     1      30.074 -24.662 -14.277  0.00  0.00    +0.000 C 
ATOM     14  C   UNL     1      28.986 -24.109 -14.953  0.00  0.00    +0.006 C 
BRANCH  12  16
ATOM     15  O   UNL     1      27.594 -21.510 -16.507  0.00  0.00    -0.245 OA
ATOM     16  C   UNL     1      28.064 -22.636 -16.704  0.00  0.00    +0.338 C 
BRANCH  16  17
ATOM     17  O   UNL     1      27.547 -23.483 -17.637  0.00  0.00    -0.477 OA
ATOM     18  H   UNL     1      27.335 -24.364 -17.403  0.00  0.00    +0.295 HD
ENDBRANCH  16  17
ENDBRANCH  12  16
ENDBRANCH   4   9
ENDBRANCH   1   3
BRANCH   1  19
ATOM     19  C   UNL     1      34.906 -20.907 -19.694  0.00  0.00    +0.064 C 
BRANCH  19  20
ATOM     20  C   UNL     1      36.360 -20.525 -19.939  0.00  0.00    -0.060 C 
BRANCH  20  21
ATOM     21  N   UNL     1      36.440 -19.220 -20.584  0.00  0.00    +0.387 N 
ATOM     22  H   UNL     1      36.198 -18.497 -19.906  0.00  0.00    -0.084 HD
ATOM     23  H   UNL     1      37.390 -19.083 -20.926  0.00  0.00    -0.084 HD
BRANCH  21  24
ATOM     24  C   UNL     1      35.522 -19.141 -21.712  0.00  0.00    -0.047 C 
BRANCH  24  25
ATOM     25  C   UNL     1      36.175 -18.418 -22.897  0.00  0.00    +0.112 C 
BRANCH  25  27
ATOM     26 CL   UNL     1      34.567 -13.868 -20.961  0.00  0.00    -0.082 Cl
ATOM     27  C   UNL     1      35.548 -17.062 -23.132  0.00  0.00    +0.003 C 
ATOM     28  C   UNL     1      35.373 -16.203 -22.061  0.00  0.00    +0.009 C 
ATOM     29  C   UNL     1      35.165 -16.708 -24.414  0.00  0.00    -0.002 C 
ATOM     30  C   UNL     1      34.795 -14.952 -22.278  0.00  0.00    +0.057 C 
ATOM     31  C   UNL     1      34.587 -15.457 -24.631  0.00  0.00    +0.001 C 
ATOM     32  C   UNL     1      34.402 -14.579 -23.564  0.00  0.00    +0.011 C 
ENDBRANCH  25  27
BRANCH  25  33
ATOM     33  O   UNL     1      37.568 -18.229 -22.653  0.00  0.00    -0.382 OA
ATOM     34  H   UNL     1      37.903 -17.520 -23.224  0.00  0.00    +0.211 HD
ENDBRANCH  25  33
ENDBRANCH  24  25
ENDBRANCH  21  24
ENDBRANCH  20  21
ENDBRANCH  19  20
ENDBRANCH   1  19
TORSDOF 11
ENDMDL
MODEL 3
REMARK VINA RESULT:     -10.9      7.019     12.104
REMARK  Name = 9887812
REMARK  11 active torsions:
REMARK  status: ('A' for Active; 'I' for Inactive)
REMARK    1  A    between atoms: N_1  and  C_3
REMARK    2  A    between atoms: N_1  and  C_19
REMARK    3  A    between atoms: C_4  and  C_9
REMARK    4  A    between atoms: C_12  and  C_16
REMARK    5  A    between atoms: C_16  and  O_17
REMARK    6  A    between atoms: C_19  and  C_20
REMARK    7  A    between atoms: C_20  and  N_21
REMARK    8  A    between atoms: N_21  and  C_24
REMARK    9  A    between atoms: C_24  and  C_25
REMARK   10  A    between atoms: C_25  and  C_27
REMARK   11  A    between atoms: C_25  and  O_33
REMARK                            x       y       z     vdW  Elec       q    Type
REMARK                         _______ _______ _______ _____ _____    ______ ____
ROOT
ATOM      1  N   UNL     1      36.205 -22.474 -17.191  0.00  0.00    -0.335 N 
ATOM      2  H   UNL     1      36.808 -23.190 -17.493  0.00  0.00    +0.147 HD
ENDROOT
BRANCH   1   3
ATOM      3  C   UNL     1      35.327 -21.893 -18.129  0.00  0.00    +0.045 C 
ATOM      4  C   UNL     1      34.958 -20.487 -20.060  0.00  0.00    +0.001 C 
ATOM      5  C   UNL     1      35.827 -21.062 -19.132  0.00  0.00    +0.014 C 
ATOM      6  C   UNL     1      33.958 -22.147 -18.054  0.00  0.00    +0.014 C 
ATOM      7  C   UNL     1      33.589 -20.742 -19.985  0.00  0.00    +0.000 C 
ATOM      8  C   UNL     1      33.089 -21.572 -18.981  0.00  0.00    +0.001 C 
BRANCH   4   9
ATOM      9  C   UNL     1      35.478 -19.626 -21.099  0.00  0.00    +0.000 C 
ATOM     10  C   UNL     1      34.690 -19.318 -22.209  0.00  0.00    +0.006 C 
ATOM     11  C   UNL     1      36.766 -19.103 -20.992  0.00  0.00    +0.000 C 
ATOM     12  C   UNL     1      35.192 -18.488 -23.211  0.00  0.00    +0.075 C 
ATOM     13  C   UNL     1      37.268 -18.273 -21.994  0.00  0.00    +0.000 C 
ATOM     14  C   UNL     1      36.481 -17.965 -23.104  0.00  0.00    +0.006 C 
BRANCH  12  16
ATOM     15  O   UNL     1      33.278 -18.675 -24.635  0.00  0.00    -0.245 OA
ATOM     16  C   UNL     1      34.371 -18.165 -24.368  0.00  0.00    +0.338 C 
BRANCH  16  17
ATOM     17  O   UNL     1      34.939 -17.214 -25.160  0.00  0.00    -0.477 OA
ATOM     18  H   UNL     1      35.654 -16.702 -24.838  0.00  0.00    +0.295 HD
ENDBRANCH  16  17
ENDBRANCH  12  16
ENDBRANCH   4   9
ENDBRANCH   1   3
BRANCH   1  19
ATOM     19  C   UNL     1      36.255 -22.070 -15.819  0.00  0.00    +0.064 C 
BRANCH  19  20
ATOM     20  C   UNL     1      36.166 -23.297 -14.922  0.00  0.00    -0.060 C 
BRANCH  20  21
ATOM     21  N   UNL     1      35.140 -23.107 -13.903  0.00  0.00    +0.387 N 
ATOM     22  H   UNL     1      35.475 -23.488 -13.018  0.00  0.00    -0.084 HD
ATOM     23  H   UNL     1      34.951 -22.109 -13.813  0.00  0.00    -0.084 HD
BRANCH  21  24
ATOM     24  C   UNL     1      33.906 -23.783 -14.278  0.00  0.00    -0.047 C 
BRANCH  24  25
ATOM     25  C   UNL     1      32.684 -22.943 -13.887  0.00  0.00    +0.112 C 
BRANCH  25  27
ATOM     26 CL   UNL     1      28.247 -22.345 -16.531  0.00  0.00    -0.082 Cl
ATOM     27  C   UNL     1      31.403 -23.548 -14.418  0.00  0.00    +0.003 C 
ATOM     28  C   UNL     1      30.529 -22.754 -15.140  0.00  0.00    +0.009 C 
ATOM     29  C   UNL     1      31.133 -24.883 -14.171  0.00  0.00    -0.002 C 
ATOM     30  C   UNL     1      29.348 -23.313 -15.630  0.00  0.00    +0.057 C 
ATOM     31  C   UNL     1      29.953 -25.441 -14.661  0.00  0.00    +0.001 C 
ATOM     32  C   UNL     1      29.061 -24.657 -15.391  0.00  0.00    +0.011 C 
ENDBRANCH  25  27
BRANCH  25  33
ATOM     33  O   UNL     1      32.579 -22.853 -12.467  0.00  0.00    -0.382 OA
ATOM     34  H   UNL     1      31.861 -22.243 -12.233  0.00  0.00    +0.211 HD
ENDBRANCH  25  33
ENDBRANCH  24  25
ENDBRANCH  21  24
ENDBRANCH  20  21
ENDBRANCH  19  20
ENDBRANCH   1  19
TORSDOF 11
ENDMDL
MODEL 4
REMARK VINA RESULT:     -10.9      5.387      9.142
REMARK  Name = 9887812
REMARK  11 active torsions:
REMARK  status: ('A' for Active; 'I' for Inactive)
REMARK    1  A    between atoms: N_1  and  C_3
REMARK    2  A    between atoms: N_1  and  C_19
REMARK    3  A    between atoms: C_4  and  C_9
REMARK    4  A    between atoms: C_12  and  C_16
REMARK    5  A    between atoms: C_16  and  O_17
REMARK    6  A    between atoms: C_19  and  C_20
REMARK    7  A    between atoms: C_20  and  N_21
REMARK    8  A    between atoms: N_21  and  C_24
REMARK    9  A    between atoms: C_24  and  C_25
REMARK   10  A    between atoms: C_25  and  C_27
REMARK   11  A    between atoms: C_25  and  O_33
REMARK                            x       y       z     vdW  Elec       q    Type
REMARK                         _______ _______ _______ _____ _____    ______ ____
ROOT
ATOM      1  N   UNL     1      33.134 -22.785 -18.377  0.00  0.00    -0.335 N 
ATOM      2  H   UNL     1      32.856 -23.520 -18.970  0.00  0.00    +0.147 HD
ENDROOT
BRANCH   1   3
ATOM      3  C   UNL     1      32.988 -22.952 -16.984  0.00  0.00    +0.045 C 
ATOM      4  C   UNL     1      33.885 -23.659 -14.855  0.00  0.00    +0.001 C 
ATOM      5  C   UNL     1      34.030 -23.493 -16.233  0.00  0.00    +0.014 C 
ATOM      6  C   UNL     1      31.799 -22.576 -16.358  0.00  0.00    +0.014 C 
ATOM      7  C   UNL     1      32.696 -23.283 -14.229  0.00  0.00    +0.000 C 
ATOM      8  C   UNL     1      31.653 -22.742 -14.981  0.00  0.00    +0.001 C 
BRANCH   4   9
ATOM      9  C   UNL     1      34.966 -24.221 -14.077  0.00  0.00    +0.000 C 
ATOM     10  C   UNL     1      35.059 -23.948 -12.711  0.00  0.00    +0.006 C 
ATOM     11  C   UNL     1      35.917 -25.036 -14.691  0.00  0.00    +0.000 C 
ATOM     12  C   UNL     1      36.102 -24.490 -11.962  0.00  0.00    +0.075 C 
ATOM     13  C   UNL     1      36.961 -25.578 -13.941  0.00  0.00    +0.000 C 
ATOM     14  C   UNL     1      37.053 -25.305 -12.575  0.00  0.00    +0.006 C 
BRANCH  12  16
ATOM     15  O   UNL     1      35.533 -24.754  -9.652  0.00  0.00    -0.245 OA
ATOM     16  C   UNL     1      36.199 -24.207 -10.538  0.00  0.00    +0.338 C 
BRANCH  16  17
ATOM     17  O   UNL     1      37.126 -23.249 -10.259  0.00  0.00    -0.477 OA
ATOM     18  H   UNL     1      37.991 -23.318 -10.611  0.00  0.00    +0.295 HD
ENDBRANCH  16  17
ENDBRANCH  12  16
ENDBRANCH   4   9
ENDBRANCH   1   3
BRANCH   1  19
ATOM     19  C   UNL     1      33.670 -21.596 -18.965  0.00  0.00    +0.064 C 
BRANCH  19  20
ATOM     20  C   UNL     1      35.152 -21.793 -19.255  0.00  0.00    -0.060 C 
BRANCH  20  21
ATOM     21  N   UNL     1      35.787 -20.513 -19.547  0.00  0.00    +0.387 N 
ATOM     22  H   UNL     1      35.621 -19.875 -18.769  0.00  0.00    -0.084 HD
ATOM     23  H   UNL     1      36.787 -20.667 -19.673  0.00  0.00    -0.084 HD
BRANCH  21  24
ATOM     24  C   UNL     1      35.246 -19.931 -20.767  0.00  0.00    -0.047 C 
BRANCH  24  25
ATOM     25  C   UNL     1      36.282 -19.024 -21.443  0.00  0.00    +0.112 C 
BRANCH  25  27
ATOM     26 CL   UNL     1      34.954 -14.326 -23.232  0.00  0.00    -0.082 Cl
ATOM     27  C   UNL     1      35.654 -18.186 -22.535  0.00  0.00    +0.003 C 
ATOM     28  C   UNL     1      35.604 -16.811 -22.387  0.00  0.00    +0.009 C 
ATOM     29  C   UNL     1      35.144 -18.812 -23.660  0.00  0.00    -0.002 C 
ATOM     30  C   UNL     1      35.026 -16.038 -23.395  0.00  0.00    +0.057 C 
ATOM     31  C   UNL     1      34.566 -18.040 -24.666  0.00  0.00    +0.001 C 
ATOM     32  C   UNL     1      34.508 -16.653 -24.535  0.00  0.00    +0.011 C 
ENDBRANCH  25  27
BRANCH  25  33
ATOM     33  O   UNL     1      36.868 -18.144 -20.487  0.00  0.00    -0.382 OA
ATOM     34  H   UNL     1      36.199 -17.517 -20.171  0.00  0.00    +0.211 HD
ENDBRANCH  25  33
ENDBRANCH  24  25
ENDBRANCH  21  24
ENDBRANCH  20  21
ENDBRANCH  19  20
ENDBRANCH   1  19
TORSDOF 11
ENDMDL
MODEL 5
REMARK VINA RESULT:     -10.9      6.256     12.183
REMARK  Name = 9887812
REMARK  11 active torsions:
REMARK  status: ('A' for Active; 'I' for Inactive)
REMARK    1  A    between atoms: N_1  and  C_3
REMARK    2  A    between atoms: N_1  and  C_19
REMARK    3  A    between atoms: C_4  and  C_9
REMARK    4  A    between atoms: C_12  and  C_16
REMARK    5  A    between atoms: C_16  and  O_17
REMARK    6  A    between atoms: C_19  and  C_20
REMARK    7  A    between atoms: C_20  and  N_21
REMARK    8  A    between atoms: N_21  and  C_24
REMARK    9  A    between atoms: C_24  and  C_25
REMARK   10  A    between atoms: C_25  and  C_27
REMARK   11  A    between atoms: C_25  and  O_33
REMARK                            x       y       z     vdW  Elec       q    Type
REMARK                         _______ _______ _______ _____ _____    ______ ____
ROOT
ATOM      1  N   UNL     1      33.011 -21.932 -18.683  0.00  0.00    -0.335 N 
ATOM      2  H   UNL     1      32.143 -21.681 -19.072  0.00  0.00    +0.147 HD
ENDROOT
BRANCH   1   3
ATOM      3  C   UNL     1      34.181 -21.352 -19.215  0.00  0.00    +0.045 C 
ATOM      4  C   UNL     1      35.251 -19.888 -20.812  0.00  0.00    +0.001 C 
ATOM      5  C   UNL     1      34.094 -20.461 -20.285  0.00  0.00    +0.014 C 
ATOM      6  C   UNL     1      35.426 -21.670 -18.673  0.00  0.00    +0.014 C 
ATOM      7  C   UNL     1      36.497 -20.206 -20.270  0.00  0.00    +0.000 C 
ATOM      8  C   UNL     1      36.584 -21.098 -19.200  0.00  0.00    +0.001 C 
BRANCH   4   9
ATOM      9  C   UNL     1      35.160 -18.964 -21.921  0.00  0.00    +0.000 C 
ATOM     10  C   UNL     1      35.188 -17.588 -21.689  0.00  0.00    +0.006 C 
ATOM     11  C   UNL     1      35.045 -19.449 -23.224  0.00  0.00    +0.000 C 
ATOM     12  C   UNL     1      35.099 -16.699 -22.759  0.00  0.00    +0.075 C 
ATOM     13  C   UNL     1      34.956 -18.559 -24.294  0.00  0.00    +0.000 C 
ATOM     14  C   UNL     1      34.983 -17.183 -24.062  0.00  0.00    +0.006 C 
BRANCH  12  16
ATOM     15  O   UNL     1      35.321 -14.398 -23.377  0.00  0.00    -0.245 OA
ATOM     16  C   UNL     1      35.129 -15.265 -22.517  0.00  0.00    +0.338 C 
BRANCH  16  17
ATOM     17  O   UNL     1      34.917 -14.953 -21.209  0.00  0.00    -0.477 OA
ATOM     18  H   UNL     1      34.722 -15.629 -20.592  0.00  0.00    +0.295 HD
ENDBRANCH  16  17
ENDBRANCH  12  16
ENDBRANCH   4   9
ENDBRANCH   1   3
BRANCH   1  19
ATOM     19  C   UNL     1      33.031 -22.866 -17.600  0.00  0.00    +0.064 C 
BRANCH  19  20
ATOM     20  C   UNL     1      31.831 -22.624 -16.693  0.00  0.00    -0.060 C 
BRANCH  20  21
ATOM     21  N   UNL     1      31.855 -23.544 -15.563  0.00  0.00    +0.387 N 
ATOM     22  H   UNL     1      30.934 -23.559 -15.126  0.00  0.00    -0.084 HD
ATOM     23  H   UNL     1      32.102 -24.473 -15.903  0.00  0.00    -0.084 HD
BRANCH  21  24
ATOM     24  C   UNL     1      32.844 -23.130 -14.577  0.00  0.00    -0.047 C 
BRANCH  24  25
ATOM     25  C   UNL     1      33.765 -24.299 -14.205  0.00  0.00    +0.112 C 
BRANCH  25  27
ATOM     26 CL   UNL     1      38.689 -25.936 -14.543  0.00  0.00    -0.082 Cl
ATOM     27  C   UNL     1      35.207 -23.999 -14.551  0.00  0.00    +0.003 C 
ATOM     28  C   UNL     1      36.159 -24.993 -14.402  0.00  0.00    +0.009 C 
ATOM     29  C   UNL     1      35.543 -22.738 -15.012  0.00  0.00    -0.002 C 
ATOM     30  C   UNL     1      37.489 -24.716 -14.722  0.00  0.00    +0.057 C 
ATOM     31  C   UNL     1      36.872 -22.461 -15.331  0.00  0.00    +0.001 C 
ATOM     32  C   UNL     1      37.845 -23.450 -15.187  0.00  0.00    +0.011 C 
ENDBRANCH  25  27
BRANCH  25  33
ATOM     33  O   UNL     1      33.688 -24.563 -12.806  0.00  0.00    -0.382 OA
ATOM     34  H   UNL     1      32.912 -25.116 -12.623  0.00  0.00    +0.211 HD
ENDBRANCH  25  33
ENDBRANCH  24  25
ENDBRANCH  21  24
ENDBRANCH  20  21
ENDBRANCH  19  20
ENDBRANCH   1  19
TORSDOF 11
ENDMDL
MODEL 6
REMARK VINA RESULT:     -10.9      2.066      2.301
REMARK  Name = 9887812
REMARK  11 active torsions:
REMARK  status: ('A' for Active; 'I' for Inactive)
REMARK    1  A    between atoms: N_1  and  C_3
REMARK    2  A    between atoms: N_1  and  C_19
REMARK    3  A    between atoms: C_4  and  C_9
REMARK    4  A    between atoms: C_12  and  C_16
REMARK    5  A    between atoms: C_16  and  O_17
REMARK    6  A    between atoms: C_19  and  C_20
REMARK    7  A    between atoms: C_20  and  N_21
REMARK    8  A    between atoms: N_21  and  C_24
REMARK    9  A    between atoms: C_24  and  C_25
REMARK   10  A    between atoms: C_25  and  C_27
REMARK   11  A    between atoms: C_25  and  O_33
REMARK                            x       y       z     vdW  Elec       q    Type
REMARK                         _______ _______ _______ _____ _____    ______ ____
ROOT
ATOM      1  N   UNL     1      35.308 -14.920 -23.186  0.00  0.00    -0.335 N 
ATOM      2  H   UNL     1      36.001 -14.482 -23.730  0.00  0.00    +0.147 HD
ENDROOT
BRANCH   1   3
ATOM      3  C   UNL     1      35.120 -16.311 -23.327  0.00  0.00    +0.045 C 
ATOM      4  C   UNL     1      35.185 -18.537 -22.391  0.00  0.00    +0.001 C 
ATOM      5  C   UNL     1      35.370 -17.161 -22.251  0.00  0.00    +0.014 C 
ATOM      6  C   UNL     1      34.685 -16.836 -24.544  0.00  0.00    +0.014 C 
ATOM      7  C   UNL     1      34.750 -19.063 -23.608  0.00  0.00    +0.000 C 
ATOM      8  C   UNL     1      34.501 -18.211 -24.685  0.00  0.00    +0.001 C 
BRANCH   4   9
ATOM      9  C   UNL     1      35.445 -19.419 -21.274  0.00  0.00    +0.000 C 
ATOM     10  C   UNL     1      34.408 -20.175 -20.725  0.00  0.00    +0.006 C 
ATOM     11  C   UNL     1      36.732 -19.514 -20.746  0.00  0.00    +0.000 C 
ATOM     12  C   UNL     1      34.660 -21.024 -19.648  0.00  0.00    +0.075 C 
ATOM     13  C   UNL     1      36.983 -20.363 -19.668  0.00  0.00    +0.000 C 
ATOM     14  C   UNL     1      35.947 -21.119 -19.119  0.00  0.00    +0.006 C 
BRANCH  12  16
ATOM     15  O   UNL     1      32.507 -21.363 -18.659  0.00  0.00    -0.245 OA
ATOM     16  C   UNL     1      33.580 -21.813 -19.076  0.00  0.00    +0.338 C 
BRANCH  16  17
ATOM     17  O   UNL     1      33.870 -23.143 -19.039  0.00  0.00    -0.477 OA
ATOM     18  H   UNL     1      33.425 -23.702 -18.434  0.00  0.00    +0.295 HD
ENDBRANCH  16  17
ENDBRANCH  12  16
ENDBRANCH   4   9
ENDBRANCH   1   3
BRANCH   1  19
ATOM     19  C   UNL     1      34.536 -14.119 -22.287  0.00  0.00    +0.064 C 
BRANCH  19  20
ATOM     20  C   UNL     1      33.425 -13.415 -23.054  0.00  0.00    -0.060 C 
BRANCH  20  21
ATOM     21  N   UNL     1      32.501 -12.769 -22.129  0.00  0.00    +0.387 N 
ATOM     22  H   UNL     1      31.546 -13.027 -22.378  0.00  0.00    -0.084 HD
ATOM     23  H   UNL     1      32.718 -13.078 -21.182  0.00  0.00    -0.084 HD
BRANCH  21  24
ATOM     24  C   UNL     1      32.634 -11.320 -22.189  0.00  0.00    -0.047 C 
BRANCH  24  25
ATOM     25  C   UNL     1      31.866 -10.654 -21.040  0.00  0.00    +0.112 C 
BRANCH  25  27
ATOM     26 CL   UNL     1      31.537  -6.344 -23.931  0.00  0.00    -0.082 Cl
ATOM     27  C   UNL     1      31.939  -9.146 -21.126  0.00  0.00    +0.003 C 
ATOM     28  C   UNL     1      31.729  -8.527 -22.346  0.00  0.00    +0.009 C 
ATOM     29  C   UNL     1      32.213  -8.416 -19.982  0.00  0.00    -0.002 C 
ATOM     30  C   UNL     1      31.796  -7.135 -22.424  0.00  0.00    +0.057 C 
ATOM     31  C   UNL     1      32.281  -7.026 -20.060  0.00  0.00    +0.001 C 
ATOM     32  C   UNL     1      32.071  -6.385 -21.281  0.00  0.00    +0.011 C 
ENDBRANCH  25  27
BRANCH  25  33
ATOM     33  O   UNL     1      30.492 -11.037 -21.078  0.00  0.00    -0.382 OA
ATOM     34  H   UNL     1      30.364 -11.836 -20.542  0.00  0.00    +0.211 HD
ENDBRANCH  25  33
ENDBRANCH  24  25
ENDBRANCH  21  24
ENDBRANCH  20  21
ENDBRANCH  19  20
ENDBRANCH   1  19
TORSDOF 11
ENDMDL
MODEL 7
REMARK VINA RESULT:     -10.5      4.065      6.201
REMARK  Name = 9887812
REMARK  11 active torsions:
REMARK  status: ('A' for Active; 'I' for Inactive)
REMARK    1  A    between atoms: N_1  and  C_3
REMARK    2  A    between atoms: N_1  and  C_19
REMARK    3  A    between atoms: C_4  and  C_9
REMARK    4  A    between atoms: C_12  and  C_16
REMARK    5  A    between atoms: C_16  and  O_17
REMARK    6  A    between atoms: C_19  and  C_20
REMARK    7  A    between atoms: C_20  and  N_21
REMARK    8  A    between atoms: N_21  and  C_24
REMARK    9  A    between atoms: C_24  and  C_25
REMARK   10  A    between atoms: C_25  and  C_27
REMARK   11  A    between atoms: C_25  and  O_33
REMARK                            x       y       z     vdW  Elec       q    Type
REMARK                         _______ _______ _______ _____ _____    ______ ____
ROOT
ATOM      1  N   UNL     1      31.358  -9.879 -21.398  0.00  0.00    -0.335 N 
ATOM      2  H   UNL     1      30.641  -9.369 -21.838  0.00  0.00    +0.147 HD
ENDROOT
BRANCH   1   3
ATOM      3  C   UNL     1      32.336 -10.499 -22.204  0.00  0.00    +0.045 C 
ATOM      4  C   UNL     1      33.770 -12.384 -22.678  0.00  0.00    +0.001 C 
ATOM      5  C   UNL     1      32.803 -11.772 -21.880  0.00  0.00    +0.014 C 
ATOM      6  C   UNL     1      32.837  -9.837 -23.325  0.00  0.00    +0.014 C 
ATOM      7  C   UNL     1      34.271 -11.722 -23.799  0.00  0.00    +0.000 C 
ATOM      8  C   UNL     1      33.804 -10.447 -24.122  0.00  0.00    +0.001 C 
BRANCH   4   9
ATOM      9  C   UNL     1      34.255 -13.705 -22.341  0.00  0.00    +0.000 C 
ATOM     10  C   UNL     1      34.599 -14.601 -23.354  0.00  0.00    +0.006 C 
ATOM     11  C   UNL     1      34.378 -14.082 -21.004  0.00  0.00    +0.000 C 
ATOM     12  C   UNL     1      35.065 -15.874 -23.028  0.00  0.00    +0.075 C 
ATOM     13  C   UNL     1      34.844 -15.356 -20.679  0.00  0.00    +0.000 C 
ATOM     14  C   UNL     1      35.188 -16.252 -21.691  0.00  0.00    +0.006 C 
BRANCH  12  16
ATOM     15  O   UNL     1      35.097 -16.710 -25.270  0.00  0.00    -0.245 OA
ATOM     16  C   UNL     1      35.425 -16.809 -24.083  0.00  0.00    +0.338 C 
BRANCH  16  17
ATOM     17  O   UNL     1      36.184 -17.844 -23.626  0.00  0.00    -0.477 OA
ATOM     18  H   UNL     1      36.847 -17.689 -22.984  0.00  0.00    +0.295 HD
ENDBRANCH  16  17
ENDBRANCH  12  16
ENDBRANCH   4   9
ENDBRANCH   1   3
BRANCH   1  19
ATOM     19  C   UNL     1      31.365  -9.958 -19.969  0.00  0.00    +0.064 C 
BRANCH  19  20
ATOM     20  C   UNL     1      32.507  -9.117 -19.416  0.00  0.00    -0.060 C 
BRANCH  20  21
ATOM     21  N   UNL     1      32.179  -7.699 -19.497  0.00  0.00    +0.387 N 
ATOM     22  H   UNL     1      31.285  -7.591 -19.976  0.00  0.00    -0.084 HD
ATOM     23  H   UNL     1      32.124  -7.323 -18.551  0.00  0.00    -0.084 HD
BRANCH  21  24
ATOM     24  C   UNL     1      33.204  -6.970 -20.230  0.00  0.00    -0.047 C 
BRANCH  24  25
ATOM     25  C   UNL     1      32.587  -6.186 -21.396  0.00  0.00    +0.112 C 
BRANCH  25  27
ATOM     26 CL   UNL     1      33.920  -3.923 -25.884  0.00  0.00    -0.082 Cl
ATOM     27  C   UNL     1      33.535  -6.105 -22.572  0.00  0.00    +0.003 C 
ATOM     28  C   UNL     1      33.308  -5.162 -23.560  0.00  0.00    +0.009 C 
ATOM     29  C   UNL     1      34.612  -6.973 -22.633  0.00  0.00    -0.002 C 
ATOM     30  C   UNL     1      34.184  -5.087 -24.644  0.00  0.00    +0.057 C 
ATOM     31  C   UNL     1      35.486  -6.899 -23.717  0.00  0.00    +0.001 C 
ATOM     32  C   UNL     1      35.273  -5.956 -24.722  0.00  0.00    +0.011 C 
ENDBRANCH  25  27
BRANCH  25  33
ATOM     33  O   UNL     1      31.386  -6.816 -21.834  0.00  0.00    -0.382 OA
ATOM     34  H   UNL     1      31.605  -7.623 -22.327  0.00  0.00    +0.211 HD
ENDBRANCH  25  33
ENDBRANCH  24  25
ENDBRANCH  21  24
ENDBRANCH  20  21
ENDBRANCH  19  20
ENDBRANCH   1  19
TORSDOF 11
ENDMDL
MODEL 8
REMARK VINA RESULT:     -10.4      3.770     11.018
REMARK  Name = 9887812
REMARK  11 active torsions:
REMARK  status: ('A' for Active; 'I' for Inactive)
REMARK    1  A    between atoms: N_1  and  C_3
REMARK    2  A    between atoms: N_1  and  C_19
REMARK    3  A    between atoms: C_4  and  C_9
REMARK    4  A    between atoms: C_12  and  C_16
REMARK    5  A    between atoms: C_16  and  O_17
REMARK    6  A    between atoms: C_19  and  C_20
REMARK    7  A    between atoms: C_20  and  N_21
REMARK    8  A    between atoms: N_21  and  C_24
REMARK    9  A    between atoms: C_24  and  C_25
REMARK   10  A    between atoms: C_25  and  C_27
REMARK   11  A    between atoms: C_25  and  O_33
REMARK                            x       y       z     vdW  Elec       q    Type
REMARK                         _______ _______ _______ _____ _____    ______ ____
ROOT
ATOM      1  N   UNL     1      34.243 -14.573 -23.376  0.00  0.00    -0.335 N 
ATOM      2  H   UNL     1      33.662 -14.653 -22.586  0.00  0.00    +0.147 HD
ENDROOT
BRANCH   1   3
ATOM      3  C   UNL     1      34.089 -13.449 -24.213  0.00  0.00    +0.045 C 
ATOM      4  C   UNL     1      34.081 -11.052 -24.520  0.00  0.00    +0.001 C 
ATOM      5  C   UNL     1      34.234 -12.164 -23.691  0.00  0.00    +0.014 C 
ATOM      6  C   UNL     1      33.789 -13.622 -25.565  0.00  0.00    +0.014 C 
ATOM      7  C   UNL     1      33.782 -11.225 -25.872  0.00  0.00    +0.000 C 
ATOM      8  C   UNL     1      33.635 -12.511 -26.394  0.00  0.00    +0.001 C 
BRANCH   4   9
ATOM      9  C   UNL     1      34.232  -9.720 -23.978  0.00  0.00    +0.000 C 
ATOM     10  C   UNL     1      33.239  -9.183 -23.158  0.00  0.00    +0.006 C 
ATOM     11  C   UNL     1      35.372  -8.972 -24.274  0.00  0.00    +0.000 C 
ATOM     12  C   UNL     1      33.385  -7.898 -22.636  0.00  0.00    +0.075 C 
ATOM     13  C   UNL     1      35.518  -7.686 -23.752  0.00  0.00    +0.000 C 
ATOM     14  C   UNL     1      34.524  -7.149 -22.932  0.00  0.00    +0.006 C 
BRANCH  12  16
ATOM     15  O   UNL     1      32.447  -7.160 -20.562  0.00  0.00    -0.245 OA
ATOM     16  C   UNL     1      32.350  -7.338 -21.781  0.00  0.00    +0.338 C 
BRANCH  16  17
ATOM     17  O   UNL     1      31.222  -7.015 -22.472  0.00  0.00    -0.477 OA
ATOM     18  H   UNL     1      30.815  -6.182 -22.340  0.00  0.00    +0.295 HD
ENDBRANCH  16  17
ENDBRANCH  12  16
ENDBRANCH   4   9
ENDBRANCH   1   3
BRANCH   1  19
ATOM     19  C   UNL     1      35.208 -15.599 -23.623  0.00  0.00    +0.064 C 
BRANCH  19  20
ATOM     20  C   UNL     1      34.536 -16.777 -24.316  0.00  0.00    -0.060 C 
BRANCH  20  21
ATOM     21  N   UNL     1      35.346 -17.980 -24.171  0.00  0.00    +0.387 N 
ATOM     22  H   UNL     1      35.376 -18.472 -25.064  0.00  0.00    -0.084 HD
ATOM     23  H   UNL     1      36.286 -17.708 -23.883  0.00  0.00    -0.084 HD
BRANCH  21  24
ATOM     24  C   UNL     1      34.786 -18.865 -23.158  0.00  0.00    -0.047 C 
BRANCH  24  25
ATOM     25  C   UNL     1      35.372 -18.551 -21.776  0.00  0.00    +0.112 C 
BRANCH  25  27
ATOM     26 CL   UNL     1      36.987 -21.863 -18.107  0.00  0.00    -0.082 Cl
ATOM     27  C   UNL     1      35.039 -19.634 -20.775  0.00  0.00    +0.003 C 
ATOM     28  C   UNL     1      36.052 -20.176 -20.002  0.00  0.00    +0.009 C 
ATOM     29  C   UNL     1      33.727 -20.059 -20.651  0.00  0.00    -0.002 C 
ATOM     30  C   UNL     1      35.743 -21.175 -19.078  0.00  0.00    +0.057 C 
ATOM     31  C   UNL     1      33.419 -21.058 -19.727  0.00  0.00    +0.001 C 
ATOM     32  C   UNL     1      34.427 -21.615 -18.940  0.00  0.00    +0.011 C 
ENDBRANCH  25  27
BRANCH  25  33
ATOM     33  O   UNL     1      36.792 -18.439 -21.856  0.00  0.00    -0.382 OA
ATOM     34  H   UNL     1      37.072 -17.594 -21.469  0.00  0.00    +0.211 HD
ENDBRANCH  25  33
ENDBRANCH  24  25
ENDBRANCH  21  24
ENDBRANCH  20  21
ENDBRANCH  19  20
ENDBRANCH   1  19
TORSDOF 11
ENDMDL
MODEL 9
REMARK VINA RESULT:     -10.4      4.192     11.813
REMARK  Name = 9887812
REMARK  11 active torsions:
REMARK  status: ('A' for Active; 'I' for Inactive)
REMARK    1  A    between atoms: N_1  and  C_3
REMARK    2  A    between atoms: N_1  and  C_19
REMARK    3  A    between atoms: C_4  and  C_9
REMARK    4  A    between atoms: C_12  and  C_16
REMARK    5  A    between atoms: C_16  and  O_17
REMARK    6  A    between atoms: C_19  and  C_20
REMARK    7  A    between atoms: C_20  and  N_21
REMARK    8  A    between atoms: N_21  and  C_24
REMARK    9  A    between atoms: C_24  and  C_25
REMARK   10  A    between atoms: C_25  and  C_27
REMARK   11  A    between atoms: C_25  and  O_33
REMARK                            x       y       z     vdW  Elec       q    Type
REMARK                         _______ _______ _______ _____ _____    ______ ____
ROOT
ATOM      1  N   UNL     1      31.476 -11.583 -21.659  0.00  0.00    -0.335 N 
ATOM      2  H   UNL     1      30.575 -11.693 -22.039  0.00  0.00    +0.147 HD
ENDROOT
BRANCH   1   3
ATOM      3  C   UNL     1      31.864 -10.306 -21.203  0.00  0.00    +0.045 C 
ATOM      4  C   UNL     1      32.780  -8.115 -21.645  0.00  0.00    +0.001 C 
ATOM      5  C   UNL     1      32.396  -9.378 -22.097  0.00  0.00    +0.014 C 
ATOM      6  C   UNL     1      31.718  -9.972 -19.856  0.00  0.00    +0.014 C 
ATOM      7  C   UNL     1      32.633  -7.781 -20.299  0.00  0.00    +0.000 C 
ATOM      8  C   UNL     1      32.102  -8.711 -19.404  0.00  0.00    +0.001 C 
BRANCH   4   9
ATOM      9  C   UNL     1      33.331  -7.152 -22.573  0.00  0.00    +0.000 C 
ATOM     10  C   UNL     1      32.608  -6.004 -22.900  0.00  0.00    +0.006 C 
ATOM     11  C   UNL     1      34.586  -7.371 -23.142  0.00  0.00    +0.000 C 
ATOM     12  C   UNL     1      33.141  -5.076 -23.795  0.00  0.00    +0.075 C 
ATOM     13  C   UNL     1      35.118  -6.443 -24.037  0.00  0.00    +0.000 C 
ATOM     14  C   UNL     1      34.395  -5.295 -24.364  0.00  0.00    +0.006 C 
BRANCH  12  16
ATOM     15  O   UNL     1      32.878  -2.806 -24.503  0.00  0.00    -0.245 OA
ATOM     16  C   UNL     1      32.388  -3.879 -24.136  0.00  0.00    +0.338 C 
BRANCH  16  17
ATOM     17  O   UNL     1      31.044  -4.054 -24.008  0.00  0.00    -0.477 OA
ATOM     18  H   UNL     1      30.558  -4.465 -24.695  0.00  0.00    +0.295 HD
ENDBRANCH  16  17
ENDBRANCH  12  16
ENDBRANCH   4   9
ENDBRANCH   1   3
BRANCH   1  19
ATOM     19  C   UNL     1      32.334 -12.726 -21.591  0.00  0.00    +0.064 C 
BRANCH  19  20
ATOM     20  C   UNL     1      33.388 -12.640 -22.686  0.00  0.00    -0.060 C 
BRANCH  20  21
ATOM     21  N   UNL     1      33.354 -13.837 -23.518  0.00  0.00    +0.387 N 
ATOM     22  H   UNL     1      32.766 -14.539 -23.068  0.00  0.00    -0.084 HD
ATOM     23  H   UNL     1      32.976 -13.588 -24.432  0.00  0.00    -0.084 HD
BRANCH  21  24
ATOM     24  C   UNL     1      34.693 -14.381 -23.700  0.00  0.00    -0.047 C 
BRANCH  24  25
ATOM     25  C   UNL     1      34.689 -15.495 -24.755  0.00  0.00    +0.112 C 
BRANCH  25  27
ATOM     26 CL   UNL     1      37.029 -18.360 -21.099  0.00  0.00    -0.082 Cl
ATOM     27  C   UNL     1      34.923 -16.852 -24.127  0.00  0.00    +0.003 C 
ATOM     28  C   UNL     1      35.768 -16.956 -23.036  0.00  0.00    +0.009 C 
ATOM     29  C   UNL     1      34.285 -17.961 -24.657  0.00  0.00    -0.002 C 
ATOM     30  C   UNL     1      35.982 -18.207 -22.457  0.00  0.00    +0.057 C 
ATOM     31  C   UNL     1      34.499 -19.211 -24.079  0.00  0.00    +0.001 C 
ATOM     32  C   UNL     1      35.347 -19.335 -22.979  0.00  0.00    +0.011 C 
ENDBRANCH  25  27
BRANCH  25  33
ATOM     33  O   UNL     1      33.435 -15.528 -25.434  0.00  0.00    -0.382 OA
ATOM     34  H   UNL     1      32.889 -16.243 -25.072  0.00  0.00    +0.211 HD
ENDBRANCH  25  33
ENDBRANCH  24  25
ENDBRANCH  21  24
ENDBRANCH  20  21
ENDBRANCH  19  20
ENDBRANCH   1  19
TORSDOF 11
ENDMDL
