MODEL 1
REMARK VINA RESULT:     -13.2      0.000      0.000
REMARK  Name = 5073
REMARK  4 active torsions:
REMARK  status: ('A' for Active; 'I' for Inactive)
REMARK    1  A    between atoms: N_1  and  C_18
REMARK    2  A    between atoms: C_2  and  C_11
REMARK    3  A    between atoms: C_18  and  C_19
REMARK    4  A    between atoms: C_19  and  C_23
REMARK                            x       y       z     vdW  Elec       q    Type
REMARK                         _______ _______ _______ _____ _____    ______ ____
ROOT
ATOM      1  N   UNL     1      36.116 -19.510 -20.249  0.00  0.00    +0.387 N 
ATOM      2  C   UNL     1      35.529 -18.305 -22.860  0.00  0.00    +0.039 C 
ATOM      3  C   UNL     1      34.446 -18.973 -21.996  0.00  0.00    -0.017 C 
ATOM      4  C   UNL     1      36.683 -17.819 -21.966  0.00  0.00    -0.017 C 
ATOM      5  C   UNL     1      35.044 -20.055 -21.095  0.00  0.00    -0.077 C 
ATOM      6  C   UNL     1      37.199 -18.944 -21.066  0.00  0.00    -0.077 C 
ATOM      7  H   UNL     1      35.720 -18.758 -19.686  0.00  0.00    -0.080 HD
ENDROOT
BRANCH   2  11
ATOM      8  F   UNL     1      33.749 -11.875 -23.700  0.00  0.00    -0.204 F 
ATOM      9  O   UNL     1      34.168 -16.304 -25.528  0.00  0.00    -0.354 OA
ATOM     10  N   UNL     1      34.626 -17.503 -24.997  0.00  0.00    -0.081 NA
ATOM     11  C   UNL     1      34.977 -17.212 -23.746  0.00  0.00    +0.100 A 
ATOM     12  C   UNL     1      34.772 -15.865 -23.417  0.00  0.00    +0.054 A 
ATOM     13  C   UNL     1      34.256 -15.328 -24.584  0.00  0.00    +0.179 A 
ATOM     14  C   UNL     1      34.951 -15.029 -22.304  0.00  0.00    +0.007 C 
ATOM     15  C   UNL     1      33.894 -13.993 -24.740  0.00  0.00    +0.070 C 
ATOM     16  C   UNL     1      34.595 -13.678 -22.426  0.00  0.00    +0.030 C 
ATOM     17  C   UNL     1      34.077 -13.172 -23.622  0.00  0.00    +0.143 C 
ENDBRANCH   2  11
BRANCH   1  18
ATOM     18  C   UNL     1      36.637 -20.543 -19.354  0.00  0.00    -0.076 C 
BRANCH  18  19
ATOM     19  C   UNL     1      35.773 -21.793 -19.449  0.00  0.00    -0.007 C 
BRANCH  19  23
ATOM     20  O   UNL     1      33.052 -22.260 -19.103  0.00  0.00    -0.274 OA
ATOM     21  N   UNL     1      33.195 -22.697 -16.819  0.00  0.00    -0.237 N 
ATOM     22  N   UNL     1      35.294 -22.540 -15.738  0.00  0.00    -0.399 NA
ATOM     23  C   UNL     1      35.197 -22.147 -18.109  0.00  0.00    +0.123 C 
ATOM     24  C   UNL     1      31.739 -22.842 -16.725  0.00  0.00    +0.100 C 
ATOM     25  C   UNL     1      31.249 -23.538 -15.469  0.00  0.00    +0.022 C 
ATOM     26  C   UNL     1      34.016 -22.745 -15.706  0.00  0.00    +0.165 C 
ATOM     27  C   UNL     1      31.920 -22.914 -14.263  0.00  0.00    +0.011 C 
ATOM     28  C   UNL     1      33.416 -23.128 -14.366  0.00  0.00    +0.075 C 
ATOM     29  C   UNL     1      33.718 -22.374 -18.074  0.00  0.00    +0.237 C 
ATOM     30  C   UNL     1      35.874 -22.245 -16.948  0.00  0.00    +0.096 C 
ATOM     31  C   UNL     1      37.367 -22.069 -16.855  0.00  0.00    +0.062 C 
ENDBRANCH  19  23
ENDBRANCH  18  19
ENDBRANCH   1  18
TORSDOF 4
ENDMDL
MODEL 2
REMARK VINA RESULT:     -12.3      3.495     10.156
REMARK  Name = 5073
REMARK  4 active torsions:
REMARK  status: ('A' for Active; 'I' for Inactive)
REMARK    1  A    between atoms: N_1  and  C_18
REMARK    2  A    between atoms: C_2  and  C_11
REMARK    3  A    between atoms: C_18  and  C_19
REMARK    4  A    between atoms: C_19  and  C_23
REMARK                            x       y       z     vdW  Elec       q    Type
REMARK                         _______ _______ _______ _____ _____    ______ ____
ROOT
ATOM      1  N   UNL     1      34.463 -20.352 -20.088  0.00  0.00    +0.387 N 
ATOM      2  C   UNL     1      34.350 -22.459 -18.049  0.00  0.00    +0.039 C 
ATOM      3  C   UNL     1      35.642 -21.688 -18.370  0.00  0.00    -0.017 C 
ATOM      4  C   UNL     1      33.127 -21.606 -18.424  0.00  0.00    -0.017 C 
ATOM      5  C   UNL     1      35.644 -21.184 -19.815  0.00  0.00    -0.077 C 
ATOM      6  C   UNL     1      33.221 -21.105 -19.867  0.00  0.00    -0.077 C 
ATOM      7  H   UNL     1      34.476 -19.566 -19.438  0.00  0.00    -0.080 HD
ENDROOT
BRANCH   2  11
ATOM      8  F   UNL     1      30.787 -23.892 -12.530  0.00  0.00    -0.204 F 
ATOM      9  O   UNL     1      35.052 -23.711 -14.745  0.00  0.00    -0.354 OA
ATOM     10  N   UNL     1      35.435 -23.319 -16.021  0.00  0.00    -0.081 NA
ATOM     11  C   UNL     1      34.304 -22.951 -16.621  0.00  0.00    +0.100 A 
ATOM     12  C   UNL     1      33.178 -23.082 -15.797  0.00  0.00    +0.054 A 
ATOM     13  C   UNL     1      33.705 -23.569 -14.613  0.00  0.00    +0.179 A 
ATOM     14  C   UNL     1      31.795 -22.859 -15.885  0.00  0.00    +0.007 C 
ATOM     15  C   UNL     1      32.951 -23.861 -13.480  0.00  0.00    +0.070 C 
ATOM     16  C   UNL     1      31.005 -23.141 -14.762  0.00  0.00    +0.030 C 
ATOM     17  C   UNL     1      31.575 -23.634 -13.583  0.00  0.00    +0.143 C 
ENDBRANCH   2  11
BRANCH   1  18
ATOM     18  C   UNL     1      34.510 -19.832 -21.455  0.00  0.00    -0.076 C 
BRANCH  18  19
ATOM     19  C   UNL     1      35.638 -18.818 -21.584  0.00  0.00    -0.007 C 
BRANCH  19  23
ATOM     20  O   UNL     1      35.313 -16.196 -20.711  0.00  0.00    -0.274 OA
ATOM     21  N   UNL     1      34.763 -15.336 -22.805  0.00  0.00    -0.237 N 
ATOM     22  N   UNL     1      34.622 -16.800 -24.659  0.00  0.00    -0.399 NA
ATOM     23  C   UNL     1      35.258 -17.713 -22.527  0.00  0.00    +0.123 C 
ATOM     24  C   UNL     1      34.535 -14.006 -22.232  0.00  0.00    +0.100 C 
ATOM     25  C   UNL     1      34.510 -12.875 -23.242  0.00  0.00    +0.022 C 
ATOM     26  C   UNL     1      34.512 -15.620 -24.136  0.00  0.00    +0.165 C 
ATOM     27  C   UNL     1      33.596 -13.254 -24.389  0.00  0.00    +0.011 C 
ATOM     28  C   UNL     1      34.152 -14.484 -25.076  0.00  0.00    +0.075 C 
ATOM     29  C   UNL     1      35.122 -16.353 -21.917  0.00  0.00    +0.237 C 
ATOM     30  C   UNL     1      35.000 -17.839 -23.843  0.00  0.00    +0.096 C 
ATOM     31  C   UNL     1      35.129 -19.146 -24.581  0.00  0.00    +0.062 C 
ENDBRANCH  19  23
ENDBRANCH  18  19
ENDBRANCH   1  18
TORSDOF 4
ENDMDL
MODEL 3
REMARK VINA RESULT:     -12.0      1.312      2.230
REMARK  Name = 5073
REMARK  4 active torsions:
REMARK  status: ('A' for Active; 'I' for Inactive)
REMARK    1  A    between atoms: N_1  and  C_18
REMARK    2  A    between atoms: C_2  and  C_11
REMARK    3  A    between atoms: C_18  and  C_19
REMARK    4  A    between atoms: C_19  and  C_23
REMARK                            x       y       z     vdW  Elec       q    Type
REMARK                         _______ _______ _______ _____ _____    ______ ____
ROOT
ATOM      1  N   UNL     1      36.294 -19.351 -20.163  0.00  0.00    +0.387 N 
ATOM      2  C   UNL     1      35.543 -18.292 -22.795  0.00  0.00    +0.039 C 
ATOM      3  C   UNL     1      34.511 -18.874 -21.814  0.00  0.00    -0.017 C 
ATOM      4  C   UNL     1      36.771 -17.786 -22.021  0.00  0.00    -0.017 C 
ATOM      5  C   UNL     1      35.148 -19.916 -20.891  0.00  0.00    -0.077 C 
ATOM      6  C   UNL     1      37.326 -18.868 -21.091  0.00  0.00    -0.077 C 
ATOM      7  H   UNL     1      35.959 -18.554 -19.622  0.00  0.00    -0.080 HD
ENDROOT
BRANCH   2  11
ATOM      8  F   UNL     1      33.681 -11.916 -23.837  0.00  0.00    -0.204 F 
ATOM      9  O   UNL     1      34.078 -16.412 -25.496  0.00  0.00    -0.354 OA
ATOM     10  N   UNL     1      34.563 -17.585 -24.933  0.00  0.00    -0.081 NA
ATOM     11  C   UNL     1      34.952 -17.241 -23.707  0.00  0.00    +0.100 A 
ATOM     12  C   UNL     1      34.747 -15.883 -23.426  0.00  0.00    +0.054 A 
ATOM     13  C   UNL     1      34.188 -15.397 -24.596  0.00  0.00    +0.179 A 
ATOM     14  C   UNL     1      34.954 -15.001 -22.354  0.00  0.00    +0.007 C 
ATOM     15  C   UNL     1      33.810 -14.073 -24.794  0.00  0.00    +0.070 C 
ATOM     16  C   UNL     1      34.583 -13.659 -22.519  0.00  0.00    +0.030 C 
ATOM     17  C   UNL     1      34.022 -13.206 -23.717  0.00  0.00    +0.143 C 
ENDBRANCH   2  11
BRANCH   1  18
ATOM     18  C   UNL     1      36.854 -20.342 -19.245  0.00  0.00    -0.076 C 
BRANCH  18  19
ATOM     19  C   UNL     1      36.105 -21.659 -19.385  0.00  0.00    -0.007 C 
BRANCH  19  23
ATOM     20  O   UNL     1      37.746 -22.087 -17.179  0.00  0.00    -0.274 OA
ATOM     21  N   UNL     1      36.020 -22.706 -15.741  0.00  0.00    -0.237 N 
ATOM     22  N   UNL     1      33.805 -22.810 -16.566  0.00  0.00    -0.399 NA
ATOM     23  C   UNL     1      35.551 -22.102 -18.062  0.00  0.00    +0.123 C 
ATOM     24  C   UNL     1      36.977 -22.985 -14.665  0.00  0.00    +0.100 C 
ATOM     25  C   UNL     1      36.365 -23.075 -13.280  0.00  0.00    +0.022 C 
ATOM     26  C   UNL     1      34.667 -22.964 -15.612  0.00  0.00    +0.165 C 
ATOM     27  C   UNL     1      35.158 -23.988 -13.329  0.00  0.00    +0.011 C 
ATOM     28  C   UNL     1      34.125 -23.388 -14.260  0.00  0.00    +0.075 C 
ATOM     29  C   UNL     1      36.551 -22.289 -16.964  0.00  0.00    +0.237 C 
ATOM     30  C   UNL     1      34.260 -22.373 -17.787  0.00  0.00    +0.096 C 
ATOM     31  C   UNL     1      33.154 -22.197 -18.795  0.00  0.00    +0.062 C 
ENDBRANCH  19  23
ENDBRANCH  18  19
ENDBRANCH   1  18
TORSDOF 4
ENDMDL
MODEL 4
REMARK VINA RESULT:     -12.0      3.838     10.205
REMARK  Name = 5073
REMARK  4 active torsions:
REMARK  status: ('A' for Active; 'I' for Inactive)
REMARK    1  A    between atoms: N_1  and  C_18
REMARK    2  A    between atoms: C_2  and  C_11
REMARK    3  A    between atoms: C_18  and  C_19
REMARK    4  A    between atoms: C_19  and  C_23
REMARK                            x       y       z     vdW  Elec       q    Type
REMARK                         _______ _______ _______ _____ _____    ______ ____
ROOT
ATOM      1  N   UNL     1      35.018 -20.237 -19.855  0.00  0.00    +0.387 N 
ATOM      2  C   UNL     1      36.179 -22.032 -17.845  0.00  0.00    +0.039 C 
ATOM      3  C   UNL     1      36.929 -20.805 -18.389  0.00  0.00    -0.017 C 
ATOM      4  C   UNL     1      34.662 -21.820 -17.985  0.00  0.00    -0.017 C 
ATOM      5  C   UNL     1      36.470 -20.456 -19.806  0.00  0.00    -0.077 C 
ATOM      6  C   UNL     1      34.286 -21.434 -19.418  0.00  0.00    -0.077 C 
ATOM      7  H   UNL     1      34.793 -19.478 -19.212  0.00  0.00    -0.080 HD
ENDROOT
BRANCH   2  11
ATOM      8  F   UNL     1      34.617 -24.607 -11.833  0.00  0.00    -0.204 F 
ATOM      9  O   UNL     1      37.886 -22.580 -14.721  0.00  0.00    -0.354 OA
ATOM     10  N   UNL     1      37.836 -22.140 -16.037  0.00  0.00    -0.081 NA
ATOM     11  C   UNL     1      36.591 -22.391 -16.436  0.00  0.00    +0.100 A 
ATOM     12  C   UNL     1      35.803 -22.983 -15.438  0.00  0.00    +0.054 A 
ATOM     13  C   UNL     1      36.672 -23.083 -14.365  0.00  0.00    +0.179 A 
ATOM     14  C   UNL     1      34.487 -23.446 -15.294  0.00  0.00    +0.007 C 
ATOM     15  C   UNL     1      36.332 -23.620 -13.127  0.00  0.00    +0.070 C 
ATOM     16  C   UNL     1      34.109 -23.992 -14.059  0.00  0.00    +0.030 C 
ATOM     17  C   UNL     1      35.016 -24.077 -12.998  0.00  0.00    +0.143 C 
ENDBRANCH   2  11
BRANCH   1  18
ATOM     18  C   UNL     1      34.604 -19.848 -21.203  0.00  0.00    -0.076 C 
BRANCH  18  19
ATOM     19  C   UNL     1      35.769 -19.194 -21.933  0.00  0.00    -0.007 C 
BRANCH  19  23
ATOM     20  O   UNL     1      35.582 -16.602 -20.937  0.00  0.00    -0.274 OA
ATOM     21  N   UNL     1      34.797 -15.664 -22.919  0.00  0.00    -0.237 N 
ATOM     22  N   UNL     1      34.419 -17.059 -24.793  0.00  0.00    -0.399 NA
ATOM     23  C   UNL     1      35.293 -18.053 -22.784  0.00  0.00    +0.123 C 
ATOM     24  C   UNL     1      34.655 -14.353 -22.277  0.00  0.00    +0.100 C 
ATOM     25  C   UNL     1      34.524 -13.186 -23.238  0.00  0.00    +0.022 C 
ATOM     26  C   UNL     1      34.387 -15.898 -24.220  0.00  0.00    +0.165 C 
ATOM     27  C   UNL     1      33.476 -13.517 -24.279  0.00  0.00    +0.011 C 
ATOM     28  C   UNL     1      33.931 -14.726 -25.070  0.00  0.00    +0.075 C 
ATOM     29  C   UNL     1      35.247 -16.715 -22.116  0.00  0.00    +0.237 C 
ATOM     30  C   UNL     1      34.879 -18.130 -24.064  0.00  0.00    +0.096 C 
ATOM     31  C   UNL     1      34.903 -19.410 -24.857  0.00  0.00    +0.062 C 
ENDBRANCH  19  23
ENDBRANCH  18  19
ENDBRANCH   1  18
TORSDOF 4
ENDMDL
MODEL 5
REMARK VINA RESULT:     -12.0      6.042     10.193
REMARK  Name = 5073
REMARK  4 active torsions:
REMARK  status: ('A' for Active; 'I' for Inactive)
REMARK    1  A    between atoms: N_1  and  C_18
REMARK    2  A    between atoms: C_2  and  C_11
REMARK    3  A    between atoms: C_18  and  C_19
REMARK    4  A    between atoms: C_19  and  C_23
REMARK                            x       y       z     vdW  Elec       q    Type
REMARK                         _______ _______ _______ _____ _____    ______ ____
ROOT
ATOM      1  N   UNL     1      32.989 -11.222 -22.233  0.00  0.00    +0.387 N 
ATOM      2  C   UNL     1      31.975  -8.481 -22.498  0.00  0.00    +0.039 C 
ATOM      3  C   UNL     1      31.660  -9.365 -21.279  0.00  0.00    -0.017 C 
ATOM      4  C   UNL     1      33.290  -8.942 -23.149  0.00  0.00    -0.017 C 
ATOM      5  C   UNL     1      31.694 -10.850 -21.647  0.00  0.00    -0.077 C 
ATOM      6  C   UNL     1      33.264 -10.443 -23.448  0.00  0.00    -0.077 C 
ATOM      7  H   UNL     1      33.716 -11.008 -21.550  0.00  0.00    -0.080 HD
ENDROOT
BRANCH   2  11
ATOM      8  F   UNL     1      32.094  -2.081 -24.555  0.00  0.00    -0.204 F 
ATOM      9  O   UNL     1      31.940  -5.238 -20.930  0.00  0.00    -0.354 OA
ATOM     10  N   UNL     1      31.928  -6.626 -20.890  0.00  0.00    -0.081 NA
ATOM     11  C   UNL     1      31.974  -7.007 -22.165  0.00  0.00    +0.100 A 
ATOM     12  C   UNL     1      32.015  -5.928 -23.060  0.00  0.00    +0.054 A 
ATOM     13  C   UNL     1      31.991  -4.823 -22.226  0.00  0.00    +0.179 A 
ATOM     14  C   UNL     1      32.067  -5.732 -24.448  0.00  0.00    +0.007 C 
ATOM     15  C   UNL     1      32.015  -3.504 -22.670  0.00  0.00    +0.070 C 
ATOM     16  C   UNL     1      32.094  -4.415 -24.931  0.00  0.00    +0.030 C 
ATOM     17  C   UNL     1      32.068  -3.324 -24.056  0.00  0.00    +0.143 C 
ENDBRANCH   2  11
BRANCH   1  18
ATOM     18  C   UNL     1      33.026 -12.655 -22.525  0.00  0.00    -0.076 C 
BRANCH  18  19
ATOM     19  C   UNL     1      34.355 -13.018 -23.171  0.00  0.00    -0.007 C 
BRANCH  19  23
ATOM     20  O   UNL     1      35.268 -15.053 -21.508  0.00  0.00    -0.274 OA
ATOM     21  N   UNL     1      34.883 -16.770 -23.034  0.00  0.00    -0.237 N 
ATOM     22  N   UNL     1      34.040 -16.245 -25.182  0.00  0.00    -0.399 NA
ATOM     23  C   UNL     1      34.362 -14.453 -23.610  0.00  0.00    +0.123 C 
ATOM     24  C   UNL     1      35.462 -17.756 -22.115  0.00  0.00    +0.100 C 
ATOM     25  C   UNL     1      35.125 -19.200 -22.440  0.00  0.00    +0.022 C 
ATOM     26  C   UNL     1      34.478 -17.102 -24.315  0.00  0.00    +0.165 C 
ATOM     27  C   UNL     1      35.383 -19.451 -23.910  0.00  0.00    +0.011 C 
ATOM     28  C   UNL     1      34.471 -18.562 -24.730  0.00  0.00    +0.075 C 
ATOM     29  C   UNL     1      34.878 -15.440 -22.609  0.00  0.00    +0.237 C 
ATOM     30  C   UNL     1      33.983 -14.922 -24.815  0.00  0.00    +0.096 C 
ATOM     31  C   UNL     1      33.421 -14.038 -25.897  0.00  0.00    +0.062 C 
ENDBRANCH  19  23
ENDBRANCH  18  19
ENDBRANCH   1  18
TORSDOF 4
ENDMDL
MODEL 6
REMARK VINA RESULT:     -11.6      5.507     12.074
REMARK  Name = 5073
REMARK  4 active torsions:
REMARK  status: ('A' for Active; 'I' for Inactive)
REMARK    1  A    between atoms: N_1  and  C_18
REMARK    2  A    between atoms: C_2  and  C_11
REMARK    3  A    between atoms: C_18  and  C_19
REMARK    4  A    between atoms: C_19  and  C_23
REMARK                            x       y       z     vdW  Elec       q    Type
REMARK                         _______ _______ _______ _____ _____    ______ ____
ROOT
ATOM      1  N   UNL     1      33.606 -12.210 -24.604  0.00  0.00    +0.387 N 
ATOM      2  C   UNL     1      34.623 -14.961 -24.529  0.00  0.00    +0.039 C 
ATOM      3  C   UNL     1      34.447 -14.111 -23.260  0.00  0.00    -0.017 C 
ATOM      4  C   UNL     1      33.669 -14.463 -25.627  0.00  0.00    -0.017 C 
ATOM      5  C   UNL     1      34.569 -12.617 -23.571  0.00  0.00    -0.077 C 
ATOM      6  C   UNL     1      33.819 -12.956 -25.851  0.00  0.00    -0.077 C 
ATOM      7  H   UNL     1      32.669 -12.426 -24.263  0.00  0.00    -0.080 HD
ENDROOT
BRANCH   2  11
ATOM      8  F   UNL     1      35.896 -20.286 -20.626  0.00  0.00    -0.204 F 
ATOM      9  O   UNL     1      33.870 -18.483 -24.597  0.00  0.00    -0.354 OA
ATOM     10  N   UNL     1      33.811 -17.200 -25.126  0.00  0.00    -0.081 NA
ATOM     11  C   UNL     1      34.485 -16.443 -24.262  0.00  0.00    +0.100 A 
ATOM     12  C   UNL     1      34.994 -17.168 -23.175  0.00  0.00    +0.054 A 
ATOM     13  C   UNL     1      34.576 -18.462 -23.434  0.00  0.00    +0.179 A 
ATOM     14  C   UNL     1      35.743 -16.913 -22.017  0.00  0.00    +0.007 C 
ATOM     15  C   UNL     1      34.848 -19.553 -22.613  0.00  0.00    +0.070 C 
ATOM     16  C   UNL     1      36.037 -17.989 -21.168  0.00  0.00    +0.030 C 
ATOM     17  C   UNL     1      35.596 -19.283 -21.462  0.00  0.00    +0.143 C 
ENDBRANCH   2  11
BRANCH   1  18
ATOM     18  C   UNL     1      33.696 -10.770 -24.847  0.00  0.00    -0.076 C 
BRANCH  18  19
ATOM     19  C   UNL     1      34.280 -10.075 -23.626  0.00  0.00    -0.007 C 
BRANCH  19  23
ATOM     20  O   UNL     1      34.868  -7.451 -24.342  0.00  0.00    -0.274 OA
ATOM     21  N   UNL     1      33.035  -6.512 -23.252  0.00  0.00    -0.237 N 
ATOM     22  N   UNL     1      31.569  -7.913 -22.032  0.00  0.00    -0.399 NA
ATOM     23  C   UNL     1      33.412  -8.926 -23.199  0.00  0.00    +0.123 C 
ATOM     24  C   UNL     1      33.477  -5.160 -23.610  0.00  0.00    +0.100 C 
ATOM     25  C   UNL     1      32.412  -4.088 -23.478  0.00  0.00    +0.022 C 
ATOM     26  C   UNL     1      31.940  -6.740 -22.438  0.00  0.00    +0.165 C 
ATOM     27  C   UNL     1      31.744  -4.217 -22.125  0.00  0.00    +0.011 C 
ATOM     28  C   UNL     1      31.064  -5.567 -22.038  0.00  0.00    +0.075 C 
ATOM     29  C   UNL     1      33.849  -7.571 -23.661  0.00  0.00    +0.237 C 
ATOM     30  C   UNL     1      32.312  -9.000 -22.424  0.00  0.00    +0.096 C 
ATOM     31  C   UNL     1      31.753 -10.305 -21.920  0.00  0.00    +0.062 C 
ENDBRANCH  19  23
ENDBRANCH  18  19
ENDBRANCH   1  18
TORSDOF 4
ENDMDL
MODEL 7
REMARK VINA RESULT:     -11.6      3.817     10.260
REMARK  Name = 5073
REMARK  4 active torsions:
REMARK  status: ('A' for Active; 'I' for Inactive)
REMARK    1  A    between atoms: N_1  and  C_18
REMARK    2  A    between atoms: C_2  and  C_11
REMARK    3  A    between atoms: C_18  and  C_19
REMARK    4  A    between atoms: C_19  and  C_23
REMARK                            x       y       z     vdW  Elec       q    Type
REMARK                         _______ _______ _______ _____ _____    ______ ____
ROOT
ATOM      1  N   UNL     1      34.536 -20.597 -19.785  0.00  0.00    +0.387 N 
ATOM      2  C   UNL     1      34.640 -22.564 -17.610  0.00  0.00    +0.039 C 
ATOM      3  C   UNL     1      35.824 -21.643 -17.949  0.00  0.00    -0.017 C 
ATOM      4  C   UNL     1      33.326 -21.915 -18.074  0.00  0.00    -0.017 C 
ATOM      5  C   UNL     1      35.808 -21.238 -19.425  0.00  0.00    -0.077 C 
ATOM      6  C   UNL     1      33.401 -21.500 -19.545  0.00  0.00    -0.077 C 
ATOM      7  H   UNL     1      34.417 -19.777 -19.191  0.00  0.00    -0.080 HD
ENDROOT
BRANCH   2  11
ATOM      8  F   UNL     1      37.938 -24.342 -12.027  0.00  0.00    -0.204 F 
ATOM      9  O   UNL     1      33.760 -23.434 -14.227  0.00  0.00    -0.354 OA
ATOM     10  N   UNL     1      33.441 -23.052 -15.523  0.00  0.00    -0.081 NA
ATOM     11  C   UNL     1      34.611 -22.964 -16.152  0.00  0.00    +0.100 A 
ATOM     12  C   UNL     1      35.703 -23.272 -15.328  0.00  0.00    +0.054 A 
ATOM     13  C   UNL     1      35.109 -23.564 -14.111  0.00  0.00    +0.179 A 
ATOM     14  C   UNL     1      37.100 -23.342 -15.438  0.00  0.00    +0.007 C 
ATOM     15  C   UNL     1      35.809 -23.930 -12.965  0.00  0.00    +0.070 C 
ATOM     16  C   UNL     1      37.836 -23.709 -14.302  0.00  0.00    +0.030 C 
ATOM     17  C   UNL     1      37.201 -23.996 -13.090  0.00  0.00    +0.143 C 
ENDBRANCH   2  11
BRANCH   1  18
ATOM     18  C   UNL     1      34.559 -20.165 -21.183  0.00  0.00    -0.076 C 
BRANCH  18  19
ATOM     19  C   UNL     1      35.726 -19.215 -21.411  0.00  0.00    -0.007 C 
BRANCH  19  23
ATOM     20  O   UNL     1      35.401 -16.565 -20.626  0.00  0.00    -0.274 OA
ATOM     21  N   UNL     1      34.871 -15.773 -22.752  0.00  0.00    -0.237 N 
ATOM     22  N   UNL     1      34.741 -17.296 -24.558  0.00  0.00    -0.399 NA
ATOM     23  C   UNL     1      35.357 -18.141 -22.392  0.00  0.00    +0.123 C 
ATOM     24  C   UNL     1      34.642 -14.424 -22.224  0.00  0.00    +0.100 C 
ATOM     25  C   UNL     1      34.629 -13.326 -23.271  0.00  0.00    +0.022 C 
ATOM     26  C   UNL     1      34.631 -16.099 -24.074  0.00  0.00    +0.165 C 
ATOM     27  C   UNL     1      33.723 -13.740 -24.412  0.00  0.00    +0.011 C 
ATOM     28  C   UNL     1      34.282 -14.994 -25.054  0.00  0.00    +0.075 C 
ATOM     29  C   UNL     1      35.220 -16.761 -21.828  0.00  0.00    +0.237 C 
ATOM     30  C   UNL     1      35.110 -18.309 -23.706  0.00  0.00    +0.096 C 
ATOM     31  C   UNL     1      35.241 -19.639 -24.399  0.00  0.00    +0.062 C 
ENDBRANCH  19  23
ENDBRANCH  18  19
ENDBRANCH   1  18
TORSDOF 4
ENDMDL
MODEL 8
REMARK VINA RESULT:     -11.6      3.348     10.105
REMARK  Name = 5073
REMARK  4 active torsions:
REMARK  status: ('A' for Active; 'I' for Inactive)
REMARK    1  A    between atoms: N_1  and  C_18
REMARK    2  A    between atoms: C_2  and  C_11
REMARK    3  A    between atoms: C_18  and  C_19
REMARK    4  A    between atoms: C_19  and  C_23
REMARK                            x       y       z     vdW  Elec       q    Type
REMARK                         _______ _______ _______ _____ _____    ______ ____
ROOT
ATOM      1  N   UNL     1      34.654 -19.148 -21.196  0.00  0.00    +0.387 N 
ATOM      2  C   UNL     1      34.837 -21.464 -19.403  0.00  0.00    +0.039 C 
ATOM      3  C   UNL     1      36.052 -20.584 -19.742  0.00  0.00    -0.017 C 
ATOM      4  C   UNL     1      33.542 -20.653 -19.575  0.00  0.00    -0.017 C 
ATOM      5  C   UNL     1      35.897 -19.930 -21.117  0.00  0.00    -0.077 C 
ATOM      6  C   UNL     1      33.479 -19.996 -20.956  0.00  0.00    -0.077 C 
ATOM      7  H   UNL     1      34.684 -18.437 -20.465  0.00  0.00    -0.080 HD
ENDROOT
BRANCH   2  11
ATOM      8  F   UNL     1      31.852 -24.201 -14.036  0.00  0.00    -0.204 F 
ATOM      9  O   UNL     1      35.903 -22.895 -16.273  0.00  0.00    -0.354 OA
ATOM     10  N   UNL     1      36.150 -22.296 -17.501  0.00  0.00    -0.081 NA
ATOM     11  C   UNL     1      34.946 -22.108 -18.039  0.00  0.00    +0.100 A 
ATOM     12  C   UNL     1      33.902 -22.559 -17.220  0.00  0.00    +0.054 A 
ATOM     13  C   UNL     1      34.562 -23.053 -16.107  0.00  0.00    +0.179 A 
ATOM     14  C   UNL     1      32.501 -22.620 -17.264  0.00  0.00    +0.007 C 
ATOM     15  C   UNL     1      33.927 -23.617 -15.005  0.00  0.00    +0.070 C 
ATOM     16  C   UNL     1      31.828 -23.182 -16.169  0.00  0.00    +0.030 C 
ATOM     17  C   UNL     1      32.530 -23.671 -15.062  0.00  0.00    +0.143 C 
ENDBRANCH   2  11
BRANCH   1  18
ATOM     18  C   UNL     1      34.550 -18.483 -22.495  0.00  0.00    -0.076 C 
BRANCH  18  19
ATOM     19  C   UNL     1      35.690 -17.489 -22.659  0.00  0.00    -0.007 C 
BRANCH  19  23
ATOM     20  O   UNL     1      35.218 -16.506 -25.220  0.00  0.00    -0.274 OA
ATOM     21  N   UNL     1      34.465 -14.417 -24.515  0.00  0.00    -0.237 N 
ATOM     22  N   UNL     1      34.441 -13.912 -22.203  0.00  0.00    -0.399 NA
ATOM     23  C   UNL     1      35.161 -16.103 -22.888  0.00  0.00    +0.123 C 
ATOM     24  C   UNL     1      34.329 -13.965 -25.904  0.00  0.00    +0.100 C 
ATOM     25  C   UNL     1      33.473 -12.726 -26.087  0.00  0.00    +0.022 C 
ATOM     26  C   UNL     1      34.251 -13.574 -23.439  0.00  0.00    +0.165 C 
ATOM     27  C   UNL     1      33.914 -11.667 -25.099  0.00  0.00    +0.011 C 
ATOM     28  C   UNL     1      33.694 -12.185 -23.692  0.00  0.00    +0.075 C 
ATOM     29  C   UNL     1      34.952 -15.711 -24.318  0.00  0.00    +0.237 C 
ATOM     30  C   UNL     1      34.893 -15.183 -21.941  0.00  0.00    +0.096 C 
ATOM     31  C   UNL     1      35.034 -15.462 -20.467  0.00  0.00    +0.062 C 
ENDBRANCH  19  23
ENDBRANCH  18  19
ENDBRANCH   1  18
TORSDOF 4
ENDMDL
MODEL 9
REMARK VINA RESULT:     -11.6      3.393     10.103
REMARK  Name = 5073
REMARK  4 active torsions:
REMARK  status: ('A' for Active; 'I' for Inactive)
REMARK    1  A    between atoms: N_1  and  C_18
REMARK    2  A    between atoms: C_2  and  C_11
REMARK    3  A    between atoms: C_18  and  C_19
REMARK    4  A    between atoms: C_19  and  C_23
REMARK                            x       y       z     vdW  Elec       q    Type
REMARK                         _______ _______ _______ _____ _____    ______ ____
ROOT
ATOM      1  N   UNL     1      35.846 -18.408 -21.258  0.00  0.00    +0.387 N 
ATOM      2  C   UNL     1      35.602 -20.979 -19.866  0.00  0.00    +0.039 C 
ATOM      3  C   UNL     1      36.817 -20.054 -19.684  0.00  0.00    -0.017 C 
ATOM      4  C   UNL     1      34.378 -20.155 -20.298  0.00  0.00    -0.017 C 
ATOM      5  C   UNL     1      37.046 -19.189 -20.926  0.00  0.00    -0.077 C 
ATOM      6  C   UNL     1      34.697 -19.286 -21.517  0.00  0.00    -0.077 C 
ATOM      7  H   UNL     1      35.620 -17.822 -20.455  0.00  0.00    -0.080 HD
ENDROOT
BRANCH   2  11
ATOM      8  F   UNL     1      37.427 -23.073 -13.742  0.00  0.00    -0.204 F 
ATOM      9  O   UNL     1      34.290 -23.236 -17.383  0.00  0.00    -0.354 OA
ATOM     10  N   UNL     1      34.241 -22.596 -18.614  0.00  0.00    -0.081 NA
ATOM     11  C   UNL     1      35.331 -21.832 -18.647  0.00  0.00    +0.100 A 
ATOM     12  C   UNL     1      36.109 -21.934 -17.485  0.00  0.00    +0.054 A 
ATOM     13  C   UNL     1      35.404 -22.840 -16.710  0.00  0.00    +0.179 A 
ATOM     14  C   UNL     1      37.301 -21.392 -16.982  0.00  0.00    +0.007 C 
ATOM     15  C   UNL     1      35.797 -23.262 -15.443  0.00  0.00    +0.070 C 
ATOM     16  C   UNL     1      37.728 -21.795 -15.709  0.00  0.00    +0.030 C 
ATOM     17  C   UNL     1      36.988 -22.713 -14.955  0.00  0.00    +0.143 C 
ENDBRANCH   2  11
BRANCH   1  18
ATOM     18  C   UNL     1      36.101 -17.545 -22.412  0.00  0.00    -0.076 C 
BRANCH  18  19
ATOM     19  C   UNL     1      34.789 -17.209 -23.106  0.00  0.00    -0.007 C 
BRANCH  19  23
ATOM     20  O   UNL     1      34.274 -15.976 -25.547  0.00  0.00    -0.274 OA
ATOM     21  N   UNL     1      34.173 -13.816 -24.682  0.00  0.00    -0.237 N 
ATOM     22  N   UNL     1      34.562 -13.471 -22.373  0.00  0.00    -0.399 NA
ATOM     23  C   UNL     1      34.609 -15.723 -23.218  0.00  0.00    +0.123 C 
ATOM     24  C   UNL     1      33.988 -13.255 -26.024  0.00  0.00    +0.100 C 
ATOM     25  C   UNL     1      33.461 -11.833 -26.052  0.00  0.00    +0.022 C 
ATOM     26  C   UNL     1      34.315 -13.017 -23.561  0.00  0.00    +0.165 C 
ATOM     27  C   UNL     1      34.276 -10.983 -25.098  0.00  0.00    +0.011 C 
ATOM     28  C   UNL     1      34.105 -11.520 -23.692  0.00  0.00    +0.075 C 
ATOM     29  C   UNL     1      34.333 -15.200 -24.593  0.00  0.00    +0.237 C 
ATOM     30  C   UNL     1      34.702 -14.829 -22.214  0.00  0.00    +0.096 C 
ATOM     31  C   UNL     1      34.946 -15.229 -20.783  0.00  0.00    +0.062 C 
ENDBRANCH  19  23
ENDBRANCH  18  19
ENDBRANCH   1  18
TORSDOF 4
ENDMDL
