MODEL 1
REMARK VINA RESULT:     -12.4      0.000      0.000
REMARK  Name = 1712
REMARK  5 active torsions:
REMARK  status: ('A' for Active; 'I' for Inactive)
REMARK    1  A    between atoms: C_1  and  N_18
REMARK    2  A    between atoms: C_2  and  S_7
REMARK    3  A    between atoms: S_7  and  N_10
REMARK    4  A    between atoms: N_18  and  C_20
REMARK    5  A    between atoms: C_20  and  C_26
REMARK                            x       y       z     vdW  Elec       q    Type
REMARK                         _______ _______ _______ _____ _____    ______ ____
ROOT
ATOM      1  C   UNL     1      35.516 -19.766 -20.689  0.00  0.00    +0.045 C 
ATOM      2  C   UNL     1      34.485 -21.719 -18.945  0.00  0.00    +0.125 C 
ATOM      3  C   UNL     1      34.129 -19.969 -20.573  0.00  0.00    +0.016 C 
ATOM      4  C   UNL     1      36.375 -20.565 -19.912  0.00  0.00    +0.016 C 
ATOM      5  C   UNL     1      33.618 -20.937 -19.708  0.00  0.00    +0.021 C 
ATOM      6  C   UNL     1      35.864 -21.532 -19.047  0.00  0.00    +0.021 C 
ENDROOT
BRANCH   2   7
ATOM      7  S   UNL     1      33.846 -22.931 -17.864  0.00  0.00    +0.075 S 
ATOM      8  O   UNL     1      34.720 -22.994 -16.698  0.00  0.00    -0.150 OA
ATOM      9  O   UNL     1      33.599 -24.151 -18.624  0.00  0.00    -0.150 OA
BRANCH   7  10
ATOM     10  N   UNL     1      32.343 -22.247 -17.369  0.00  0.00    -0.199 N 
ATOM     11  H   UNL     1      31.918 -21.530 -17.891  0.00  0.00    +0.175 HD
ATOM     12  N   UNL     1      32.384 -22.492 -15.023  0.00  0.00    -0.228 NA
ATOM     13  C   UNL     1      31.731 -22.756 -16.171  0.00  0.00    +0.147 C 
ATOM     14  C   UNL     1      30.547 -23.462 -16.260  0.00  0.00    +0.036 C 
ATOM     15  C   UNL     1      29.991 -23.934 -15.077  0.00  0.00    +0.005 C 
ATOM     16  C   UNL     1      31.814 -22.967 -13.894  0.00  0.00    +0.100 C 
ATOM     17  C   UNL     1      30.630 -23.686 -13.867  0.00  0.00    +0.021 C 
ENDBRANCH   7  10
ENDBRANCH   2   7
BRANCH   1  18
ATOM     18  N   UNL     1      36.024 -18.803 -21.548  0.00  0.00    -0.328 N 
ATOM     19  H   UNL     1      36.616 -19.098 -22.277  0.00  0.00    +0.147 HD
BRANCH  18  20
ATOM     20  C   UNL     1      35.738 -17.395 -21.433  0.00  0.00    +0.127 C 
BRANCH  20  26
ATOM     21  S   UNL     1      34.291 -14.141 -20.852  0.00  0.00    -0.104 S 
ATOM     22  O   UNL     1      35.989 -18.793 -24.007  0.00  0.00    -0.210 OA
ATOM     23  N   UNL     1      34.970 -16.986 -25.065  0.00  0.00    -0.333 NA
ATOM     24  N   UNL     1      33.230 -12.449 -22.508  0.00  0.00    -0.262 NA
ATOM     25  C   UNL     1      34.691 -15.746 -23.128  0.00  0.00    +0.033 C 
ATOM     26  C   UNL     1      35.284 -16.874 -22.745  0.00  0.00    +0.092 C 
ATOM     27  C   UNL     1      34.521 -15.874 -24.585  0.00  0.00    +0.142 C 
ATOM     28  C   UNL     1      34.239 -14.578 -22.495  0.00  0.00    +0.114 C 
ATOM     29  C   UNL     1      35.471 -17.686 -23.986  0.00  0.00    +0.202 C 
ATOM     30  C   UNL     1      33.641 -13.552 -23.210  0.00  0.00    +0.069 C 
ATOM     31  C   UNL     1      33.875 -14.750 -25.315  0.00  0.00    +0.034 C 
ATOM     32  C   UNL     1      33.470 -13.664 -24.627  0.00  0.00    +0.018 C 
ATOM     33  C   UNL     1      33.524 -12.649 -21.240  0.00  0.00    +0.183 C 
ENDBRANCH  20  26
ENDBRANCH  18  20
ENDBRANCH   1  18
TORSDOF 5
ENDMDL
MODEL 2
REMARK VINA RESULT:     -12.0      2.471     10.257
REMARK  Name = 1712
REMARK  5 active torsions:
REMARK  status: ('A' for Active; 'I' for Inactive)
REMARK    1  A    between atoms: C_1  and  N_18
REMARK    2  A    between atoms: C_2  and  S_7
REMARK    3  A    between atoms: S_7  and  N_10
REMARK    4  A    between atoms: N_18  and  C_20
REMARK    5  A    between atoms: C_20  and  C_26
REMARK                            x       y       z     vdW  Elec       q    Type
REMARK                         _______ _______ _______ _____ _____    ______ ____
ROOT
ATOM      1  C   UNL     1      35.459 -19.006 -21.007  0.00  0.00    +0.045 C 
ATOM      2  C   UNL     1      34.840 -17.428 -23.253  0.00  0.00    +0.125 C 
ATOM      3  C   UNL     1      35.705 -17.621 -21.005  0.00  0.00    +0.016 C 
ATOM      4  C   UNL     1      34.896 -19.582 -22.160  0.00  0.00    +0.016 C 
ATOM      5  C   UNL     1      35.398 -16.839 -22.118  0.00  0.00    +0.021 C 
ATOM      6  C   UNL     1      34.589 -18.800 -23.273  0.00  0.00    +0.021 C 
ENDROOT
BRANCH   2   7
ATOM      7  S   UNL     1      34.457 -16.450 -24.646  0.00  0.00    +0.075 S 
ATOM      8  O   UNL     1      33.574 -17.228 -25.508  0.00  0.00    -0.150 OA
ATOM      9  O   UNL     1      35.697 -15.924 -25.203  0.00  0.00    -0.150 OA
BRANCH   7  10
ATOM     10  N   UNL     1      33.538 -15.160 -23.967  0.00  0.00    -0.199 N 
ATOM     11  H   UNL     1      32.887 -15.326 -23.247  0.00  0.00    +0.175 HD
ATOM     12  N   UNL     1      33.351 -13.629 -25.752  0.00  0.00    -0.228 NA
ATOM     13  C   UNL     1      33.750 -13.834 -24.482  0.00  0.00    +0.147 C 
ATOM     14  C   UNL     1      34.331 -12.876 -23.674  0.00  0.00    +0.036 C 
ATOM     15  C   UNL     1      34.516 -11.608 -24.212  0.00  0.00    +0.005 C 
ATOM     16  C   UNL     1      33.548 -12.384 -26.242  0.00  0.00    +0.100 C 
ATOM     17  C   UNL     1      34.120 -11.349 -25.520  0.00  0.00    +0.021 C 
ENDBRANCH   7  10
ENDBRANCH   2   7
BRANCH   1  18
ATOM     18  N   UNL     1      35.763 -19.783 -19.900  0.00  0.00    -0.328 N 
ATOM     19  H   UNL     1      36.019 -19.325 -19.066  0.00  0.00    +0.147 HD
BRANCH  18  20
ATOM     20  C   UNL     1      35.728 -21.225 -19.898  0.00  0.00    +0.127 C 
BRANCH  20  26
ATOM     21  S   UNL     1      37.500 -22.077 -16.873  0.00  0.00    -0.104 S 
ATOM     22  O   UNL     1      32.833 -21.412 -20.373  0.00  0.00    -0.210 OA
ATOM     23  N   UNL     1      32.548 -22.209 -18.203  0.00  0.00    -0.333 NA
ATOM     24  N   UNL     1      36.624 -22.981 -14.605  0.00  0.00    -0.262 NA
ATOM     25  C   UNL     1      34.799 -22.127 -17.659  0.00  0.00    +0.033 C 
ATOM     26  C   UNL     1      34.722 -21.694 -18.915  0.00  0.00    +0.092 C 
ATOM     27  C   UNL     1      33.413 -22.432 -17.269  0.00  0.00    +0.142 C 
ATOM     28  C   UNL     1      35.824 -22.331 -16.724  0.00  0.00    +0.114 C 
ATOM     29  C   UNL     1      33.273 -21.742 -19.281  0.00  0.00    +0.202 C 
ATOM     30  C   UNL     1      35.559 -22.812 -15.451  0.00  0.00    +0.069 C 
ATOM     31  C   UNL     1      33.170 -22.946 -15.894  0.00  0.00    +0.034 C 
ATOM     32  C   UNL     1      34.215 -23.113 -15.060  0.00  0.00    +0.018 C 
ATOM     33  C   UNL     1      37.712 -22.622 -15.253  0.00  0.00    +0.183 C 
ENDBRANCH  20  26
ENDBRANCH  18  20
ENDBRANCH   1  18
TORSDOF 5
ENDMDL
MODEL 3
REMARK VINA RESULT:     -11.8      2.392     10.290
REMARK  Name = 1712
REMARK  5 active torsions:
REMARK  status: ('A' for Active; 'I' for Inactive)
REMARK    1  A    between atoms: C_1  and  N_18
REMARK    2  A    between atoms: C_2  and  S_7
REMARK    3  A    between atoms: S_7  and  N_10
REMARK    4  A    between atoms: N_18  and  C_20
REMARK    5  A    between atoms: C_20  and  C_26
REMARK                            x       y       z     vdW  Elec       q    Type
REMARK                         _______ _______ _______ _____ _____    ______ ____
ROOT
ATOM      1  C   UNL     1      34.634 -21.593 -19.193  0.00  0.00    +0.045 C 
ATOM      2  C   UNL     1      35.901 -19.551 -20.657  0.00  0.00    +0.125 C 
ATOM      3  C   UNL     1      33.884 -20.689 -19.967  0.00  0.00    +0.016 C 
ATOM      4  C   UNL     1      36.033 -21.450 -19.169  0.00  0.00    +0.016 C 
ATOM      5  C   UNL     1      34.512 -19.677 -20.693  0.00  0.00    +0.021 C 
ATOM      6  C   UNL     1      36.661 -20.438 -19.895  0.00  0.00    +0.021 C 
ENDROOT
BRANCH   2   7
ATOM      7  S   UNL     1      36.686 -18.284 -21.565  0.00  0.00    +0.075 S 
ATOM      8  O   UNL     1      38.122 -18.399 -21.339  0.00  0.00    -0.150 OA
ATOM      9  O   UNL     1      36.027 -17.018 -21.266  0.00  0.00    -0.150 OA
BRANCH   7  10
ATOM     10  N   UNL     1      36.365 -18.729 -23.199  0.00  0.00    -0.199 N 
ATOM     11  H   UNL     1      36.874 -19.448 -23.637  0.00  0.00    +0.175 HD
ATOM     12  N   UNL     1      35.587 -16.722 -24.163  0.00  0.00    -0.228 NA
ATOM     13  C   UNL     1      35.331 -18.018 -23.902  0.00  0.00    +0.147 C 
ATOM     14  C   UNL     1      34.174 -18.681 -24.260  0.00  0.00    +0.036 C 
ATOM     15  C   UNL     1      33.202 -17.956 -24.940  0.00  0.00    +0.005 C 
ATOM     16  C   UNL     1      34.619 -16.048 -24.824  0.00  0.00    +0.100 C 
ATOM     17  C   UNL     1      33.421 -16.613 -25.231  0.00  0.00    +0.021 C 
ENDBRANCH   7  10
ENDBRANCH   2   7
BRANCH   1  18
ATOM     18  N   UNL     1      34.010 -22.600 -18.472  0.00  0.00    -0.328 N 
ATOM     19  H   UNL     1      34.394 -23.506 -18.513  0.00  0.00    +0.147 HD
BRANCH  18  20
ATOM     20  C   UNL     1      32.830 -22.398 -17.668  0.00  0.00    +0.127 C 
BRANCH  20  26
ATOM     21  S   UNL     1      29.508 -23.186 -16.504  0.00  0.00    -0.104 S 
ATOM     22  O   UNL     1      35.376 -23.059 -16.354  0.00  0.00    -0.210 OA
ATOM     23  N   UNL     1      34.196 -24.094 -14.633  0.00  0.00    -0.333 NA
ATOM     24  N   UNL     1      28.722 -24.441 -14.374  0.00  0.00    -0.262 NA
ATOM     25  C   UNL     1      32.104 -23.655 -15.528  0.00  0.00    +0.033 C 
ATOM     26  C   UNL     1      32.975 -23.129 -16.387  0.00  0.00    +0.092 C 
ATOM     27  C   UNL     1      32.925 -24.242 -14.456  0.00  0.00    +0.142 C 
ATOM     28  C   UNL     1      30.708 -23.756 -15.441  0.00  0.00    +0.114 C 
ATOM     29  C   UNL     1      34.331 -23.405 -15.821  0.00  0.00    +0.202 C 
ATOM     30  C   UNL     1      30.092 -24.392 -14.375  0.00  0.00    +0.069 C 
ATOM     31  C   UNL     1      32.226 -24.916 -13.329  0.00  0.00    +0.034 C 
ATOM     32  C   UNL     1      30.879 -24.966 -13.326  0.00  0.00    +0.018 C 
ATOM     33  C   UNL     1      28.299 -23.830 -15.461  0.00  0.00    +0.183 C 
ENDBRANCH  20  26
ENDBRANCH  18  20
ENDBRANCH   1  18
TORSDOF 5
ENDMDL
MODEL 4
REMARK VINA RESULT:     -11.8      2.454     10.342
REMARK  Name = 1712
REMARK  5 active torsions:
REMARK  status: ('A' for Active; 'I' for Inactive)
REMARK    1  A    between atoms: C_1  and  N_18
REMARK    2  A    between atoms: C_2  and  S_7
REMARK    3  A    between atoms: S_7  and  N_10
REMARK    4  A    between atoms: N_18  and  C_20
REMARK    5  A    between atoms: C_20  and  C_26
REMARK                            x       y       z     vdW  Elec       q    Type
REMARK                         _______ _______ _______ _____ _____    ______ ____
ROOT
ATOM      1  C   UNL     1      33.861 -21.543 -19.289  0.00  0.00    +0.045 C 
ATOM      2  C   UNL     1      35.505 -19.659 -20.579  0.00  0.00    +0.125 C 
ATOM      3  C   UNL     1      35.260 -21.593 -19.153  0.00  0.00    +0.016 C 
ATOM      4  C   UNL     1      33.304 -20.527 -20.088  0.00  0.00    +0.016 C 
ATOM      5  C   UNL     1      36.075 -20.659 -19.792  0.00  0.00    +0.021 C 
ATOM      6  C   UNL     1      34.119 -19.593 -20.727  0.00  0.00    +0.021 C 
ENDROOT
BRANCH   2   7
ATOM      7  S   UNL     1      36.525 -18.491 -21.381  0.00  0.00    +0.075 S 
ATOM      8  O   UNL     1      37.909 -18.803 -21.044  0.00  0.00    -0.150 OA
ATOM      9  O   UNL     1      36.017 -17.154 -21.095  0.00  0.00    -0.150 OA
BRANCH   7  10
ATOM     10  N   UNL     1      36.285 -18.854 -23.048  0.00  0.00    -0.199 N 
ATOM     11  H   UNL     1      36.789 -19.577 -23.486  0.00  0.00    +0.175 HD
ATOM     12  N   UNL     1      35.652 -16.777 -23.969  0.00  0.00    -0.228 NA
ATOM     13  C   UNL     1      35.327 -18.070 -23.780  0.00  0.00    +0.147 C 
ATOM     14  C   UNL     1      34.166 -18.665 -24.234  0.00  0.00    +0.036 C 
ATOM     15  C   UNL     1      33.268 -17.870 -24.937  0.00  0.00    +0.005 C 
ATOM     16  C   UNL     1      34.755 -16.034 -24.656  0.00  0.00    +0.100 C 
ATOM     17  C   UNL     1      33.562 -16.528 -25.157  0.00  0.00    +0.021 C 
ENDBRANCH   7  10
ENDBRANCH   2   7
BRANCH   1  18
ATOM     18  N   UNL     1      33.051 -22.471 -18.652  0.00  0.00    -0.328 N 
ATOM     19  H   UNL     1      32.084 -22.450 -18.842  0.00  0.00    +0.147 HD
BRANCH  18  20
ATOM     20  C   UNL     1      33.540 -23.463 -17.728  0.00  0.00    +0.127 C 
BRANCH  20  26
ATOM     21  S   UNL     1      35.932 -24.576 -15.266  0.00  0.00    -0.104 S 
ATOM     22  O   UNL     1      30.880 -22.314 -17.227  0.00  0.00    -0.210 OA
ATOM     23  N   UNL     1      31.240 -22.529 -14.936  0.00  0.00    -0.333 NA
ATOM     24  N   UNL     1      35.803 -24.586 -12.676  0.00  0.00    -0.262 NA
ATOM     25  C   UNL     1      33.356 -23.450 -15.148  0.00  0.00    +0.033 C 
ATOM     26  C   UNL     1      32.937 -23.234 -16.393  0.00  0.00    +0.092 C 
ATOM     27  C   UNL     1      32.256 -22.991 -14.285  0.00  0.00    +0.142 C 
ATOM     28  C   UNL     1      34.512 -23.972 -14.549  0.00  0.00    +0.114 C 
ATOM     29  C   UNL     1      31.570 -22.640 -16.272  0.00  0.00    +0.202 C 
ATOM     30  C   UNL     1      34.637 -24.062 -13.172  0.00  0.00    +0.069 C 
ATOM     31  C   UNL     1      32.429 -23.104 -12.811  0.00  0.00    +0.034 C 
ATOM     32  C   UNL     1      33.574 -23.619 -12.321  0.00  0.00    +0.018 C 
ATOM     33  C   UNL     1      36.569 -24.897 -13.700  0.00  0.00    +0.183 C 
ENDBRANCH  20  26
ENDBRANCH  18  20
ENDBRANCH   1  18
TORSDOF 5
ENDMDL
MODEL 5
REMARK VINA RESULT:     -11.7      1.833      2.350
REMARK  Name = 1712
REMARK  5 active torsions:
REMARK  status: ('A' for Active; 'I' for Inactive)
REMARK    1  A    between atoms: C_1  and  N_18
REMARK    2  A    between atoms: C_2  and  S_7
REMARK    3  A    between atoms: S_7  and  N_10
REMARK    4  A    between atoms: N_18  and  C_20
REMARK    5  A    between atoms: C_20  and  C_26
REMARK                            x       y       z     vdW  Elec       q    Type
REMARK                         _______ _______ _______ _____ _____    ______ ____
ROOT
ATOM      1  C   UNL     1      35.296 -19.945 -20.647  0.00  0.00    +0.045 C 
ATOM      2  C   UNL     1      34.089 -21.680 -18.790  0.00  0.00    +0.125 C 
ATOM      3  C   UNL     1      36.078 -20.764 -19.812  0.00  0.00    +0.016 C 
ATOM      4  C   UNL     1      33.896 -20.015 -20.529  0.00  0.00    +0.016 C 
ATOM      5  C   UNL     1      35.479 -21.625 -18.892  0.00  0.00    +0.021 C 
ATOM      6  C   UNL     1      33.298 -20.875 -19.609  0.00  0.00    +0.021 C 
ENDROOT
BRANCH   2   7
ATOM      7  S   UNL     1      33.341 -22.756 -17.637  0.00  0.00    +0.075 S 
ATOM      8  O   UNL     1      33.853 -24.099 -17.883  0.00  0.00    -0.150 OA
ATOM      9  O   UNL     1      31.899 -22.538 -17.662  0.00  0.00    -0.150 OA
BRANCH   7  10
ATOM     10  N   UNL     1      33.979 -22.208 -16.133  0.00  0.00    -0.199 N 
ATOM     11  H   UNL     1      33.816 -21.290 -15.818  0.00  0.00    +0.175 HD
ATOM     12  N   UNL     1      35.944 -23.489 -15.880  0.00  0.00    -0.228 NA
ATOM     13  C   UNL     1      34.758 -23.132 -15.352  0.00  0.00    +0.147 C 
ATOM     14  C   UNL     1      34.263 -23.586 -14.145  0.00  0.00    +0.036 C 
ATOM     15  C   UNL     1      35.049 -24.478 -13.423  0.00  0.00    +0.005 C 
ATOM     16  C   UNL     1      36.680 -24.358 -15.151  0.00  0.00    +0.100 C 
ATOM     17  C   UNL     1      36.282 -24.876 -13.929  0.00  0.00    +0.021 C 
ENDBRANCH   7  10
ENDBRANCH   2   7
BRANCH   1  18
ATOM     18  N   UNL     1      35.891 -19.091 -21.563  0.00  0.00    -0.328 N 
ATOM     19  H   UNL     1      36.396 -19.489 -22.309  0.00  0.00    +0.147 HD
BRANCH  18  20
ATOM     20  C   UNL     1      35.813 -17.653 -21.487  0.00  0.00    +0.127 C 
BRANCH  20  26
ATOM     21  S   UNL     1      34.474 -14.367 -20.837  0.00  0.00    -0.104 S 
ATOM     22  O   UNL     1      35.927 -19.045 -24.074  0.00  0.00    -0.210 OA
ATOM     23  N   UNL     1      34.913 -17.208 -25.084  0.00  0.00    -0.333 NA
ATOM     24  N   UNL     1      33.393 -12.640 -22.443  0.00  0.00    -0.262 NA
ATOM     25  C   UNL     1      34.743 -15.971 -23.133  0.00  0.00    +0.033 C 
ATOM     26  C   UNL     1      35.322 -17.115 -22.778  0.00  0.00    +0.092 C 
ATOM     27  C   UNL     1      34.512 -16.087 -24.582  0.00  0.00    +0.142 C 
ATOM     28  C   UNL     1      34.346 -14.794 -22.479  0.00  0.00    +0.114 C 
ATOM     29  C   UNL     1      35.438 -17.925 -24.029  0.00  0.00    +0.202 C 
ATOM     30  C   UNL     1      33.747 -13.750 -23.165  0.00  0.00    +0.069 C 
ATOM     31  C   UNL     1      33.867 -14.944 -25.282  0.00  0.00    +0.034 C 
ATOM     32  C   UNL     1      33.517 -13.851 -24.575  0.00  0.00    +0.018 C 
ATOM     33  C   UNL     1      33.731 -12.854 -21.189  0.00  0.00    +0.183 C 
ENDBRANCH  20  26
ENDBRANCH  18  20
ENDBRANCH   1  18
TORSDOF 5
ENDMDL
MODEL 6
REMARK VINA RESULT:     -11.7      3.739      6.502
REMARK  Name = 1712
REMARK  5 active torsions:
REMARK  status: ('A' for Active; 'I' for Inactive)
REMARK    1  A    between atoms: C_1  and  N_18
REMARK    2  A    between atoms: C_2  and  S_7
REMARK    3  A    between atoms: S_7  and  N_10
REMARK    4  A    between atoms: N_18  and  C_20
REMARK    5  A    between atoms: C_20  and  C_26
REMARK                            x       y       z     vdW  Elec       q    Type
REMARK                         _______ _______ _______ _____ _____    ______ ____
ROOT
ATOM      1  C   UNL     1      34.563 -14.276 -23.857  0.00  0.00    +0.045 C 
ATOM      2  C   UNL     1      35.250 -16.869 -23.007  0.00  0.00    +0.125 C 
ATOM      3  C   UNL     1      34.547 -15.358 -24.756  0.00  0.00    +0.016 C 
ATOM      4  C   UNL     1      34.932 -14.524 -22.522  0.00  0.00    +0.016 C 
ATOM      5  C   UNL     1      34.887 -16.643 -24.335  0.00  0.00    +0.021 C 
ATOM      6  C   UNL     1      35.272 -15.809 -22.101  0.00  0.00    +0.021 C 
ENDROOT
BRANCH   2   7
ATOM      7  S   UNL     1      35.677 -18.478 -22.481  0.00  0.00    +0.075 S 
ATOM      8  O   UNL     1      37.125 -18.523 -22.317  0.00  0.00    -0.150 OA
ATOM      9  O   UNL     1      35.040 -19.444 -23.368  0.00  0.00    -0.150 OA
BRANCH   7  10
ATOM     10  N   UNL     1      34.959 -18.571 -20.917  0.00  0.00    -0.199 N 
ATOM     11  H   UNL     1      34.652 -17.759 -20.452  0.00  0.00    +0.175 HD
ATOM     12  N   UNL     1      35.974 -20.477 -19.968  0.00  0.00    -0.228 NA
ATOM     13  C   UNL     1      34.823 -19.868 -20.312  0.00  0.00    +0.147 C 
ATOM     14  C   UNL     1      33.562 -20.400 -20.122  0.00  0.00    +0.036 C 
ATOM     15  C   UNL     1      33.478 -21.657 -19.533  0.00  0.00    +0.005 C 
ATOM     16  C   UNL     1      35.852 -21.698 -19.399  0.00  0.00    +0.100 C 
ATOM     17  C   UNL     1      34.640 -22.324 -19.161  0.00  0.00    +0.021 C 
ENDBRANCH   7  10
ENDBRANCH   2   7
BRANCH   1  18
ATOM     18  N   UNL     1      34.223 -12.998 -24.275  0.00  0.00    -0.328 N 
ATOM     19  H   UNL     1      34.767 -12.581 -24.982  0.00  0.00    +0.147 HD
BRANCH  18  20
ATOM     20  C   UNL     1      33.121 -12.243 -23.732  0.00  0.00    +0.127 C 
BRANCH  20  26
ATOM     21  S   UNL     1      31.591 -10.972 -20.722  0.00  0.00    -0.104 S 
ATOM     22  O   UNL     1      34.829 -10.767 -25.616  0.00  0.00    -0.210 OA
ATOM     23  N   UNL     1      34.607  -8.862 -24.294  0.00  0.00    -0.333 NA
ATOM     24  N   UNL     1      31.683  -8.611 -19.653  0.00  0.00    -0.262 NA
ATOM     25  C   UNL     1      33.248  -9.870 -22.712  0.00  0.00    +0.033 C 
ATOM     26  C   UNL     1      33.512 -10.819 -23.607  0.00  0.00    +0.092 C 
ATOM     27  C   UNL     1      33.957  -8.674 -23.194  0.00  0.00    +0.142 C 
ATOM     28  C   UNL     1      32.507  -9.783 -21.524  0.00  0.00    +0.114 C 
ATOM     29  C   UNL     1      34.390 -10.182 -24.637  0.00  0.00    +0.202 C 
ATOM     30  C   UNL     1      32.431  -8.602 -20.802  0.00  0.00    +0.069 C 
ATOM     31  C   UNL     1      33.851  -7.426 -22.390  0.00  0.00    +0.034 C 
ATOM     32  C   UNL     1      33.116  -7.432 -21.260  0.00  0.00    +0.018 C 
ATOM     33  C   UNL     1      31.186  -9.821 -19.508  0.00  0.00    +0.183 C 
ENDBRANCH  20  26
ENDBRANCH  18  20
ENDBRANCH   1  18
TORSDOF 5
ENDMDL
MODEL 7
REMARK VINA RESULT:     -11.6      3.856      6.932
REMARK  Name = 1712
REMARK  5 active torsions:
REMARK  status: ('A' for Active; 'I' for Inactive)
REMARK    1  A    between atoms: C_1  and  N_18
REMARK    2  A    between atoms: C_2  and  S_7
REMARK    3  A    between atoms: S_7  and  N_10
REMARK    4  A    between atoms: N_18  and  C_20
REMARK    5  A    between atoms: C_20  and  C_26
REMARK                            x       y       z     vdW  Elec       q    Type
REMARK                         _______ _______ _______ _____ _____    ______ ____
ROOT
ATOM      1  C   UNL     1      34.249 -14.028 -23.778  0.00  0.00    +0.045 C 
ATOM      2  C   UNL     1      35.079 -16.620 -23.064  0.00  0.00    +0.125 C 
ATOM      3  C   UNL     1      34.240 -15.074 -24.720  0.00  0.00    +0.016 C 
ATOM      4  C   UNL     1      34.685 -14.311 -22.471  0.00  0.00    +0.016 C 
ATOM      5  C   UNL     1      34.651 -16.358 -24.365  0.00  0.00    +0.021 C 
ATOM      6  C   UNL     1      35.096 -15.596 -22.117  0.00  0.00    +0.021 C 
ENDROOT
BRANCH   2   7
ATOM      7  S   UNL     1      35.594 -18.228 -22.621  0.00  0.00    +0.075 S 
ATOM      8  O   UNL     1      37.053 -18.236 -22.595  0.00  0.00    -0.150 OA
ATOM      9  O   UNL     1      34.901 -19.190 -23.468  0.00  0.00    -0.150 OA
BRANCH   7  10
ATOM     10  N   UNL     1      35.031 -18.376 -20.999  0.00  0.00    -0.199 N 
ATOM     11  H   UNL     1      34.773 -17.582 -20.478  0.00  0.00    +0.175 HD
ATOM     12  N   UNL     1      36.124 -20.317 -20.222  0.00  0.00    -0.228 NA
ATOM     13  C   UNL     1      34.947 -19.695 -20.430  0.00  0.00    +0.147 C 
ATOM     14  C   UNL     1      33.709 -20.232 -20.139  0.00  0.00    +0.036 C 
ATOM     15  C   UNL     1      33.676 -21.509 -19.590  0.00  0.00    +0.005 C 
ATOM     16  C   UNL     1      36.052 -21.557 -19.688  0.00  0.00    +0.100 C 
ATOM     17  C   UNL     1      34.865 -22.190 -19.357  0.00  0.00    +0.021 C 
ENDBRANCH   7  10
ENDBRANCH   2   7
BRANCH   1  18
ATOM     18  N   UNL     1      33.839 -12.751 -24.130  0.00  0.00    -0.328 N 
ATOM     19  H   UNL     1      33.082 -12.662 -24.754  0.00  0.00    +0.147 HD
BRANCH  18  20
ATOM     20  C   UNL     1      34.458 -11.546 -23.637  0.00  0.00    +0.127 C 
BRANCH  20  26
ATOM     21  S   UNL     1      35.429  -8.147 -24.362  0.00  0.00    -0.104 S 
ATOM     22  O   UNL     1      32.070 -12.437 -22.173  0.00  0.00    -0.210 OA
ATOM     23  N   UNL     1      31.435 -10.213 -21.895  0.00  0.00    -0.333 NA
ATOM     24  N   UNL     1      34.272  -5.902 -23.771  0.00  0.00    -0.262 NA
ATOM     25  C   UNL     1      33.261  -9.338 -23.020  0.00  0.00    +0.033 C 
ATOM     26  C   UNL     1      33.421 -10.659 -23.058  0.00  0.00    +0.092 C 
ATOM     27  C   UNL     1      32.006  -9.121 -22.282  0.00  0.00    +0.142 C 
ATOM     28  C   UNL     1      33.969  -8.222 -23.491  0.00  0.00    +0.114 C 
ATOM     29  C   UNL     1      32.249 -11.238 -22.334  0.00  0.00    +0.202 C 
ATOM     30  C   UNL     1      33.513  -6.931 -23.276  0.00  0.00    +0.069 C 
ATOM     31  C   UNL     1      31.550  -7.721 -22.073  0.00  0.00    +0.034 C 
ATOM     32  C   UNL     1      32.294  -6.707 -22.559  0.00  0.00    +0.018 C 
ATOM     33  C   UNL     1      35.319  -6.429 -24.370  0.00  0.00    +0.183 C 
ENDBRANCH  20  26
ENDBRANCH  18  20
ENDBRANCH   1  18
TORSDOF 5
ENDMDL
MODEL 8
REMARK VINA RESULT:     -11.3      2.826     10.231
REMARK  Name = 1712
REMARK  5 active torsions:
REMARK  status: ('A' for Active; 'I' for Inactive)
REMARK    1  A    between atoms: C_1  and  N_18
REMARK    2  A    between atoms: C_2  and  S_7
REMARK    3  A    between atoms: S_7  and  N_10
REMARK    4  A    between atoms: N_18  and  C_20
REMARK    5  A    between atoms: C_20  and  C_26
REMARK                            x       y       z     vdW  Elec       q    Type
REMARK                         _______ _______ _______ _____ _____    ______ ____
ROOT
ATOM      1  C   UNL     1      36.000 -20.751 -19.259  0.00  0.00    +0.045 C 
ATOM      2  C   UNL     1      35.436 -19.578 -21.754  0.00  0.00    +0.125 C 
ATOM      3  C   UNL     1      37.007 -20.098 -19.994  0.00  0.00    +0.016 C 
ATOM      4  C   UNL     1      34.704 -20.803 -19.804  0.00  0.00    +0.016 C 
ATOM      5  C   UNL     1      36.727 -19.517 -21.230  0.00  0.00    +0.021 C 
ATOM      6  C   UNL     1      34.424 -20.221 -21.040  0.00  0.00    +0.021 C 
ENDROOT
BRANCH   2   7
ATOM      7  S   UNL     1      35.086 -18.851 -23.302  0.00  0.00    +0.075 S 
ATOM      8  O   UNL     1      33.687 -18.439 -23.295  0.00  0.00    -0.150 OA
ATOM      9  O   UNL     1      35.549 -19.748 -24.354  0.00  0.00    -0.150 OA
BRANCH   7  10
ATOM     10  N   UNL     1      36.061 -17.430 -23.286  0.00  0.00    -0.199 N 
ATOM     11  H   UNL     1      36.980 -17.443 -23.637  0.00  0.00    +0.175 HD
ATOM     12  N   UNL     1      35.249 -16.238 -21.419  0.00  0.00    -0.228 NA
ATOM     13  C   UNL     1      35.492 -16.225 -22.744  0.00  0.00    +0.147 C 
ATOM     14  C   UNL     1      35.234 -15.159 -23.583  0.00  0.00    +0.036 C 
ATOM     15  C   UNL     1      34.685 -14.014 -23.016  0.00  0.00    +0.005 C 
ATOM     16  C   UNL     1      34.714 -15.108 -20.904  0.00  0.00    +0.100 C 
ATOM     17  C   UNL     1      34.417 -13.981 -21.652  0.00  0.00    +0.021 C 
ENDBRANCH   7  10
ENDBRANCH   2   7
BRANCH   1  18
ATOM     18  N   UNL     1      36.277 -21.328 -18.029  0.00  0.00    -0.328 N 
ATOM     19  H   UNL     1      37.111 -21.071 -17.573  0.00  0.00    +0.147 HD
BRANCH  18  20
ATOM     20  C   UNL     1      35.417 -22.286 -17.380  0.00  0.00    +0.127 C 
BRANCH  20  26
ATOM     21  S   UNL     1      32.677 -23.479 -15.359  0.00  0.00    -0.104 S 
ATOM     22  O   UNL     1      38.230 -22.007 -16.573  0.00  0.00    -0.210 OA
ATOM     23  N   UNL     1      37.682 -22.813 -14.457  0.00  0.00    -0.333 NA
ATOM     24  N   UNL     1      32.631 -24.301 -12.899  0.00  0.00    -0.262 NA
ATOM     25  C   UNL     1      35.430 -23.093 -14.923  0.00  0.00    +0.033 C 
ATOM     26  C   UNL     1      35.968 -22.620 -16.045  0.00  0.00    +0.092 C 
ATOM     27  C   UNL     1      36.547 -23.192 -13.970  0.00  0.00    +0.142 C 
ATOM     28  C   UNL     1      34.148 -23.479 -14.504  0.00  0.00    +0.114 C 
ATOM     29  C   UNL     1      37.423 -22.433 -15.758  0.00  0.00    +0.202 C 
ATOM     30  C   UNL     1      33.916 -23.948 -13.220  0.00  0.00    +0.069 C 
ATOM     31  C   UNL     1      36.257 -23.701 -12.603  0.00  0.00    +0.034 C 
ATOM     32  C   UNL     1      34.994 -24.048 -12.284  0.00  0.00    +0.018 C 
ATOM     33  C   UNL     1      31.881 -24.094 -13.961  0.00  0.00    +0.183 C 
ENDBRANCH  20  26
ENDBRANCH  18  20
ENDBRANCH   1  18
TORSDOF 5
ENDMDL
MODEL 9
REMARK VINA RESULT:     -10.9      2.639     10.044
REMARK  Name = 1712
REMARK  5 active torsions:
REMARK  status: ('A' for Active; 'I' for Inactive)
REMARK    1  A    between atoms: C_1  and  N_18
REMARK    2  A    between atoms: C_2  and  S_7
REMARK    3  A    between atoms: S_7  and  N_10
REMARK    4  A    between atoms: N_18  and  C_20
REMARK    5  A    between atoms: C_20  and  C_26
REMARK                            x       y       z     vdW  Elec       q    Type
REMARK                         _______ _______ _______ _____ _____    ______ ____
ROOT
ATOM      1  C   UNL     1      35.157 -20.506 -19.616  0.00  0.00    +0.045 C 
ATOM      2  C   UNL     1      35.021 -19.394 -22.197  0.00  0.00    +0.125 C 
ATOM      3  C   UNL     1      33.916 -20.250 -20.226  0.00  0.00    +0.016 C 
ATOM      4  C   UNL     1      36.329 -20.191 -20.328  0.00  0.00    +0.016 C 
ATOM      5  C   UNL     1      33.848 -19.699 -21.505  0.00  0.00    +0.021 C 
ATOM      6  C   UNL     1      36.261 -19.640 -21.608  0.00  0.00    +0.021 C 
ENDROOT
BRANCH   2   7
ATOM      7  S   UNL     1      34.936 -18.703 -23.798  0.00  0.00    +0.075 S 
ATOM      8  O   UNL     1      33.567 -18.250 -24.015  0.00  0.00    -0.150 OA
ATOM      9  O   UNL     1      35.523 -19.644 -24.744  0.00  0.00    -0.150 OA
BRANCH   7  10
ATOM     10  N   UNL     1      35.945 -17.312 -23.667  0.00  0.00    -0.199 N 
ATOM     11  H   UNL     1      36.850 -17.306 -24.054  0.00  0.00    +0.175 HD
ATOM     12  N   UNL     1      35.233 -16.313 -21.653  0.00  0.00    -0.228 NA
ATOM     13  C   UNL     1      35.426 -16.162 -22.977  0.00  0.00    +0.147 C 
ATOM     14  C   UNL     1      35.163 -15.006 -23.686  0.00  0.00    +0.036 C 
ATOM     15  C   UNL     1      34.663 -13.919 -22.978  0.00  0.00    +0.005 C 
ATOM     16  C   UNL     1      34.744 -15.236 -20.998  0.00  0.00    +0.100 C 
ATOM     17  C   UNL     1      34.447 -14.028 -21.608  0.00  0.00    +0.021 C 
ENDBRANCH   7  10
ENDBRANCH   2   7
BRANCH   1  18
ATOM     18  N   UNL     1      35.225 -21.055 -18.344  0.00  0.00    -0.328 N 
ATOM     19  H   UNL     1      35.262 -20.441 -17.575  0.00  0.00    +0.147 HD
BRANCH  18  20
ATOM     20  C   UNL     1      35.246 -22.473 -18.082  0.00  0.00    +0.127 C 
BRANCH  20  26
ATOM     21  S   UNL     1      37.264 -23.411 -15.242  0.00  0.00    -0.104 S 
ATOM     22  O   UNL     1      32.312 -22.338 -18.209  0.00  0.00    -0.210 OA
ATOM     23  N   UNL     1      32.204 -23.013 -15.983  0.00  0.00    -0.333 NA
ATOM     24  N   UNL     1      36.573 -24.120 -12.845  0.00  0.00    -0.262 NA
ATOM     25  C   UNL     1      34.499 -23.174 -15.708  0.00  0.00    +0.033 C 
ATOM     26  C   UNL     1      34.320 -22.783 -16.967  0.00  0.00    +0.092 C 
ATOM     27  C   UNL     1      33.145 -23.301 -15.145  0.00  0.00    +0.142 C 
ATOM     28  C   UNL     1      35.601 -23.462 -14.888  0.00  0.00    +0.114 C 
ATOM     29  C   UNL     1      32.841 -22.675 -17.160  0.00  0.00    +0.202 C 
ATOM     30  C   UNL     1      35.439 -23.859 -13.570  0.00  0.00    +0.069 C 
ATOM     31  C   UNL     1      33.014 -23.730 -13.727  0.00  0.00    +0.034 C 
ATOM     32  C   UNL     1      34.127 -23.987 -13.011  0.00  0.00    +0.018 C 
ATOM     33  C   UNL     1      37.607 -23.915 -13.632  0.00  0.00    +0.183 C 
ENDBRANCH  20  26
ENDBRANCH  18  20
ENDBRANCH   1  18
TORSDOF 5
ENDMDL
