MODEL 1
REMARK VINA RESULT:     -12.1      0.000      0.000
REMARK  Name = 447734
REMARK  5 active torsions:
REMARK  status: ('A' for Active; 'I' for Inactive)
REMARK    1  A    between atoms: C_3  and  C_19
REMARK    2  A    between atoms: C_9  and  C_13
REMARK    3  A    between atoms: N_18  and  C_24
REMARK    4  A    between atoms: C_21  and  O_27
REMARK    5  A    between atoms: O_27  and  C_28
REMARK                            x       y       z     vdW  Elec       q    Type
REMARK                         _______ _______ _______ _____ _____    ______ ____
ROOT
ATOM      1  C   UNL     1      35.759 -19.953 -20.577  0.00  0.00    +0.000 C 
ATOM      2  C   UNL     1      34.483 -19.678 -21.121  0.00  0.00    +0.000 C 
ATOM      3  C   UNL     1      34.733 -21.453 -18.960  0.00  0.00    +0.054 C 
ATOM      4  C   UNL     1      35.867 -20.844 -19.496  0.00  0.00    +0.005 C 
ATOM      5  C   UNL     1      33.351 -20.300 -20.570  0.00  0.00    +0.000 C 
ATOM      6  C   UNL     1      33.477 -21.182 -19.496  0.00  0.00    +0.005 C 
ATOM      7  C   UNL     1      34.375 -18.787 -22.203  0.00  0.00    +0.003 C 
ATOM      8  C   UNL     1      36.891 -19.331 -21.129  0.00  0.00    +0.000 C 
ATOM      9  C   UNL     1      35.510 -18.178 -22.739  0.00  0.00    +0.031 C 
ATOM     10  C   UNL     1      36.766 -18.449 -22.203  0.00  0.00    +0.003 C 
ENDROOT
BRANCH   9  13
ATOM     11  N   UNL     1      35.885 -15.961 -23.792  0.00  0.00    -0.343 N 
ATOM     12  N   UNL     1      34.772 -17.648 -24.964  0.00  0.00    -0.285 NA
ATOM     13  C   UNL     1      35.381 -17.258 -23.859  0.00  0.00    +0.117 C 
ATOM     14  H   UNL     1      35.787 -15.354 -24.562  0.00  0.00    +0.144 HD
ATOM     15  H   UNL     1      36.339 -15.650 -22.975  0.00  0.00    +0.144 HD
ATOM     16  H   UNL     1      34.684 -17.027 -25.723  0.00  0.00    +0.188 HD
ENDBRANCH   9  13
BRANCH   3  19
ATOM     17  O   UNL     1      34.184 -23.413 -17.834  0.00  0.00    -0.270 OA
ATOM     18  N   UNL     1      35.781 -22.004 -16.849  0.00  0.00    -0.280 N 
ATOM     19  C   UNL     1      34.861 -22.372 -17.840  0.00  0.00    +0.249 C 
ATOM     20  H   UNL     1      36.244 -21.147 -16.992  0.00  0.00    +0.155 HD
BRANCH  18  24
ATOM     21  C   UNL     1      37.778 -23.842 -14.348  0.00  0.00    +0.140 C 
ATOM     22  C   UNL     1      37.433 -23.152 -15.509  0.00  0.00    +0.052 C 
ATOM     23  C   UNL     1      36.817 -24.074 -13.363  0.00  0.00    +0.037 C 
ATOM     24  C   UNL     1      36.132 -22.704 -15.669  0.00  0.00    +0.054 C 
ATOM     25  C   UNL     1      35.512 -23.616 -13.540  0.00  0.00    +0.004 C 
ATOM     26  C   UNL     1      35.167 -22.926 -14.701  0.00  0.00    +0.015 C 
BRANCH  21  27
ATOM     27  O   UNL     1      39.051 -24.290 -14.175  0.00  0.00    -0.479 OA
BRANCH  27  28
ATOM     28  C   UNL     1      39.213 -25.549 -13.533  0.00  0.00    +0.166 C 
ATOM     29  C   UNL     1      40.614 -26.077 -13.801  0.00  0.00    +0.044 C 
ATOM     30  C   UNL     1      38.320 -26.594 -14.184  0.00  0.00    +0.044 C 
ATOM     31  C   UNL     1      40.536 -26.670 -15.208  0.00  0.00    +0.004 C 
ATOM     32  C   UNL     1      39.060 -26.972 -15.465  0.00  0.00    +0.004 C 
ENDBRANCH  27  28
ENDBRANCH  21  27
ENDBRANCH  18  24
ENDBRANCH   3  19
TORSDOF 5
ENDMDL
MODEL 2
REMARK VINA RESULT:     -12.0      1.989      2.851
REMARK  Name = 447734
REMARK  5 active torsions:
REMARK  status: ('A' for Active; 'I' for Inactive)
REMARK    1  A    between atoms: C_3  and  C_19
REMARK    2  A    between atoms: C_9  and  C_13
REMARK    3  A    between atoms: N_18  and  C_24
REMARK    4  A    between atoms: C_21  and  O_27
REMARK    5  A    between atoms: O_27  and  C_28
REMARK                            x       y       z     vdW  Elec       q    Type
REMARK                         _______ _______ _______ _____ _____    ______ ____
ROOT
ATOM      1  C   UNL     1      35.498 -20.016 -20.495  0.00  0.00    +0.000 C 
ATOM      2  C   UNL     1      34.262 -19.715 -21.113  0.00  0.00    +0.000 C 
ATOM      3  C   UNL     1      34.336 -21.407 -18.873  0.00  0.00    +0.054 C 
ATOM      4  C   UNL     1      35.518 -20.864 -19.375  0.00  0.00    +0.005 C 
ATOM      5  C   UNL     1      33.081 -20.271 -20.594  0.00  0.00    +0.000 C 
ATOM      6  C   UNL     1      33.120 -21.111 -19.481  0.00  0.00    +0.005 C 
ATOM      7  C   UNL     1      34.242 -18.867 -22.233  0.00  0.00    +0.003 C 
ATOM      8  C   UNL     1      36.679 -19.460 -21.014  0.00  0.00    +0.000 C 
ATOM      9  C   UNL     1      35.424 -18.324 -22.736  0.00  0.00    +0.031 C 
ATOM     10  C   UNL     1      36.641 -18.620 -22.128  0.00  0.00    +0.003 C 
ENDROOT
BRANCH   9  13
ATOM     11  N   UNL     1      35.910 -16.158 -23.847  0.00  0.00    -0.343 N 
ATOM     12  N   UNL     1      34.841 -17.871 -25.023  0.00  0.00    -0.285 NA
ATOM     13  C   UNL     1      35.386 -17.448 -23.896  0.00  0.00    +0.117 C 
ATOM     14  H   UNL     1      35.875 -15.581 -24.645  0.00  0.00    +0.144 HD
ATOM     15  H   UNL     1      36.318 -15.823 -23.015  0.00  0.00    +0.144 HD
ATOM     16  H   UNL     1      34.815 -17.279 -25.810  0.00  0.00    +0.188 HD
ENDBRANCH   9  13
BRANCH   3  19
ATOM     17  O   UNL     1      35.456 -22.792 -17.375  0.00  0.00    -0.270 OA
ATOM     18  N   UNL     1      33.156 -22.462 -17.042  0.00  0.00    -0.280 N 
ATOM     19  C   UNL     1      34.374 -22.283 -17.712  0.00  0.00    +0.249 C 
ATOM     20  H   UNL     1      32.382 -21.994 -17.428  0.00  0.00    +0.155 HD
BRANCH  18  24
ATOM     21  C   UNL     1      33.641 -24.158 -13.799  0.00  0.00    +0.140 C 
ATOM     22  C   UNL     1      33.898 -23.401 -14.941  0.00  0.00    +0.052 C 
ATOM     23  C   UNL     1      32.383 -24.732 -13.612  0.00  0.00    +0.037 C 
ATOM     24  C   UNL     1      32.894 -23.230 -15.880  0.00  0.00    +0.054 C 
ATOM     25  C   UNL     1      31.384 -24.550 -14.568  0.00  0.00    +0.004 C 
ATOM     26  C   UNL     1      31.641 -23.794 -15.710  0.00  0.00    +0.015 C 
BRANCH  21  27
ATOM     27  O   UNL     1      34.615 -24.336 -12.867  0.00  0.00    -0.479 OA
BRANCH  27  28
ATOM     28  C   UNL     1      35.927 -23.908 -13.212  0.00  0.00    +0.166 C 
ATOM     29  C   UNL     1      36.819 -25.124 -13.413  0.00  0.00    +0.044 C 
ATOM     30  C   UNL     1      36.578 -23.195 -12.037  0.00  0.00    +0.044 C 
ATOM     31  C   UNL     1      37.202 -25.556 -11.997  0.00  0.00    +0.004 C 
ATOM     32  C   UNL     1      37.017 -24.325 -11.109  0.00  0.00    +0.004 C 
ENDBRANCH  27  28
ENDBRANCH  21  27
ENDBRANCH  18  24
ENDBRANCH   3  19
TORSDOF 5
ENDMDL
MODEL 3
REMARK VINA RESULT:     -11.5      4.956     12.264
REMARK  Name = 447734
REMARK  5 active torsions:
REMARK  status: ('A' for Active; 'I' for Inactive)
REMARK    1  A    between atoms: C_3  and  C_19
REMARK    2  A    between atoms: C_9  and  C_13
REMARK    3  A    between atoms: N_18  and  C_24
REMARK    4  A    between atoms: C_21  and  O_27
REMARK    5  A    between atoms: O_27  and  C_28
REMARK                            x       y       z     vdW  Elec       q    Type
REMARK                         _______ _______ _______ _____ _____    ______ ____
ROOT
ATOM      1  C   UNL     1      34.444 -19.906 -20.660  0.00  0.00    +0.000 C 
ATOM      2  C   UNL     1      35.750 -20.137 -20.167  0.00  0.00    +0.000 C 
ATOM      3  C   UNL     1      35.349 -18.346 -22.292  0.00  0.00    +0.054 C 
ATOM      4  C   UNL     1      34.261 -19.007 -21.723  0.00  0.00    +0.005 C 
ATOM      5  C   UNL     1      36.835 -19.463 -20.751  0.00  0.00    +0.000 C 
ATOM      6  C   UNL     1      36.634 -18.573 -21.807  0.00  0.00    +0.005 C 
ATOM      7  C   UNL     1      35.934 -21.037 -19.103  0.00  0.00    +0.003 C 
ATOM      8  C   UNL     1      33.360 -20.581 -20.075  0.00  0.00    +0.000 C 
ATOM      9  C   UNL     1      34.846 -21.699 -18.534  0.00  0.00    +0.031 C 
ATOM     10  C   UNL     1      33.561 -21.471 -19.019  0.00  0.00    +0.003 C 
ENDROOT
BRANCH   9  13
ATOM     11  N   UNL     1      36.122 -22.477 -16.552  0.00  0.00    -0.343 N 
ATOM     12  N   UNL     1      34.221 -23.637 -17.260  0.00  0.00    -0.285 NA
ATOM     13  C   UNL     1      35.053 -22.626 -17.434  0.00  0.00    +0.117 C 
ATOM     14  H   UNL     1      36.243 -23.117 -15.813  0.00  0.00    +0.144 HD
ATOM     15  H   UNL     1      36.755 -21.732 -16.667  0.00  0.00    +0.144 HD
ATOM     16  H   UNL     1      34.359 -24.266 -16.515  0.00  0.00    +0.188 HD
ENDBRANCH   9  13
BRANCH   3  19
ATOM     17  O   UNL     1      35.398 -17.787 -24.550  0.00  0.00    -0.270 OA
ATOM     18  N   UNL     1      34.635 -16.158 -23.042  0.00  0.00    -0.280 N 
ATOM     19  C   UNL     1      35.142 -17.417 -23.392  0.00  0.00    +0.249 C 
ATOM     20  H   UNL     1      34.482 -16.010 -22.082  0.00  0.00    +0.155 HD
BRANCH  18  24
ATOM     21  C   UNL     1      34.255 -12.709 -24.300  0.00  0.00    +0.140 C 
ATOM     22  C   UNL     1      34.572 -13.779 -23.465  0.00  0.00    +0.052 C 
ATOM     23  C   UNL     1      33.683 -12.946 -25.550  0.00  0.00    +0.037 C 
ATOM     24  C   UNL     1      34.313 -15.071 -23.892  0.00  0.00    +0.054 C 
ATOM     25  C   UNL     1      33.428 -14.253 -25.964  0.00  0.00    +0.004 C 
ATOM     26  C   UNL     1      33.745 -15.323 -25.129  0.00  0.00    +0.015 C 
BRANCH  21  27
ATOM     27  O   UNL     1      34.502 -11.433 -23.896  0.00  0.00    -0.479 OA
BRANCH  27  28
ATOM     28  C   UNL     1      34.224 -10.395 -24.827  0.00  0.00    +0.166 C 
ATOM     29  C   UNL     1      35.507  -9.640 -25.141  0.00  0.00    +0.044 C 
ATOM     30  C   UNL     1      33.347  -9.330 -24.187  0.00  0.00    +0.044 C 
ATOM     31  C   UNL     1      35.693  -8.692 -23.956  0.00  0.00    +0.004 C 
ATOM     32  C   UNL     1      34.312  -8.519 -23.325  0.00  0.00    +0.004 C 
ENDBRANCH  27  28
ENDBRANCH  21  27
ENDBRANCH  18  24
ENDBRANCH   3  19
TORSDOF 5
ENDMDL
MODEL 4
REMARK VINA RESULT:     -11.3      3.334     10.800
REMARK  Name = 447734
REMARK  5 active torsions:
REMARK  status: ('A' for Active; 'I' for Inactive)
REMARK    1  A    between atoms: C_3  and  C_19
REMARK    2  A    between atoms: C_9  and  C_13
REMARK    3  A    between atoms: N_18  and  C_24
REMARK    4  A    between atoms: C_21  and  O_27
REMARK    5  A    between atoms: O_27  and  C_28
REMARK                            x       y       z     vdW  Elec       q    Type
REMARK                         _______ _______ _______ _____ _____    ______ ____
ROOT
ATOM      1  C   UNL     1      36.521 -21.727 -17.381  0.00  0.00    +0.000 C 
ATOM      2  C   UNL     1      35.241 -22.326 -17.294  0.00  0.00    +0.000 C 
ATOM      3  C   UNL     1      35.887 -20.705 -19.495  0.00  0.00    +0.054 C 
ATOM      4  C   UNL     1      36.828 -20.920 -18.488  0.00  0.00    +0.005 C 
ATOM      5  C   UNL     1      34.306 -22.099 -18.317  0.00  0.00    +0.000 C 
ATOM      6  C   UNL     1      34.628 -21.294 -19.409  0.00  0.00    +0.005 C 
ATOM      7  C   UNL     1      34.934 -23.133 -16.186  0.00  0.00    +0.003 C 
ATOM      8  C   UNL     1      37.456 -21.954 -16.357  0.00  0.00    +0.000 C 
ATOM      9  C   UNL     1      35.875 -23.347 -15.178  0.00  0.00    +0.031 C 
ATOM     10  C   UNL     1      37.134 -22.759 -15.264  0.00  0.00    +0.003 C 
ENDROOT
BRANCH   9  13
ATOM     11  N   UNL     1      34.831 -23.682 -12.951  0.00  0.00    -0.343 N 
ATOM     12  N   UNL     1      35.919 -25.452 -14.019  0.00  0.00    -0.285 NA
ATOM     13  C   UNL     1      35.541 -24.186 -14.038  0.00  0.00    +0.117 C 
ATOM     14  H   UNL     1      34.615 -24.268 -12.189  0.00  0.00    +0.144 HD
ATOM     15  H   UNL     1      34.543 -22.740 -12.944  0.00  0.00    +0.144 HD
ATOM     16  H   UNL     1      35.694 -26.022 -13.249  0.00  0.00    +0.188 HD
ENDBRANCH   9  13
BRANCH   3  19
ATOM     17  O   UNL     1      37.411 -19.748 -20.969  0.00  0.00    -0.270 OA
ATOM     18  N   UNL     1      35.137 -19.269 -21.293  0.00  0.00    -0.280 N 
ATOM     19  C   UNL     1      36.221 -19.867 -20.636  0.00  0.00    +0.249 C 
ATOM     20  H   UNL     1      34.249 -19.456 -20.912  0.00  0.00    +0.155 HD
BRANCH  18  24
ATOM     21  C   UNL     1      35.219 -16.233 -23.390  0.00  0.00    +0.140 C 
ATOM     22  C   UNL     1      35.205 -17.058 -22.266  0.00  0.00    +0.052 C 
ATOM     23  C   UNL     1      35.180 -16.793 -24.667  0.00  0.00    +0.037 C 
ATOM     24  C   UNL     1      35.152 -18.431 -22.435  0.00  0.00    +0.054 C 
ATOM     25  C   UNL     1      35.126 -18.179 -24.819  0.00  0.00    +0.004 C 
ATOM     26  C   UNL     1      35.112 -19.004 -23.695  0.00  0.00    +0.015 C 
BRANCH  21  27
ATOM     27  O   UNL     1      35.271 -14.881 -23.242  0.00  0.00    -0.479 OA
BRANCH  27  28
ATOM     28  C   UNL     1      34.040 -14.208 -23.007  0.00  0.00    +0.166 C 
ATOM     29  C   UNL     1      33.259 -14.115 -24.309  0.00  0.00    +0.044 C 
ATOM     30  C   UNL     1      34.293 -12.751 -22.654  0.00  0.00    +0.044 C 
ATOM     31  C   UNL     1      33.896 -12.943 -25.056  0.00  0.00    +0.004 C 
ATOM     32  C   UNL     1      34.586 -12.085 -23.996  0.00  0.00    +0.004 C 
ENDBRANCH  27  28
ENDBRANCH  21  27
ENDBRANCH  18  24
ENDBRANCH   3  19
TORSDOF 5
ENDMDL
MODEL 5
REMARK VINA RESULT:     -11.3      3.220     10.617
REMARK  Name = 447734
REMARK  5 active torsions:
REMARK  status: ('A' for Active; 'I' for Inactive)
REMARK    1  A    between atoms: C_3  and  C_19
REMARK    2  A    between atoms: C_9  and  C_13
REMARK    3  A    between atoms: N_18  and  C_24
REMARK    4  A    between atoms: C_21  and  O_27
REMARK    5  A    between atoms: O_27  and  C_28
REMARK                            x       y       z     vdW  Elec       q    Type
REMARK                         _______ _______ _______ _____ _____    ______ ____
ROOT
ATOM      1  C   UNL     1      36.132 -21.674 -17.789  0.00  0.00    +0.000 C 
ATOM      2  C   UNL     1      35.144 -22.455 -17.143  0.00  0.00    +0.000 C 
ATOM      3  C   UNL     1      34.483 -20.965 -19.429  0.00  0.00    +0.054 C 
ATOM      4  C   UNL     1      35.785 -20.935 -18.931  0.00  0.00    +0.005 C 
ATOM      5  C   UNL     1      33.838 -22.474 -17.658  0.00  0.00    +0.000 C 
ATOM      6  C   UNL     1      33.511 -21.733 -18.793  0.00  0.00    +0.005 C 
ATOM      7  C   UNL     1      35.492 -23.195 -16.000  0.00  0.00    +0.003 C 
ATOM      8  C   UNL     1      37.439 -21.656 -17.273  0.00  0.00    +0.000 C 
ATOM      9  C   UNL     1      36.795 -23.165 -15.501  0.00  0.00    +0.031 C 
ATOM     10  C   UNL     1      37.766 -22.397 -16.137  0.00  0.00    +0.003 C 
ENDROOT
BRANCH   9  13
ATOM     11  N   UNL     1      36.203 -24.758 -13.691  0.00  0.00    -0.343 N 
ATOM     12  N   UNL     1      38.357 -23.860 -13.813  0.00  0.00    -0.285 NA
ATOM     13  C   UNL     1      37.138 -23.936 -14.317  0.00  0.00    +0.117 C 
ATOM     14  H   UNL     1      36.457 -25.272 -12.890  0.00  0.00    +0.144 HD
ATOM     15  H   UNL     1      35.288 -24.825 -14.050  0.00  0.00    +0.144 HD
ATOM     16  H   UNL     1      38.592 -24.382 -13.012  0.00  0.00    +0.188 HD
ENDBRANCH   9  13
BRANCH   3  19
ATOM     17  O   UNL     1      32.956 -20.165 -20.992  0.00  0.00    -0.270 OA
ATOM     18  N   UNL     1      35.198 -19.512 -21.228  0.00  0.00    -0.280 N 
ATOM     19  C   UNL     1      34.139 -20.194 -20.613  0.00  0.00    +0.249 C 
ATOM     20  H   UNL     1      36.082 -19.632 -20.813  0.00  0.00    +0.155 HD
BRANCH  18  24
ATOM     21  C   UNL     1      35.134 -16.473 -23.322  0.00  0.00    +0.140 C 
ATOM     22  C   UNL     1      35.171 -17.299 -22.199  0.00  0.00    +0.052 C 
ATOM     23  C   UNL     1      35.090 -17.034 -24.599  0.00  0.00    +0.037 C 
ATOM     24  C   UNL     1      35.163 -18.673 -22.369  0.00  0.00    +0.054 C 
ATOM     25  C   UNL     1      35.081 -18.421 -24.752  0.00  0.00    +0.004 C 
ATOM     26  C   UNL     1      35.118 -19.246 -23.629  0.00  0.00    +0.015 C 
BRANCH  21  27
ATOM     27  O   UNL     1      35.142 -15.121 -23.174  0.00  0.00    -0.479 OA
BRANCH  27  28
ATOM     28  C   UNL     1      33.880 -14.476 -23.054  0.00  0.00    +0.166 C 
ATOM     29  C   UNL     1      33.342 -14.155 -24.440  0.00  0.00    +0.044 C 
ATOM     30  C   UNL     1      34.045 -13.102 -22.424  0.00  0.00    +0.044 C 
ATOM     31  C   UNL     1      34.086 -12.886 -24.856  0.00  0.00    +0.004 C 
ATOM     32  C   UNL     1      34.565 -12.227 -23.562  0.00  0.00    +0.004 C 
ENDBRANCH  27  28
ENDBRANCH  21  27
ENDBRANCH  18  24
ENDBRANCH   3  19
TORSDOF 5
ENDMDL
MODEL 6
REMARK VINA RESULT:     -11.2      8.038     12.199
REMARK  Name = 447734
REMARK  5 active torsions:
REMARK  status: ('A' for Active; 'I' for Inactive)
REMARK    1  A    between atoms: C_3  and  C_19
REMARK    2  A    between atoms: C_9  and  C_13
REMARK    3  A    between atoms: N_18  and  C_24
REMARK    4  A    between atoms: C_21  and  O_27
REMARK    5  A    between atoms: O_27  and  C_28
REMARK                            x       y       z     vdW  Elec       q    Type
REMARK                         _______ _______ _______ _____ _____    ______ ____
ROOT
ATOM      1  C   UNL     1      32.264  -8.555 -22.586  0.00  0.00    +0.000 C 
ATOM      2  C   UNL     1      31.985  -8.071 -21.286  0.00  0.00    +0.000 C 
ATOM      3  C   UNL     1      32.431 -10.813 -21.697  0.00  0.00    +0.054 C 
ATOM      4  C   UNL     1      32.485  -9.929 -22.775  0.00  0.00    +0.005 C 
ATOM      5  C   UNL     1      31.934  -8.975 -20.213  0.00  0.00    +0.000 C 
ATOM      6  C   UNL     1      32.156 -10.337 -20.419  0.00  0.00    +0.005 C 
ATOM      7  C   UNL     1      31.764  -6.696 -21.098  0.00  0.00    +0.003 C 
ATOM      8  C   UNL     1      32.315  -7.650 -23.659  0.00  0.00    +0.000 C 
ATOM      9  C   UNL     1      31.817  -5.812 -22.175  0.00  0.00    +0.031 C 
ATOM     10  C   UNL     1      32.092  -6.288 -23.454  0.00  0.00    +0.003 C 
ENDROOT
BRANCH   9  13
ATOM     11  N   UNL     1      32.480  -3.433 -22.437  0.00  0.00    -0.343 N 
ATOM     12  N   UNL     1      30.513  -3.991 -21.305  0.00  0.00    -0.285 NA
ATOM     13  C   UNL     1      31.586  -4.392 -21.963  0.00  0.00    +0.117 C 
ATOM     14  H   UNL     1      32.303  -2.477 -22.283  0.00  0.00    +0.144 HD
ATOM     15  H   UNL     1      33.287  -3.713 -22.927  0.00  0.00    +0.144 HD
ATOM     16  H   UNL     1      30.355  -3.030 -21.160  0.00  0.00    +0.188 HD
ENDBRANCH   9  13
BRANCH   3  19
ATOM     17  O   UNL     1      32.090 -13.054 -21.174  0.00  0.00    -0.270 OA
ATOM     18  N   UNL     1      33.519 -12.561 -22.970  0.00  0.00    -0.280 N 
ATOM     19  C   UNL     1      32.663 -12.233 -21.909  0.00  0.00    +0.249 C 
ATOM     20  H   UNL     1      33.899 -11.800 -23.464  0.00  0.00    +0.155 HD
BRANCH  18  24
ATOM     21  C   UNL     1      35.040 -15.923 -23.039  0.00  0.00    +0.140 C 
ATOM     22  C   UNL     1      34.657 -14.659 -22.591  0.00  0.00    +0.052 C 
ATOM     23  C   UNL     1      34.667 -16.355 -24.312  0.00  0.00    +0.037 C 
ATOM     24  C   UNL     1      33.907 -13.846 -23.424  0.00  0.00    +0.054 C 
ATOM     25  C   UNL     1      33.912 -15.522 -25.137  0.00  0.00    +0.004 C 
ATOM     26  C   UNL     1      33.529 -14.259 -24.690  0.00  0.00    +0.015 C 
BRANCH  21  27
ATOM     27  O   UNL     1      35.778 -16.736 -22.234  0.00  0.00    -0.479 OA
BRANCH  27  28
ATOM     28  C   UNL     1      36.197 -17.980 -22.781  0.00  0.00    +0.166 C 
ATOM     29  C   UNL     1      35.262 -19.082 -22.306  0.00  0.00    +0.044 C 
ATOM     30  C   UNL     1      37.539 -18.391 -22.195  0.00  0.00    +0.044 C 
ATOM     31  C   UNL     1      35.741 -19.406 -20.890  0.00  0.00    +0.004 C 
ATOM     32  C   UNL     1      37.192 -18.933 -20.810  0.00  0.00    +0.004 C 
ENDBRANCH  27  28
ENDBRANCH  21  27
ENDBRANCH  18  24
ENDBRANCH   3  19
TORSDOF 5
ENDMDL
MODEL 7
REMARK VINA RESULT:     -11.2      8.263     12.812
REMARK  Name = 447734
REMARK  5 active torsions:
REMARK  status: ('A' for Active; 'I' for Inactive)
REMARK    1  A    between atoms: C_3  and  C_19
REMARK    2  A    between atoms: C_9  and  C_13
REMARK    3  A    between atoms: N_18  and  C_24
REMARK    4  A    between atoms: C_21  and  O_27
REMARK    5  A    between atoms: O_27  and  C_28
REMARK                            x       y       z     vdW  Elec       q    Type
REMARK                         _______ _______ _______ _____ _____    ______ ____
ROOT
ATOM      1  C   UNL     1      32.643  -8.247 -23.352  0.00  0.00    +0.000 C 
ATOM      2  C   UNL     1      33.695  -7.305 -23.263  0.00  0.00    +0.000 C 
ATOM      3  C   UNL     1      34.214  -9.902 -24.196  0.00  0.00    +0.054 C 
ATOM      4  C   UNL     1      32.920  -9.542 -23.821  0.00  0.00    +0.005 C 
ATOM      5  C   UNL     1      34.992  -7.684 -23.645  0.00  0.00    +0.000 C 
ATOM      6  C   UNL     1      35.248  -8.975 -24.108  0.00  0.00    +0.005 C 
ATOM      7  C   UNL     1      33.419  -6.009 -22.794  0.00  0.00    +0.003 C 
ATOM      8  C   UNL     1      31.346  -7.867 -22.970  0.00  0.00    +0.000 C 
ATOM      9  C   UNL     1      32.124  -5.649 -22.419  0.00  0.00    +0.031 C 
ATOM     10  C   UNL     1      31.090  -6.576 -22.506  0.00  0.00    +0.003 C 
ENDROOT
BRANCH   9  13
ATOM     11  N   UNL     1      32.577  -3.208 -22.404  0.00  0.00    -0.343 N 
ATOM     12  N   UNL     1      30.914  -4.106 -21.030  0.00  0.00    -0.285 NA
ATOM     13  C   UNL     1      31.855  -4.304 -21.936  0.00  0.00    +0.117 C 
ATOM     14  H   UNL     1      32.378  -2.305 -22.064  0.00  0.00    +0.144 HD
ATOM     15  H   UNL     1      33.285  -3.335 -23.076  0.00  0.00    +0.144 HD
ATOM     16  H   UNL     1      30.729  -3.196 -20.702  0.00  0.00    +0.188 HD
ENDBRANCH   9  13
BRANCH   3  19
ATOM     17  O   UNL     1      35.147 -11.392 -25.719  0.00  0.00    -0.270 OA
ATOM     18  N   UNL     1      33.976 -12.292 -23.895  0.00  0.00    -0.280 N 
ATOM     19  C   UNL     1      34.483 -11.247 -24.680  0.00  0.00    +0.249 C 
ATOM     20  H   UNL     1      33.468 -12.021 -23.098  0.00  0.00    +0.155 HD
BRANCH  18  24
ATOM     21  C   UNL     1      34.997 -15.809 -23.432  0.00  0.00    +0.140 C 
ATOM     22  C   UNL     1      34.874 -14.435 -23.228  0.00  0.00    +0.052 C 
ATOM     23  C   UNL     1      34.344 -16.416 -24.505  0.00  0.00    +0.037 C 
ATOM     24  C   UNL     1      34.100 -13.688 -24.101  0.00  0.00    +0.054 C 
ATOM     25  C   UNL     1      33.569 -15.649 -25.374  0.00  0.00    +0.004 C 
ATOM     26  C   UNL     1      33.446 -14.275 -25.171  0.00  0.00    +0.015 C 
BRANCH  21  27
ATOM     27  O   UNL     1      35.754 -16.558 -22.585  0.00  0.00    -0.479 OA
BRANCH  27  28
ATOM     28  C   UNL     1      36.114 -17.863 -23.021  0.00  0.00    +0.166 C 
ATOM     29  C   UNL     1      35.065 -18.860 -22.553  0.00  0.00    +0.044 C 
ATOM     30  C   UNL     1      37.374 -18.330 -22.309  0.00  0.00    +0.044 C 
ATOM     31  C   UNL     1      35.413 -19.123 -21.087  0.00  0.00    +0.004 C 
ATOM     32  C   UNL     1      36.887 -18.752 -20.924  0.00  0.00    +0.004 C 
ENDBRANCH  27  28
ENDBRANCH  21  27
ENDBRANCH  18  24
ENDBRANCH   3  19
TORSDOF 5
ENDMDL
MODEL 8
REMARK VINA RESULT:     -11.0      3.980      5.999
REMARK  Name = 447734
REMARK  5 active torsions:
REMARK  status: ('A' for Active; 'I' for Inactive)
REMARK    1  A    between atoms: C_3  and  C_19
REMARK    2  A    between atoms: C_9  and  C_13
REMARK    3  A    between atoms: N_18  and  C_24
REMARK    4  A    between atoms: C_21  and  O_27
REMARK    5  A    between atoms: O_27  and  C_28
REMARK                            x       y       z     vdW  Elec       q    Type
REMARK                         _______ _______ _______ _____ _____    ______ ____
ROOT
ATOM      1  C   UNL     1      34.902 -15.847 -22.703  0.00  0.00    +0.000 C 
ATOM      2  C   UNL     1      34.585 -16.294 -24.007  0.00  0.00    +0.000 C 
ATOM      3  C   UNL     1      35.269 -18.150 -22.014  0.00  0.00    +0.054 C 
ATOM      4  C   UNL     1      35.241 -16.788 -21.718  0.00  0.00    +0.005 C 
ATOM      5  C   UNL     1      34.617 -17.670 -24.289  0.00  0.00    +0.000 C 
ATOM      6  C   UNL     1      34.957 -18.591 -23.297  0.00  0.00    +0.005 C 
ATOM      7  C   UNL     1      34.245 -15.352 -24.993  0.00  0.00    +0.003 C 
ATOM      8  C   UNL     1      34.869 -14.471 -22.422  0.00  0.00    +0.000 C 
ATOM      9  C   UNL     1      34.219 -13.990 -24.697  0.00  0.00    +0.031 C 
ATOM     10  C   UNL     1      34.530 -13.549 -23.414  0.00  0.00    +0.003 C 
ENDROOT
BRANCH   9  13
ATOM     11  N   UNL     1      33.996 -11.657 -25.517  0.00  0.00    -0.343 N 
ATOM     12  N   UNL     1      33.403 -13.451 -26.892  0.00  0.00    -0.285 NA
ATOM     13  C   UNL     1      33.865 -13.028 -25.729  0.00  0.00    +0.117 C 
ATOM     14  H   UNL     1      33.751 -11.023 -26.230  0.00  0.00    +0.144 HD
ATOM     15  H   UNL     1      34.335 -11.322 -24.656  0.00  0.00    +0.144 HD
ATOM     16  H   UNL     1      33.164 -12.801 -27.593  0.00  0.00    +0.188 HD
ENDBRANCH   9  13
BRANCH   3  19
ATOM     17  O   UNL     1      36.806 -19.201 -20.619  0.00  0.00    -0.270 OA
ATOM     18  N   UNL     1      34.560 -19.861 -20.454  0.00  0.00    -0.280 N 
ATOM     19  C   UNL     1      35.621 -19.112 -20.982  0.00  0.00    +0.249 C 
ATOM     20  H   UNL     1      33.675 -19.680 -20.844  0.00  0.00    +0.155 HD
BRANCH  18  24
ATOM     21  C   UNL     1      33.444 -22.377 -17.995  0.00  0.00    +0.140 C 
ATOM     22  C   UNL     1      33.409 -21.411 -19.000  0.00  0.00    +0.052 C 
ATOM     23  C   UNL     1      34.665 -22.760 -17.439  0.00  0.00    +0.037 C 
ATOM     24  C   UNL     1      34.595 -20.843 -19.434  0.00  0.00    +0.054 C 
ATOM     25  C   UNL     1      35.850 -22.177 -17.887  0.00  0.00    +0.004 C 
ATOM     26  C   UNL     1      35.815 -21.211 -18.892  0.00  0.00    +0.015 C 
BRANCH  21  27
ATOM     27  O   UNL     1      32.289 -22.946 -17.557  0.00  0.00    -0.479 OA
BRANCH  27  28
ATOM     28  C   UNL     1      31.606 -22.289 -16.497  0.00  0.00    +0.166 C 
ATOM     29  C   UNL     1      32.184 -22.743 -15.165  0.00  0.00    +0.044 C 
ATOM     30  C   UNL     1      30.162 -22.761 -16.424  0.00  0.00    +0.044 C 
ATOM     31  C   UNL     1      31.529 -24.100 -14.906  0.00  0.00    +0.004 C 
ATOM     32  C   UNL     1      30.248 -24.123 -15.739  0.00  0.00    +0.004 C 
ENDBRANCH  27  28
ENDBRANCH  21  27
ENDBRANCH  18  24
ENDBRANCH   3  19
TORSDOF 5
ENDMDL
MODEL 9
REMARK VINA RESULT:     -11.0      1.964      3.889
REMARK  Name = 447734
REMARK  5 active torsions:
REMARK  status: ('A' for Active; 'I' for Inactive)
REMARK    1  A    between atoms: C_3  and  C_19
REMARK    2  A    between atoms: C_9  and  C_13
REMARK    3  A    between atoms: N_18  and  C_24
REMARK    4  A    between atoms: C_21  and  O_27
REMARK    5  A    between atoms: O_27  and  C_28
REMARK                            x       y       z     vdW  Elec       q    Type
REMARK                         _______ _______ _______ _____ _____    ______ ____
ROOT
ATOM      1  C   UNL     1      35.720 -19.787 -20.877  0.00  0.00    +0.000 C 
ATOM      2  C   UNL     1      34.463 -19.397 -21.396  0.00  0.00    +0.000 C 
ATOM      3  C   UNL     1      34.605 -21.326 -19.360  0.00  0.00    +0.054 C 
ATOM      4  C   UNL     1      35.774 -20.753 -19.859  0.00  0.00    +0.005 C 
ATOM      5  C   UNL     1      33.296 -19.984 -20.881  0.00  0.00    +0.000 C 
ATOM      6  C   UNL     1      33.368 -20.943 -19.870  0.00  0.00    +0.005 C 
ATOM      7  C   UNL     1      34.409 -18.431 -22.414  0.00  0.00    +0.003 C 
ATOM      8  C   UNL     1      36.888 -19.199 -21.392  0.00  0.00    +0.000 C 
ATOM      9  C   UNL     1      35.579 -17.858 -22.914  0.00  0.00    +0.031 C 
ATOM     10  C   UNL     1      36.816 -18.241 -22.404  0.00  0.00    +0.003 C 
ENDROOT
BRANCH   9  13
ATOM     11  N   UNL     1      35.880 -15.536 -23.740  0.00  0.00    -0.343 N 
ATOM     12  N   UNL     1      35.073 -17.199 -25.169  0.00  0.00    -0.285 NA
ATOM     13  C   UNL     1      35.506 -16.859 -23.969  0.00  0.00    +0.117 C 
ATOM     14  H   UNL     1      35.823 -14.875 -24.469  0.00  0.00    +0.144 HD
ATOM     15  H   UNL     1      36.202 -15.261 -22.851  0.00  0.00    +0.144 HD
ATOM     16  H   UNL     1      35.024 -16.525 -25.885  0.00  0.00    +0.188 HD
ENDBRANCH   9  13
BRANCH   3  19
ATOM     17  O   UNL     1      34.188 -23.449 -18.503  0.00  0.00    -0.270 OA
ATOM     18  N   UNL     1      35.333 -21.928 -17.131  0.00  0.00    -0.280 N 
ATOM     19  C   UNL     1      34.677 -22.325 -18.305  0.00  0.00    +0.249 C 
ATOM     20  H   UNL     1      35.669 -21.003 -17.121  0.00  0.00    +0.155 HD
BRANCH  18  24
ATOM     21  C   UNL     1      34.744 -23.818 -14.016  0.00  0.00    +0.140 C 
ATOM     22  C   UNL     1      34.505 -23.074 -15.171  0.00  0.00    +0.052 C 
ATOM     23  C   UNL     1      36.050 -24.160 -13.665  0.00  0.00    +0.037 C 
ATOM     24  C   UNL     1      35.576 -22.684 -15.958  0.00  0.00    +0.054 C 
ATOM     25  C   UNL     1      37.116 -23.759 -14.469  0.00  0.00    +0.004 C 
ATOM     26  C   UNL     1      36.878 -23.016 -15.624  0.00  0.00    +0.015 C 
BRANCH  21  27
ATOM     27  O   UNL     1      33.704 -24.209 -13.231  0.00  0.00    -0.479 OA
BRANCH  27  28
ATOM     28  C   UNL     1      32.614 -24.856 -13.877  0.00  0.00    +0.166 C 
ATOM     29  C   UNL     1      32.009 -23.918 -14.910  0.00  0.00    +0.044 C 
ATOM     30  C   UNL     1      31.470 -25.072 -12.898  0.00  0.00    +0.044 C 
ATOM     31  C   UNL     1      31.123 -22.974 -14.098  0.00  0.00    +0.004 C 
ATOM     32  C   UNL     1      30.804 -23.702 -12.793  0.00  0.00    +0.004 C 
ENDBRANCH  27  28
ENDBRANCH  21  27
ENDBRANCH  18  24
ENDBRANCH   3  19
TORSDOF 5
ENDMDL
