MODEL 1
REMARK VINA RESULT:     -11.9      0.000      0.000
REMARK  Name = 23729147
REMARK  5 active torsions:
REMARK  status: ('A' for Active; 'I' for Inactive)
REMARK    1  A    between atoms: O_1  and  C_6
REMARK    2  A    between atoms: O_1  and  C_18
REMARK    3  A    between atoms: C_18  and  C_20
REMARK    4  A    between atoms: N_19  and  C_26
REMARK    5  A    between atoms: C_26  and  C_28
REMARK                            x       y       z     vdW  Elec       q    Type
REMARK                         _______ _______ _______ _____ _____    ______ ____
ROOT
ATOM      1  O   UNL     1      34.573 -13.056 -23.370  0.00  0.00    -0.479 OA
ENDROOT
BRANCH   1   6
ATOM      2  N   UNL     1      31.947  -9.118 -22.332  0.00  0.00    -0.332 NA
ATOM      3  N   UNL     1      33.614  -8.957 -24.065  0.00  0.00    -0.317 NA
ATOM      4  N   UNL     1      34.937 -10.787 -24.650  0.00  0.00    -0.335 N 
ATOM      5  N   UNL     1      32.294  -7.108 -23.490  0.00  0.00    -0.283 N 
ATOM      6  C   UNL     1      33.599 -12.389 -22.667  0.00  0.00    +0.130 C 
ATOM      7  C   UNL     1      33.273 -11.039 -22.884  0.00  0.00    +0.177 C 
ATOM      8  C   UNL     1      32.923 -13.121 -21.696  0.00  0.00    +0.033 C 
ATOM      9  C   UNL     1      32.268 -10.409 -22.132  0.00  0.00    +0.137 C 
ATOM     10  C   UNL     1      33.910 -10.251 -23.839  0.00  0.00    +0.181 C 
ATOM     11  C   UNL     1      31.927 -12.508 -20.946  0.00  0.00    +0.005 C 
ATOM     12  C   UNL     1      31.607 -11.165 -21.168  0.00  0.00    +0.030 C 
ATOM     13  C   UNL     1      32.637  -8.463 -23.287  0.00  0.00    +0.197 C 
ATOM     14  H   UNL     1      35.380 -10.220 -25.322  0.00  0.00    +0.144 HD
ATOM     15  H   UNL     1      35.209 -11.727 -24.544  0.00  0.00    +0.144 HD
ATOM     16  H   UNL     1      31.586  -6.693 -22.948  0.00  0.00    +0.156 HD
ATOM     17  H   UNL     1      32.764  -6.579 -24.175  0.00  0.00    +0.156 HD
ENDBRANCH   1   6
BRANCH   1  18
ATOM     18  C   UNL     1      34.187 -14.251 -24.024  0.00  0.00    +0.205 C 
BRANCH  18  20
ATOM     19  N   UNL     1      35.302 -17.984 -22.158  0.00  0.00    +0.390 N 
ATOM     20  C   UNL     1      35.059 -15.391 -23.504  0.00  0.00    +0.040 C 
ATOM     21  C   UNL     1      34.708 -16.713 -24.194  0.00  0.00    -0.019 C 
ATOM     22  C   UNL     1      34.916 -15.546 -21.987  0.00  0.00    -0.019 C 
ATOM     23  C   UNL     1      35.507 -17.878 -23.608  0.00  0.00    -0.077 C 
ATOM     24  C   UNL     1      35.709 -16.750 -21.473  0.00  0.00    -0.077 C 
ATOM     25  H   UNL     1      34.306 -18.122 -21.990  0.00  0.00    -0.079 HD
BRANCH  19  26
ATOM     26  C   UNL     1      36.032 -19.132 -21.620  0.00  0.00    -0.048 C 
BRANCH  26  28
ATOM     27  F   UNL     1      37.080 -21.067 -19.833  0.00  0.00    -0.205 F 
ATOM     28  C   UNL     1      35.167 -19.975 -20.721  0.00  0.00    -0.016 C 
ATOM     29  C   UNL     1      35.750 -20.910 -19.865  0.00  0.00    +0.134 C 
ATOM     30  C   UNL     1      33.782 -19.820 -20.746  0.00  0.00    -0.004 C 
ATOM     31  C   UNL     1      34.945 -21.690 -19.033  0.00  0.00    +0.029 C 
ATOM     32  C   UNL     1      32.977 -20.599 -19.914  0.00  0.00    -0.000 C 
ATOM     33  C   UNL     1      33.559 -21.535 -19.059  0.00  0.00    +0.002 C 
ENDBRANCH  26  28
ENDBRANCH  19  26
ENDBRANCH  18  20
ENDBRANCH   1  18
TORSDOF 5
ENDMDL
MODEL 2
REMARK VINA RESULT:     -11.7      4.667     10.445
REMARK  Name = 23729147
REMARK  5 active torsions:
REMARK  status: ('A' for Active; 'I' for Inactive)
REMARK    1  A    between atoms: O_1  and  C_6
REMARK    2  A    between atoms: O_1  and  C_18
REMARK    3  A    between atoms: C_18  and  C_20
REMARK    4  A    between atoms: N_19  and  C_26
REMARK    5  A    between atoms: C_26  and  C_28
REMARK                            x       y       z     vdW  Elec       q    Type
REMARK                         _______ _______ _______ _____ _____    ______ ____
ROOT
ATOM      1  O   UNL     1      35.683 -21.556 -19.162  0.00  0.00    -0.479 OA
ENDROOT
BRANCH   1   6
ATOM      2  N   UNL     1      33.299 -23.261 -15.302  0.00  0.00    -0.332 NA
ATOM      3  N   UNL     1      32.066 -22.899 -17.341  0.00  0.00    -0.317 NA
ATOM      4  N   UNL     1      33.107 -22.082 -19.262  0.00  0.00    -0.335 N 
ATOM      5  N   UNL     1      31.002 -23.720 -15.422  0.00  0.00    -0.283 N 
ATOM      6  C   UNL     1      35.617 -21.975 -17.855  0.00  0.00    +0.130 C 
ATOM      7  C   UNL     1      34.433 -22.419 -17.241  0.00  0.00    +0.177 C 
ATOM      8  C   UNL     1      36.805 -21.942 -17.132  0.00  0.00    +0.033 C 
ATOM      9  C   UNL     1      34.426 -22.834 -15.899  0.00  0.00    +0.137 C 
ATOM     10  C   UNL     1      33.212 -22.477 -17.908  0.00  0.00    +0.181 C 
ATOM     11  C   UNL     1      36.811 -22.350 -15.803  0.00  0.00    +0.005 C 
ATOM     12  C   UNL     1      35.629 -22.791 -15.200  0.00  0.00    +0.030 C 
ATOM     13  C   UNL     1      32.180 -23.270 -16.056  0.00  0.00    +0.197 C 
ATOM     14  H   UNL     1      32.238 -22.128 -19.722  0.00  0.00    +0.144 HD
ATOM     15  H   UNL     1      33.903 -21.762 -19.744  0.00  0.00    +0.144 HD
ATOM     16  H   UNL     1      31.027 -24.005 -14.481  0.00  0.00    +0.156 HD
ATOM     17  H   UNL     1      30.154 -23.750 -15.923  0.00  0.00    +0.156 HD
ENDBRANCH   1   6
BRANCH   1  18
ATOM     18  C   UNL     1      36.643 -20.563 -19.469  0.00  0.00    +0.205 C 
BRANCH  18  20
ATOM     19  N   UNL     1      35.400 -17.788 -22.538  0.00  0.00    +0.390 N 
ATOM     20  C   UNL     1      36.332 -20.000 -20.853  0.00  0.00    +0.040 C 
ATOM     21  C   UNL     1      37.201 -18.776 -21.159  0.00  0.00    -0.019 C 
ATOM     22  C   UNL     1      34.851 -19.626 -20.975  0.00  0.00    -0.019 C 
ATOM     23  C   UNL     1      36.825 -18.146 -22.502  0.00  0.00    -0.077 C 
ATOM     24  C   UNL     1      34.552 -18.968 -22.324  0.00  0.00    -0.077 C 
ATOM     25  H   UNL     1      35.222 -17.131 -21.780  0.00  0.00    -0.079 HD
BRANCH  19  26
ATOM     26  C   UNL     1      35.068 -17.142 -23.808  0.00  0.00    -0.048 C 
BRANCH  26  28
ATOM     27  F   UNL     1      33.477 -15.728 -25.680  0.00  0.00    -0.205 F 
ATOM     28  C   UNL     1      34.645 -15.710 -23.613  0.00  0.00    -0.016 C 
ATOM     29  C   UNL     1      33.861 -15.074 -24.576  0.00  0.00    +0.134 C 
ATOM     30  C   UNL     1      35.040 -15.019 -22.468  0.00  0.00    -0.004 C 
ATOM     31  C   UNL     1      33.473 -13.746 -24.393  0.00  0.00    +0.029 C 
ATOM     32  C   UNL     1      34.652 -13.692 -22.285  0.00  0.00    -0.000 C 
ATOM     33  C   UNL     1      33.869 -13.055 -23.248  0.00  0.00    +0.002 C 
ENDBRANCH  26  28
ENDBRANCH  19  26
ENDBRANCH  18  20
ENDBRANCH   1  18
TORSDOF 5
ENDMDL
MODEL 3
REMARK VINA RESULT:     -11.7      1.273      2.217
REMARK  Name = 23729147
REMARK  5 active torsions:
REMARK  status: ('A' for Active; 'I' for Inactive)
REMARK    1  A    between atoms: O_1  and  C_6
REMARK    2  A    between atoms: O_1  and  C_18
REMARK    3  A    between atoms: C_18  and  C_20
REMARK    4  A    between atoms: N_19  and  C_26
REMARK    5  A    between atoms: C_26  and  C_28
REMARK                            x       y       z     vdW  Elec       q    Type
REMARK                         _______ _______ _______ _____ _____    ______ ____
ROOT
ATOM      1  O   UNL     1      33.550 -13.786 -23.327  0.00  0.00    -0.479 OA
ENDROOT
BRANCH   1   6
ATOM      2  N   UNL     1      32.541  -9.250 -21.950  0.00  0.00    -0.332 NA
ATOM      3  N   UNL     1      31.858 -11.061 -20.513  0.00  0.00    -0.317 NA
ATOM      4  N   UNL     1      32.289 -13.284 -21.073  0.00  0.00    -0.335 N 
ATOM      5  N   UNL     1      31.416  -8.834 -19.935  0.00  0.00    -0.283 N 
ATOM      6  C   UNL     1      33.571 -12.423 -23.503  0.00  0.00    +0.130 C 
ATOM      7  C   UNL     1      33.017 -11.514 -22.586  0.00  0.00    +0.177 C 
ATOM      8  C   UNL     1      34.180 -11.957 -24.664  0.00  0.00    +0.033 C 
ATOM      9  C   UNL     1      33.068 -10.130 -22.821  0.00  0.00    +0.137 C 
ATOM     10  C   UNL     1      32.395 -11.913 -21.406  0.00  0.00    +0.181 C 
ATOM     11  C   UNL     1      34.235 -10.590 -24.908  0.00  0.00    +0.005 C 
ATOM     12  C   UNL     1      33.683  -9.691 -23.990  0.00  0.00    +0.030 C 
ATOM     13  C   UNL     1      31.966  -9.764 -20.844  0.00  0.00    +0.197 C 
ATOM     14  H   UNL     1      31.847 -13.554 -20.236  0.00  0.00    +0.144 HD
ATOM     15  H   UNL     1      32.659 -13.968 -21.677  0.00  0.00    +0.144 HD
ATOM     16  H   UNL     1      31.466  -7.870 -20.126  0.00  0.00    +0.156 HD
ATOM     17  H   UNL     1      30.984  -9.150 -19.108  0.00  0.00    +0.156 HD
ENDBRANCH   1   6
BRANCH   1  18
ATOM     18  C   UNL     1      34.091 -14.576 -24.369  0.00  0.00    +0.205 C 
BRANCH  18  20
ATOM     19  N   UNL     1      35.311 -18.058 -22.122  0.00  0.00    +0.390 N 
ATOM     20  C   UNL     1      34.993 -15.641 -23.751  0.00  0.00    +0.040 C 
ATOM     21  C   UNL     1      34.634 -17.037 -24.271  0.00  0.00    -0.019 C 
ATOM     22  C   UNL     1      34.903 -15.620 -22.222  0.00  0.00    -0.019 C 
ATOM     23  C   UNL     1      35.466 -18.120 -23.582  0.00  0.00    -0.077 C 
ATOM     24  C   UNL     1      35.727 -16.750 -21.600  0.00  0.00    -0.077 C 
ATOM     25  H   UNL     1      34.323 -18.183 -21.905  0.00  0.00    -0.079 HD
BRANCH  19  26
ATOM     26  C   UNL     1      36.072 -19.130 -21.481  0.00  0.00    -0.048 C 
BRANCH  26  28
ATOM     27  F   UNL     1      37.093 -21.133 -19.754  0.00  0.00    -0.205 F 
ATOM     28  C   UNL     1      35.194 -20.009 -20.630  0.00  0.00    -0.016 C 
ATOM     29  C   UNL     1      35.763 -20.976 -19.801  0.00  0.00    +0.134 C 
ATOM     30  C   UNL     1      33.809 -19.855 -20.673  0.00  0.00    -0.004 C 
ATOM     31  C   UNL     1      34.946 -21.790 -19.015  0.00  0.00    +0.029 C 
ATOM     32  C   UNL     1      32.992 -20.667 -19.886  0.00  0.00    -0.000 C 
ATOM     33  C   UNL     1      33.561 -21.635 -19.058  0.00  0.00    +0.002 C 
ENDBRANCH  26  28
ENDBRANCH  19  26
ENDBRANCH  18  20
ENDBRANCH   1  18
TORSDOF 5
ENDMDL
MODEL 4
REMARK VINA RESULT:     -11.7      5.812     11.523
REMARK  Name = 23729147
REMARK  5 active torsions:
REMARK  status: ('A' for Active; 'I' for Inactive)
REMARK    1  A    between atoms: O_1  and  C_6
REMARK    2  A    between atoms: O_1  and  C_18
REMARK    3  A    between atoms: C_18  and  C_20
REMARK    4  A    between atoms: N_19  and  C_26
REMARK    5  A    between atoms: C_26  and  C_28
REMARK                            x       y       z     vdW  Elec       q    Type
REMARK                         _______ _______ _______ _____ _____    ______ ____
ROOT
ATOM      1  O   UNL     1      33.957 -22.697 -17.121  0.00  0.00    -0.479 OA
ENDROOT
BRANCH   1   6
ATOM      2  N   UNL     1      33.865 -24.064 -12.472  0.00  0.00    -0.332 NA
ATOM      3  N   UNL     1      36.006 -23.661 -13.504  0.00  0.00    -0.317 NA
ATOM      4  N   UNL     1      36.173 -22.999 -15.734  0.00  0.00    -0.335 N 
ATOM      5  N   UNL     1      35.857 -24.326 -11.262  0.00  0.00    -0.283 N 
ATOM      6  C   UNL     1      33.304 -23.064 -15.969  0.00  0.00    +0.130 C 
ATOM      7  C   UNL     1      33.965 -23.385 -14.771  0.00  0.00    +0.177 C 
ATOM      8  C   UNL     1      31.915 -23.110 -16.031  0.00  0.00    +0.033 C 
ATOM      9  C   UNL     1      33.243 -23.756 -13.624  0.00  0.00    +0.137 C 
ATOM     10  C   UNL     1      35.351 -23.358 -14.641  0.00  0.00    +0.181 C 
ATOM     11  C   UNL     1      31.190 -23.476 -14.903  0.00  0.00    +0.005 C 
ATOM     12  C   UNL     1      31.855 -23.793 -13.715  0.00  0.00    +0.030 C 
ATOM     13  C   UNL     1      35.212 -24.000 -12.475  0.00  0.00    +0.197 C 
ATOM     14  H   UNL     1      37.152 -22.983 -15.630  0.00  0.00    +0.144 HD
ATOM     15  H   UNL     1      35.767 -22.763 -16.600  0.00  0.00    +0.144 HD
ATOM     16  H   UNL     1      35.326 -24.582 -10.475  0.00  0.00    +0.156 HD
ATOM     17  H   UNL     1      36.840 -24.296 -11.204  0.00  0.00    +0.156 HD
ENDBRANCH   1   6
BRANCH   1  18
ATOM     18  C   UNL     1      33.160 -22.208 -18.183  0.00  0.00    +0.205 C 
BRANCH  18  20
ATOM     19  N   UNL     1      35.775 -19.617 -20.442  0.00  0.00    +0.390 N 
ATOM     20  C   UNL     1      34.082 -21.718 -19.296  0.00  0.00    +0.040 C 
ATOM     21  C   UNL     1      35.480 -21.401 -18.755  0.00  0.00    -0.019 C 
ATOM     22  C   UNL     1      33.502 -20.479 -19.986  0.00  0.00    -0.019 C 
ATOM     23  C   UNL     1      36.380 -20.815 -19.844  0.00  0.00    -0.077 C 
ATOM     24  C   UNL     1      34.467 -19.923 -21.036  0.00  0.00    -0.077 C 
ATOM     25  H   UNL     1      35.631 -18.933 -19.700  0.00  0.00    -0.079 HD
BRANCH  19  26
ATOM     26  C   UNL     1      36.670 -19.039 -21.445  0.00  0.00    -0.048 C 
BRANCH  26  28
ATOM     27  F   UNL     1      35.694 -19.603 -24.047  0.00  0.00    -0.205 F 
ATOM     28  C   UNL     1      35.968 -18.017 -22.300  0.00  0.00    -0.016 C 
ATOM     29  C   UNL     1      35.513 -18.362 -23.573  0.00  0.00    +0.134 C 
ATOM     30  C   UNL     1      35.775 -16.724 -21.817  0.00  0.00    -0.004 C 
ATOM     31  C   UNL     1      34.865 -17.412 -24.363  0.00  0.00    +0.029 C 
ATOM     32  C   UNL     1      35.126 -15.774 -22.606  0.00  0.00    -0.000 C 
ATOM     33  C   UNL     1      34.672 -16.118 -23.879  0.00  0.00    +0.002 C 
ENDBRANCH  26  28
ENDBRANCH  19  26
ENDBRANCH  18  20
ENDBRANCH   1  18
TORSDOF 5
ENDMDL
MODEL 5
REMARK VINA RESULT:     -11.6      4.926     10.738
REMARK  Name = 23729147
REMARK  5 active torsions:
REMARK  status: ('A' for Active; 'I' for Inactive)
REMARK    1  A    between atoms: O_1  and  C_6
REMARK    2  A    between atoms: O_1  and  C_18
REMARK    3  A    between atoms: C_18  and  C_20
REMARK    4  A    between atoms: N_19  and  C_26
REMARK    5  A    between atoms: C_26  and  C_28
REMARK                            x       y       z     vdW  Elec       q    Type
REMARK                         _______ _______ _______ _____ _____    ______ ____
ROOT
ATOM      1  O   UNL     1      35.310 -21.878 -18.308  0.00  0.00    -0.479 OA
ENDROOT
BRANCH   1   6
ATOM      2  N   UNL     1      32.725 -23.618 -14.596  0.00  0.00    -0.332 NA
ATOM      3  N   UNL     1      31.558 -22.998 -16.611  0.00  0.00    -0.317 NA
ATOM      4  N   UNL     1      32.697 -22.149 -18.461  0.00  0.00    -0.335 N 
ATOM      5  N   UNL     1      30.397 -23.848 -14.762  0.00  0.00    -0.283 N 
ATOM      6  C   UNL     1      35.187 -22.380 -17.035  0.00  0.00    +0.130 C 
ATOM      7  C   UNL     1      33.959 -22.752 -16.462  0.00  0.00    +0.177 C 
ATOM      8  C   UNL     1      36.364 -22.510 -16.304  0.00  0.00    +0.033 C 
ATOM      9  C   UNL     1      33.895 -23.258 -15.153  0.00  0.00    +0.137 C 
ATOM     10  C   UNL     1      32.746 -22.647 -17.139  0.00  0.00    +0.181 C 
ATOM     11  C   UNL     1      36.313 -23.009 -15.007  0.00  0.00    +0.005 C 
ATOM     12  C   UNL     1      35.088 -23.378 -14.445  0.00  0.00    +0.030 C 
ATOM     13  C   UNL     1      31.621 -23.468 -15.355  0.00  0.00    +0.197 C 
ATOM     14  H   UNL     1      31.834 -22.080 -18.929  0.00  0.00    +0.144 HD
ATOM     15  H   UNL     1      33.526 -21.873 -18.915  0.00  0.00    +0.144 HD
ATOM     16  H   UNL     1      30.383 -24.199 -13.843  0.00  0.00    +0.156 HD
ATOM     17  H   UNL     1      29.557 -23.762 -15.269  0.00  0.00    +0.156 HD
ENDBRANCH   1   6
BRANCH   1  18
ATOM     18  C   UNL     1      36.551 -21.292 -18.650  0.00  0.00    +0.205 C 
BRANCH  18  20
ATOM     19  N   UNL     1      35.744 -18.264 -21.624  0.00  0.00    +0.390 N 
ATOM     20  C   UNL     1      36.412 -20.622 -20.015  0.00  0.00    +0.040 C 
ATOM     21  C   UNL     1      37.349 -19.416 -20.136  0.00  0.00    -0.019 C 
ATOM     22  C   UNL     1      34.967 -20.181 -20.266  0.00  0.00    -0.019 C 
ATOM     23  C   UNL     1      37.143 -18.681 -21.461  0.00  0.00    -0.077 C 
ATOM     24  C   UNL     1      34.839 -19.420 -21.588  0.00  0.00    -0.077 C 
ATOM     25  H   UNL     1      35.504 -17.654 -20.842  0.00  0.00    -0.079 HD
BRANCH  19  26
ATOM     26  C   UNL     1      35.574 -17.519 -22.871  0.00  0.00    -0.048 C 
BRANCH  26  28
ATOM     27  F   UNL     1      35.182 -15.630 -24.948  0.00  0.00    -0.205 F 
ATOM     28  C   UNL     1      35.171 -16.090 -22.618  0.00  0.00    -0.016 C 
ATOM     29  C   UNL     1      34.996 -15.212 -23.689  0.00  0.00    +0.134 C 
ATOM     30  C   UNL     1      34.975 -15.644 -21.312  0.00  0.00    -0.004 C 
ATOM     31  C   UNL     1      34.624 -13.888 -23.451  0.00  0.00    +0.029 C 
ATOM     32  C   UNL     1      34.602 -14.321 -21.075  0.00  0.00    -0.000 C 
ATOM     33  C   UNL     1      34.427 -13.443 -22.144  0.00  0.00    +0.002 C 
ENDBRANCH  26  28
ENDBRANCH  19  26
ENDBRANCH  18  20
ENDBRANCH   1  18
TORSDOF 5
ENDMDL
MODEL 6
REMARK VINA RESULT:     -11.4      3.050      5.022
REMARK  Name = 23729147
REMARK  5 active torsions:
REMARK  status: ('A' for Active; 'I' for Inactive)
REMARK    1  A    between atoms: O_1  and  C_6
REMARK    2  A    between atoms: O_1  and  C_18
REMARK    3  A    between atoms: C_18  and  C_20
REMARK    4  A    between atoms: N_19  and  C_26
REMARK    5  A    between atoms: C_26  and  C_28
REMARK                            x       y       z     vdW  Elec       q    Type
REMARK                         _______ _______ _______ _____ _____    ______ ____
ROOT
ATOM      1  O   UNL     1      35.482 -17.663 -22.353  0.00  0.00    -0.479 OA
ENDROOT
BRANCH   1   6
ATOM      2  N   UNL     1      33.707 -13.495 -24.075  0.00  0.00    -0.332 NA
ATOM      3  N   UNL     1      34.049 -15.317 -25.616  0.00  0.00    -0.317 NA
ATOM      4  N   UNL     1      34.898 -17.368 -24.902  0.00  0.00    -0.335 N 
ATOM      5  N   UNL     1      33.195 -13.263 -26.352  0.00  0.00    -0.283 N 
ATOM      6  C   UNL     1      35.057 -16.364 -22.208  0.00  0.00    +0.130 C 
ATOM      7  C   UNL     1      34.583 -15.579 -23.273  0.00  0.00    +0.177 C 
ATOM      8  C   UNL     1      35.114 -15.833 -20.923  0.00  0.00    +0.033 C 
ATOM      9  C   UNL     1      34.162 -14.256 -23.063  0.00  0.00    +0.137 C 
ATOM     10  C   UNL     1      34.499 -16.050 -24.580  0.00  0.00    +0.181 C 
ATOM     11  C   UNL     1      34.701 -14.524 -20.704  0.00  0.00    +0.005 C 
ATOM     12  C   UNL     1      34.230 -13.750 -21.768  0.00  0.00    +0.030 C 
ATOM     13  C   UNL     1      33.675 -14.067 -25.296  0.00  0.00    +0.197 C 
ATOM     14  H   UNL     1      34.834 -17.690 -25.830  0.00  0.00    +0.144 HD
ATOM     15  H   UNL     1      35.238 -17.966 -24.197  0.00  0.00    +0.144 HD
ATOM     16  H   UNL     1      32.907 -12.339 -26.176  0.00  0.00    +0.156 HD
ATOM     17  H   UNL     1      33.148 -13.627 -27.266  0.00  0.00    +0.156 HD
ENDBRANCH   1   6
BRANCH   1  18
ATOM     18  C   UNL     1      36.205 -18.226 -21.274  0.00  0.00    +0.205 C 
BRANCH  18  20
ATOM     19  N   UNL     1      34.424 -21.510 -19.106  0.00  0.00    +0.390 N 
ATOM     20  C   UNL     1      35.639 -19.613 -20.982  0.00  0.00    +0.040 C 
ATOM     21  C   UNL     1      34.167 -19.531 -20.568  0.00  0.00    -0.019 C 
ATOM     22  C   UNL     1      36.446 -20.318 -19.888  0.00  0.00    -0.019 C 
ATOM     23  C   UNL     1      33.620 -20.906 -20.177  0.00  0.00    -0.077 C 
ATOM     24  C   UNL     1      35.825 -21.667 -19.519  0.00  0.00    -0.077 C 
ATOM     25  H   UNL     1      34.402 -20.882 -18.303  0.00  0.00    -0.079 HD
BRANCH  19  26
ATOM     26  C   UNL     1      33.859 -22.800 -18.709  0.00  0.00    -0.048 C 
BRANCH  26  28
ATOM     27  F   UNL     1      35.657 -23.007 -16.527  0.00  0.00    -0.205 F 
ATOM     28  C   UNL     1      33.412 -22.797 -17.272  0.00  0.00    -0.016 C 
ATOM     29  C   UNL     1      34.351 -22.903 -16.245  0.00  0.00    +0.134 C 
ATOM     30  C   UNL     1      32.056 -22.689 -16.967  0.00  0.00    -0.004 C 
ATOM     31  C   UNL     1      33.932 -22.901 -14.914  0.00  0.00    +0.029 C 
ATOM     32  C   UNL     1      31.637 -22.687 -15.637  0.00  0.00    -0.000 C 
ATOM     33  C   UNL     1      32.575 -22.793 -14.610  0.00  0.00    +0.002 C 
ENDBRANCH  26  28
ENDBRANCH  19  26
ENDBRANCH  18  20
ENDBRANCH   1  18
TORSDOF 5
ENDMDL
MODEL 7
REMARK VINA RESULT:     -11.3      5.708     11.329
REMARK  Name = 23729147
REMARK  5 active torsions:
REMARK  status: ('A' for Active; 'I' for Inactive)
REMARK    1  A    between atoms: O_1  and  C_6
REMARK    2  A    between atoms: O_1  and  C_18
REMARK    3  A    between atoms: C_18  and  C_20
REMARK    4  A    between atoms: N_19  and  C_26
REMARK    5  A    between atoms: C_26  and  C_28
REMARK                            x       y       z     vdW  Elec       q    Type
REMARK                         _______ _______ _______ _____ _____    ______ ____
ROOT
ATOM      1  O   UNL     1      32.939 -22.302 -17.638  0.00  0.00    -0.479 OA
ENDROOT
BRANCH   1   6
ATOM      2  N   UNL     1      32.410 -24.294 -13.252  0.00  0.00    -0.332 NA
ATOM      3  N   UNL     1      30.427 -23.673 -14.473  0.00  0.00    -0.317 NA
ATOM      4  N   UNL     1      30.558 -22.707 -16.592  0.00  0.00    -0.335 N 
ATOM      5  N   UNL     1      30.275 -24.643 -12.345  0.00  0.00    -0.283 N 
ATOM      6  C   UNL     1      33.432 -22.850 -16.479  0.00  0.00    +0.130 C 
ATOM      7  C   UNL     1      32.618 -23.305 -15.428  0.00  0.00    +0.177 C 
ATOM      8  C   UNL     1      34.817 -22.941 -16.376  0.00  0.00    +0.033 C 
ATOM      9  C   UNL     1      33.180 -23.855 -14.264  0.00  0.00    +0.137 C 
ATOM     10  C   UNL     1      31.227 -23.244 -15.467  0.00  0.00    +0.181 C 
ATOM     11  C   UNL     1      35.384 -23.483 -15.229  0.00  0.00    +0.005 C 
ATOM     12  C   UNL     1      34.567 -23.934 -14.188  0.00  0.00    +0.030 C 
ATOM     13  C   UNL     1      31.076 -24.179 -13.412  0.00  0.00    +0.197 C 
ATOM     14  H   UNL     1      29.575 -22.669 -16.608  0.00  0.00    +0.144 HD
ATOM     15  H   UNL     1      31.076 -22.373 -17.360  0.00  0.00    +0.144 HD
ATOM     16  H   UNL     1      30.696 -25.023 -11.542  0.00  0.00    +0.156 HD
ATOM     17  H   UNL     1      29.294 -24.585 -12.406  0.00  0.00    +0.156 HD
ENDBRANCH   1   6
BRANCH   1  18
ATOM     18  C   UNL     1      33.680 -22.531 -18.822  0.00  0.00    +0.205 C 
BRANCH  18  20
ATOM     19  N   UNL     1      35.855 -19.628 -21.168  0.00  0.00    +0.390 N 
ATOM     20  C   UNL     1      34.412 -21.244 -19.192  0.00  0.00    +0.040 C 
ATOM     21  C   UNL     1      33.701 -20.514 -20.336  0.00  0.00    -0.019 C 
ATOM     22  C   UNL     1      35.864 -21.531 -19.586  0.00  0.00    -0.019 C 
ATOM     23  C   UNL     1      34.483 -19.276 -20.780  0.00  0.00    -0.077 C 
ATOM     24  C   UNL     1      36.576 -20.259 -20.054  0.00  0.00    -0.077 C 
ATOM     25  H   UNL     1      35.803 -20.303 -21.931  0.00  0.00    -0.079 HD
BRANCH  19  26
ATOM     26  C   UNL     1      36.574 -18.444 -21.637  0.00  0.00    -0.048 C 
BRANCH  26  28
ATOM     27  F   UNL     1      35.538 -19.693 -23.961  0.00  0.00    -0.205 F 
ATOM     28  C   UNL     1      35.800 -17.702 -22.694  0.00  0.00    -0.016 C 
ATOM     29  C   UNL     1      35.318 -18.379 -23.815  0.00  0.00    +0.134 C 
ATOM     30  C   UNL     1      35.566 -16.335 -22.552  0.00  0.00    -0.004 C 
ATOM     31  C   UNL     1      34.603 -17.688 -24.794  0.00  0.00    +0.029 C 
ATOM     32  C   UNL     1      34.850 -15.644 -23.530  0.00  0.00    -0.000 C 
ATOM     33  C   UNL     1      34.369 -16.320 -24.651  0.00  0.00    +0.002 C 
ENDBRANCH  26  28
ENDBRANCH  19  26
ENDBRANCH  18  20
ENDBRANCH   1  18
TORSDOF 5
ENDMDL
MODEL 8
REMARK VINA RESULT:     -11.3      3.633      9.631
REMARK  Name = 23729147
REMARK  5 active torsions:
REMARK  status: ('A' for Active; 'I' for Inactive)
REMARK    1  A    between atoms: O_1  and  C_6
REMARK    2  A    between atoms: O_1  and  C_18
REMARK    3  A    between atoms: C_18  and  C_20
REMARK    4  A    between atoms: N_19  and  C_26
REMARK    5  A    between atoms: C_26  and  C_28
REMARK                            x       y       z     vdW  Elec       q    Type
REMARK                         _______ _______ _______ _____ _____    ______ ____
ROOT
ATOM      1  O   UNL     1      34.667 -19.186 -21.583  0.00  0.00    -0.479 OA
ENDROOT
BRANCH   1   6
ATOM      2  N   UNL     1      34.869 -22.332 -17.902  0.00  0.00    -0.332 NA
ATOM      3  N   UNL     1      32.715 -21.825 -18.856  0.00  0.00    -0.317 NA
ATOM      4  N   UNL     1      32.495 -20.327 -20.630  0.00  0.00    -0.335 N 
ATOM      5  N   UNL     1      32.916 -23.333 -17.074  0.00  0.00    -0.283 N 
ATOM      6  C   UNL     1      35.344 -19.910 -20.631  0.00  0.00    +0.130 C 
ATOM      7  C   UNL     1      34.715 -20.782 -19.726  0.00  0.00    +0.177 C 
ATOM      8  C   UNL     1      36.725 -19.743 -20.591  0.00  0.00    +0.033 C 
ATOM      9  C   UNL     1      35.461 -21.495 -18.772  0.00  0.00    +0.137 C 
ATOM     10  C   UNL     1      33.339 -20.995 -19.713  0.00  0.00    +0.181 C 
ATOM     11  C   UNL     1      37.473 -20.442 -19.651  0.00  0.00    +0.005 C 
ATOM     12  C   UNL     1      36.840 -21.309 -18.755  0.00  0.00    +0.030 C 
ATOM     13  C   UNL     1      33.529 -22.452 -17.991  0.00  0.00    +0.197 C 
ATOM     14  H   UNL     1      31.524 -20.486 -20.612  0.00  0.00    +0.144 HD
ATOM     15  H   UNL     1      32.879 -19.703 -21.289  0.00  0.00    +0.144 HD
ATOM     16  H   UNL     1      33.463 -23.819 -16.417  0.00  0.00    +0.156 HD
ATOM     17  H   UNL     1      31.940 -23.461 -17.093  0.00  0.00    +0.156 HD
ENDBRANCH   1   6
BRANCH   1  18
ATOM     18  C   UNL     1      35.269 -19.085 -22.860  0.00  0.00    +0.205 C 
BRANCH  18  20
ATOM     19  N   UNL     1      34.258 -14.910 -23.323  0.00  0.00    +0.390 N 
ATOM     20  C   UNL     1      35.405 -17.607 -23.216  0.00  0.00    +0.040 C 
ATOM     21  C   UNL     1      35.259 -16.724 -21.972  0.00  0.00    -0.019 C 
ATOM     22  C   UNL     1      34.368 -17.195 -24.266  0.00  0.00    -0.019 C 
ATOM     23  C   UNL     1      35.294 -15.239 -22.334  0.00  0.00    -0.077 C 
ATOM     24  C   UNL     1      34.433 -15.693 -24.554  0.00  0.00    -0.077 C 
ATOM     25  H   UNL     1      33.353 -15.153 -22.922  0.00  0.00    -0.079 HD
BRANCH  19  26
ATOM     26  C   UNL     1      34.272 -13.478 -23.621  0.00  0.00    -0.048 C 
BRANCH  26  28
ATOM     27  F   UNL     1      33.576 -10.760 -24.026  0.00  0.00    -0.205 F 
ATOM     28  C   UNL     1      33.408 -12.699 -22.665  0.00  0.00    -0.016 C 
ATOM     29  C   UNL     1      33.104 -11.362 -22.926  0.00  0.00    +0.134 C 
ATOM     30  C   UNL     1      32.912 -13.316 -21.518  0.00  0.00    -0.004 C 
ATOM     31  C   UNL     1      32.304 -10.643 -22.037  0.00  0.00    +0.029 C 
ATOM     32  C   UNL     1      32.112 -12.597 -20.629  0.00  0.00    -0.000 C 
ATOM     33  C   UNL     1      31.809 -11.261 -20.889  0.00  0.00    +0.002 C 
ENDBRANCH  26  28
ENDBRANCH  19  26
ENDBRANCH  18  20
ENDBRANCH   1  18
TORSDOF 5
ENDMDL
MODEL 9
REMARK VINA RESULT:     -10.9      6.152     11.619
REMARK  Name = 23729147
REMARK  5 active torsions:
REMARK  status: ('A' for Active; 'I' for Inactive)
REMARK    1  A    between atoms: O_1  and  C_6
REMARK    2  A    between atoms: O_1  and  C_18
REMARK    3  A    between atoms: C_18  and  C_20
REMARK    4  A    between atoms: N_19  and  C_26
REMARK    5  A    between atoms: C_26  and  C_28
REMARK                            x       y       z     vdW  Elec       q    Type
REMARK                         _______ _______ _______ _____ _____    ______ ____
ROOT
ATOM      1  O   UNL     1      35.311 -23.000 -17.046  0.00  0.00    -0.479 OA
ENDROOT
BRANCH   1   6
ATOM      2  N   UNL     1      35.810 -23.692 -12.275  0.00  0.00    -0.332 NA
ATOM      3  N   UNL     1      37.778 -23.184 -13.570  0.00  0.00    -0.317 NA
ATOM      4  N   UNL     1      37.660 -22.832 -15.872  0.00  0.00    -0.335 N 
ATOM      5  N   UNL     1      37.917 -23.536 -11.257  0.00  0.00    -0.283 N 
ATOM      6  C   UNL     1      34.816 -23.276 -15.794  0.00  0.00    +0.130 C 
ATOM      7  C   UNL     1      35.616 -23.341 -14.640  0.00  0.00    +0.177 C 
ATOM      8  C   UNL     1      33.445 -23.498 -15.704  0.00  0.00    +0.033 C 
ATOM      9  C   UNL     1      35.053 -23.629 -13.386  0.00  0.00    +0.137 C 
ATOM     10  C   UNL     1      36.992 -23.128 -14.661  0.00  0.00    +0.181 C 
ATOM     11  C   UNL     1      32.878 -23.785 -14.468  0.00  0.00    +0.005 C 
ATOM     12  C   UNL     1      33.680 -23.846 -13.325  0.00  0.00    +0.030 C 
ATOM     13  C   UNL     1      37.131 -23.467 -12.428  0.00  0.00    +0.197 C 
ATOM     14  H   UNL     1      38.633 -22.683 -15.874  0.00  0.00    +0.144 HD
ATOM     15  H   UNL     1      37.152 -22.773 -16.714  0.00  0.00    +0.144 HD
ATOM     16  H   UNL     1      37.495 -23.739 -10.392  0.00  0.00    +0.156 HD
ATOM     17  H   UNL     1      38.888 -23.379 -11.307  0.00  0.00    +0.156 HD
ENDBRANCH   1   6
BRANCH   1  18
ATOM     18  C   UNL     1      34.381 -22.572 -18.024  0.00  0.00    +0.205 C 
BRANCH  18  20
ATOM     19  N   UNL     1      36.040 -19.854 -20.942  0.00  0.00    +0.390 N 
ATOM     20  C   UNL     1      34.896 -21.279 -18.649  0.00  0.00    +0.040 C 
ATOM     21  C   UNL     1      34.063 -20.889 -19.875  0.00  0.00    -0.019 C 
ATOM     22  C   UNL     1      36.370 -21.408 -19.046  0.00  0.00    -0.019 C 
ATOM     23  C   UNL     1      34.634 -19.650 -20.566  0.00  0.00    -0.077 C 
ATOM     24  C   UNL     1      36.866 -20.151 -19.765  0.00  0.00    -0.077 C 
ATOM     25  H   UNL     1      36.084 -20.657 -21.569  0.00  0.00    -0.079 HD
BRANCH  19  26
ATOM     26  C   UNL     1      36.556 -18.680 -21.646  0.00  0.00    -0.048 C 
BRANCH  26  28
ATOM     27  F   UNL     1      35.807 -16.001 -22.192  0.00  0.00    -0.205 F 
ATOM     28  C   UNL     1      35.677 -18.291 -22.806  0.00  0.00    -0.016 C 
ATOM     29  C   UNL     1      35.347 -16.952 -23.016  0.00  0.00    +0.134 C 
ATOM     30  C   UNL     1      35.193 -19.273 -23.669  0.00  0.00    -0.004 C 
ATOM     31  C   UNL     1      34.531 -16.596 -24.091  0.00  0.00    +0.029 C 
ATOM     32  C   UNL     1      34.378 -18.917 -24.744  0.00  0.00    -0.000 C 
ATOM     33  C   UNL     1      34.046 -17.578 -24.954  0.00  0.00    +0.002 C 
ENDBRANCH  26  28
ENDBRANCH  19  26
ENDBRANCH  18  20
ENDBRANCH   1  18
TORSDOF 5
ENDMDL
