MODEL 1
REMARK VINA RESULT:     -11.9      0.000      0.000
REMARK  Name = 51039095
REMARK  7 active torsions:
REMARK  status: ('A' for Active; 'I' for Inactive)
REMARK    1  A    between atoms: C_5  and  C_16
REMARK    2  A    between atoms: C_6  and  C_27
REMARK    3  A    between atoms: C_11  and  N_17
REMARK    4  A    between atoms: C_27  and  C_28
REMARK    5  A    between atoms: C_28  and  C_29
REMARK    6  A    between atoms: C_32  and  O_35
REMARK    7  A    between atoms: C_33  and  O_37
REMARK                            x       y       z     vdW  Elec       q    Type
REMARK                         _______ _______ _______ _____ _____    ______ ____
ROOT
ATOM      1  O   UNL     1      34.234 -21.128 -19.605  0.00  0.00    -0.270 OA
ATOM      2  N   UNL     1      36.359 -20.157 -19.821  0.00  0.00    -0.265 N 
ATOM      3  N   UNL     1      36.700 -18.134 -22.622  0.00  0.00    -0.239 N 
ATOM      4  N   UNL     1      37.240 -18.671 -21.515  0.00  0.00    -0.166 NA
ATOM      5  C   UNL     1      35.393 -20.955 -19.194  0.00  0.00    +0.251 C 
ATOM      6  C   UNL     1      35.401 -18.495 -22.833  0.00  0.00    +0.046 C 
ATOM      7  C   UNL     1      36.239 -19.399 -21.012  0.00  0.00    +0.153 C 
ATOM      8  C   UNL     1      35.069 -19.327 -21.792  0.00  0.00    +0.048 C 
ATOM      9  H   UNL     1      37.236 -20.117 -19.376  0.00  0.00    +0.157 HD
ATOM     10  H   UNL     1      37.196 -17.534 -23.224  0.00  0.00    +0.174 HD
ENDROOT
BRANCH   5  16
ATOM     11  C   UNL     1      36.647 -22.951 -15.664  0.00  0.00    +0.048 C 
ATOM     12  C   UNL     1      35.332 -23.084 -16.111  0.00  0.00    +0.015 C 
ATOM     13  C   UNL     1      37.551 -22.164 -16.378  0.00  0.00    +0.015 C 
ATOM     14  C   UNL     1      34.920 -22.428 -17.270  0.00  0.00    +0.006 C 
ATOM     15  C   UNL     1      37.138 -21.508 -17.538  0.00  0.00    +0.006 C 
ATOM     16  C   UNL     1      35.824 -21.640 -17.985  0.00  0.00    +0.054 C 
BRANCH  11  17
ATOM     17  N   UNL     1      37.062 -23.609 -14.501  0.00  0.00    -0.312 N 
ATOM     18  N   UNL     1      37.824 -25.146 -12.225  0.00  0.00    +0.389 N 
ATOM     19  C   UNL     1      36.875 -24.037 -12.080  0.00  0.00    -0.042 C 
ATOM     20  C   UNL     1      38.804 -24.852 -13.275  0.00  0.00    -0.042 C 
ATOM     21  C   UNL     1      36.117 -23.792 -13.393  0.00  0.00    +0.069 C 
ATOM     22  C   UNL     1      38.106 -24.636 -14.625  0.00  0.00    +0.069 C 
ATOM     23  C   UNL     1      39.801 -26.007 -13.364  0.00  0.00    -0.022 C 
ATOM     24  C   UNL     1      35.898 -24.359 -10.950  0.00  0.00    -0.022 C 
ATOM     25  H   UNL     1      37.312 -25.994 -12.471  0.00  0.00    -0.084 HD
ATOM     26  H   UNL     1      38.316 -25.275 -11.341  0.00  0.00    -0.084 HD
ENDBRANCH  11  17
ENDBRANCH   5  16
BRANCH   6  27
ATOM     27  C   UNL     1      34.631 -18.012 -23.990  0.00  0.00    +0.047 C 
BRANCH  27  28
ATOM     28  C   UNL     1      35.264 -16.809 -24.734  0.00  0.00    +0.033 C 
BRANCH  28  29
ATOM     29  C   UNL     1      34.715 -15.479 -24.275  0.00  0.00    -0.016 C 
ATOM     30  C   UNL     1      34.268 -14.547 -25.212  0.00  0.00    +0.033 C 
ATOM     31  C   UNL     1      34.654 -15.183 -22.914  0.00  0.00    +0.033 C 
ATOM     32  C   UNL     1      34.147 -13.955 -22.488  0.00  0.00    +0.141 C 
ATOM     33  C   UNL     1      33.760 -13.320 -24.787  0.00  0.00    +0.141 C 
ATOM     34  C   UNL     1      33.700 -13.023 -23.425  0.00  0.00    +0.074 C 
BRANCH  32  35
ATOM     35  O   UNL     1      34.087 -13.666 -21.159  0.00  0.00    -0.471 OA
ATOM     36  C   UNL     1      32.813 -13.292 -20.635  0.00  0.00    +0.252 C 
ENDBRANCH  32  35
BRANCH  33  37
ATOM     37  O   UNL     1      33.323 -12.410 -25.701  0.00  0.00    -0.471 OA
ATOM     38  C   UNL     1      33.259 -12.837 -27.061  0.00  0.00    +0.252 C 
ENDBRANCH  33  37
ENDBRANCH  28  29
ENDBRANCH  27  28
ENDBRANCH   6  27
TORSDOF 7
ENDMDL
MODEL 2
REMARK VINA RESULT:     -11.9      0.022      2.116
REMARK  Name = 51039095
REMARK  7 active torsions:
REMARK  status: ('A' for Active; 'I' for Inactive)
REMARK    1  A    between atoms: C_5  and  C_16
REMARK    2  A    between atoms: C_6  and  C_27
REMARK    3  A    between atoms: C_11  and  N_17
REMARK    4  A    between atoms: C_27  and  C_28
REMARK    5  A    between atoms: C_28  and  C_29
REMARK    6  A    between atoms: C_32  and  O_35
REMARK    7  A    between atoms: C_33  and  O_37
REMARK                            x       y       z     vdW  Elec       q    Type
REMARK                         _______ _______ _______ _____ _____    ______ ____
ROOT
ATOM      1  O   UNL     1      34.255 -21.145 -19.624  0.00  0.00    -0.270 OA
ATOM      2  N   UNL     1      36.368 -20.143 -19.823  0.00  0.00    -0.265 N 
ATOM      3  N   UNL     1      36.698 -18.108 -22.617  0.00  0.00    -0.239 N 
ATOM      4  N   UNL     1      37.238 -18.641 -21.507  0.00  0.00    -0.166 NA
ATOM      5  C   UNL     1      35.409 -20.957 -19.204  0.00  0.00    +0.251 C 
ATOM      6  C   UNL     1      35.406 -18.487 -22.837  0.00  0.00    +0.046 C 
ATOM      7  C   UNL     1      36.245 -19.384 -21.013  0.00  0.00    +0.153 C 
ATOM      8  C   UNL     1      35.079 -19.327 -21.800  0.00  0.00    +0.048 C 
ATOM      9  H   UNL     1      37.241 -20.092 -19.372  0.00  0.00    +0.157 HD
ATOM     10  H   UNL     1      37.190 -17.500 -23.214  0.00  0.00    +0.174 HD
ENDROOT
BRANCH   5  16
ATOM     11  C   UNL     1      36.667 -22.944 -15.671  0.00  0.00    +0.048 C 
ATOM     12  C   UNL     1      35.351 -23.074 -16.113  0.00  0.00    +0.015 C 
ATOM     13  C   UNL     1      37.571 -22.162 -16.391  0.00  0.00    +0.015 C 
ATOM     14  C   UNL     1      34.937 -22.421 -17.274  0.00  0.00    +0.006 C 
ATOM     15  C   UNL     1      37.157 -21.509 -17.552  0.00  0.00    +0.006 C 
ATOM     16  C   UNL     1      35.841 -21.639 -17.994  0.00  0.00    +0.054 C 
BRANCH  11  17
ATOM     17  N   UNL     1      37.084 -23.598 -14.507  0.00  0.00    -0.312 N 
ATOM     18  N   UNL     1      37.847 -25.129 -12.227  0.00  0.00    +0.389 N 
ATOM     19  C   UNL     1      36.905 -24.014 -12.083  0.00  0.00    -0.042 C 
ATOM     20  C   UNL     1      38.825 -24.845 -13.283  0.00  0.00    -0.042 C 
ATOM     21  C   UNL     1      36.143 -23.771 -13.394  0.00  0.00    +0.069 C 
ATOM     22  C   UNL     1      38.121 -24.631 -14.630  0.00  0.00    +0.069 C 
ATOM     23  C   UNL     1      39.814 -26.006 -13.371  0.00  0.00    -0.022 C 
ATOM     24  C   UNL     1      35.931 -24.326 -10.947  0.00  0.00    -0.022 C 
ATOM     25  H   UNL     1      37.330 -25.975 -12.467  0.00  0.00    -0.084 HD
ATOM     26  H   UNL     1      38.343 -25.256 -11.345  0.00  0.00    -0.084 HD
ENDBRANCH  11  17
ENDBRANCH   5  16
BRANCH   6  27
ATOM     27  C   UNL     1      34.637 -18.013 -23.999  0.00  0.00    +0.047 C 
BRANCH  27  28
ATOM     28  C   UNL     1      35.266 -16.809 -24.745  0.00  0.00    +0.033 C 
BRANCH  28  29
ATOM     29  C   UNL     1      34.718 -15.479 -24.284  0.00  0.00    -0.016 C 
ATOM     30  C   UNL     1      34.656 -15.184 -22.922  0.00  0.00    +0.033 C 
ATOM     31  C   UNL     1      34.276 -14.546 -25.221  0.00  0.00    +0.033 C 
ATOM     32  C   UNL     1      33.770 -13.317 -24.797  0.00  0.00    +0.141 C 
ATOM     33  C   UNL     1      34.151 -13.955 -22.498  0.00  0.00    +0.141 C 
ATOM     34  C   UNL     1      33.707 -13.022 -23.435  0.00  0.00    +0.074 C 
BRANCH  32  35
ATOM     35  O   UNL     1      33.339 -12.405 -25.711  0.00  0.00    -0.471 OA
ATOM     36  C   UNL     1      33.252 -12.839 -27.068  0.00  0.00    +0.252 C 
ENDBRANCH  32  35
BRANCH  33  37
ATOM     37  O   UNL     1      34.090 -13.666 -21.169  0.00  0.00    -0.471 OA
ATOM     38  C   UNL     1      32.821 -13.271 -20.648  0.00  0.00    +0.252 C 
ENDBRANCH  33  37
ENDBRANCH  28  29
ENDBRANCH  27  28
ENDBRANCH   6  27
TORSDOF 7
ENDMDL
MODEL 3
REMARK VINA RESULT:     -11.9      0.246      2.578
REMARK  Name = 51039095
REMARK  7 active torsions:
REMARK  status: ('A' for Active; 'I' for Inactive)
REMARK    1  A    between atoms: C_5  and  C_16
REMARK    2  A    between atoms: C_6  and  C_27
REMARK    3  A    between atoms: C_11  and  N_17
REMARK    4  A    between atoms: C_27  and  C_28
REMARK    5  A    between atoms: C_28  and  C_29
REMARK    6  A    between atoms: C_32  and  O_35
REMARK    7  A    between atoms: C_33  and  O_37
REMARK                            x       y       z     vdW  Elec       q    Type
REMARK                         _______ _______ _______ _____ _____    ______ ____
ROOT
ATOM      1  O   UNL     1      34.125 -21.112 -19.669  0.00  0.00    -0.270 OA
ATOM      2  N   UNL     1      36.273 -20.187 -19.864  0.00  0.00    -0.265 N 
ATOM      3  N   UNL     1      36.669 -18.126 -22.629  0.00  0.00    -0.239 N 
ATOM      4  N   UNL     1      37.193 -18.695 -21.530  0.00  0.00    -0.166 NA
ATOM      5  C   UNL     1      35.286 -20.974 -19.253  0.00  0.00    +0.251 C 
ATOM      6  C   UNL     1      35.362 -18.452 -22.850  0.00  0.00    +0.046 C 
ATOM      7  C   UNL     1      36.174 -19.407 -21.042  0.00  0.00    +0.153 C 
ATOM      8  C   UNL     1      35.008 -19.294 -21.823  0.00  0.00    +0.048 C 
ATOM      9  H   UNL     1      37.150 -20.176 -19.417  0.00  0.00    +0.157 HD
ATOM     10  H   UNL     1      37.180 -17.527 -23.220  0.00  0.00    +0.174 HD
ENDROOT
BRANCH   5  16
ATOM     11  C   UNL     1      36.484 -23.059 -15.755  0.00  0.00    +0.048 C 
ATOM     12  C   UNL     1      35.169 -23.158 -16.211  0.00  0.00    +0.015 C 
ATOM     13  C   UNL     1      37.406 -22.275 -16.449  0.00  0.00    +0.015 C 
ATOM     14  C   UNL     1      34.776 -22.473 -17.360  0.00  0.00    +0.006 C 
ATOM     15  C   UNL     1      37.012 -21.590 -17.599  0.00  0.00    +0.006 C 
ATOM     16  C   UNL     1      35.698 -21.689 -18.055  0.00  0.00    +0.054 C 
BRANCH  11  17
ATOM     17  N   UNL     1      36.880 -23.746 -14.602  0.00  0.00    -0.312 N 
ATOM     18  N   UNL     1      37.770 -24.943 -12.174  0.00  0.00    +0.389 N 
ATOM     19  C   UNL     1      38.301 -25.406 -13.460  0.00  0.00    -0.042 C 
ATOM     20  C   UNL     1      36.374 -24.517 -12.314  0.00  0.00    -0.042 C 
ATOM     21  C   UNL     1      38.241 -24.287 -14.510  0.00  0.00    +0.069 C 
ATOM     22  C   UNL     1      36.256 -23.369 -13.327  0.00  0.00    +0.069 C 
ATOM     23  C   UNL     1      35.843 -24.086 -10.948  0.00  0.00    -0.022 C 
ATOM     24  C   UNL     1      39.740 -25.881 -13.265  0.00  0.00    -0.022 C 
ATOM     25  H   UNL     1      38.329 -24.155 -11.845  0.00  0.00    -0.084 HD
ATOM     26  H   UNL     1      37.814 -25.711 -11.504  0.00  0.00    -0.084 HD
ENDBRANCH  11  17
ENDBRANCH   5  16
BRANCH   6  27
ATOM     27  C   UNL     1      34.607 -17.932 -24.000  0.00  0.00    +0.047 C 
BRANCH  27  28
ATOM     28  C   UNL     1      35.263 -16.723 -24.714  0.00  0.00    +0.033 C 
BRANCH  28  29
ATOM     29  C   UNL     1      34.706 -15.396 -24.257  0.00  0.00    -0.016 C 
ATOM     30  C   UNL     1      34.621 -15.105 -22.896  0.00  0.00    +0.033 C 
ATOM     31  C   UNL     1      34.277 -14.461 -25.198  0.00  0.00    +0.033 C 
ATOM     32  C   UNL     1      33.762 -13.234 -24.779  0.00  0.00    +0.141 C 
ATOM     33  C   UNL     1      34.107 -13.879 -22.476  0.00  0.00    +0.141 C 
ATOM     34  C   UNL     1      33.677 -12.944 -23.416  0.00  0.00    +0.074 C 
BRANCH  32  35
ATOM     35  O   UNL     1      33.343 -12.320 -25.696  0.00  0.00    -0.471 OA
ATOM     36  C   UNL     1      33.295 -12.745 -27.058  0.00  0.00    +0.252 C 
ENDBRANCH  32  35
BRANCH  33  37
ATOM     37  O   UNL     1      34.025 -13.594 -21.147  0.00  0.00    -0.471 OA
ATOM     38  C   UNL     1      32.739 -13.245 -20.636  0.00  0.00    +0.252 C 
ENDBRANCH  33  37
ENDBRANCH  28  29
ENDBRANCH  27  28
ENDBRANCH   6  27
TORSDOF 7
ENDMDL
MODEL 4
REMARK VINA RESULT:     -11.9      0.258      1.473
REMARK  Name = 51039095
REMARK  7 active torsions:
REMARK  status: ('A' for Active; 'I' for Inactive)
REMARK    1  A    between atoms: C_5  and  C_16
REMARK    2  A    between atoms: C_6  and  C_27
REMARK    3  A    between atoms: C_11  and  N_17
REMARK    4  A    between atoms: C_27  and  C_28
REMARK    5  A    between atoms: C_28  and  C_29
REMARK    6  A    between atoms: C_32  and  O_35
REMARK    7  A    between atoms: C_33  and  O_37
REMARK                            x       y       z     vdW  Elec       q    Type
REMARK                         _______ _______ _______ _____ _____    ______ ____
ROOT
ATOM      1  O   UNL     1      34.092 -21.093 -19.660  0.00  0.00    -0.270 OA
ATOM      2  N   UNL     1      36.247 -20.190 -19.870  0.00  0.00    -0.265 N 
ATOM      3  N   UNL     1      36.644 -18.131 -22.637  0.00  0.00    -0.239 N 
ATOM      4  N   UNL     1      37.170 -18.705 -21.542  0.00  0.00    -0.166 NA
ATOM      5  C   UNL     1      35.257 -20.966 -19.252  0.00  0.00    +0.251 C 
ATOM      6  C   UNL     1      35.333 -18.445 -22.848  0.00  0.00    +0.046 C 
ATOM      7  C   UNL     1      36.148 -19.408 -21.047  0.00  0.00    +0.153 C 
ATOM      8  C   UNL     1      34.978 -19.283 -21.820  0.00  0.00    +0.048 C 
ATOM      9  H   UNL     1      37.127 -20.187 -19.428  0.00  0.00    +0.157 HD
ATOM     10  H   UNL     1      37.158 -17.537 -23.231  0.00  0.00    +0.174 HD
ENDROOT
BRANCH   5  16
ATOM     11  C   UNL     1      36.458 -23.064 -15.763  0.00  0.00    +0.048 C 
ATOM     12  C   UNL     1      35.142 -23.159 -16.216  0.00  0.00    +0.015 C 
ATOM     13  C   UNL     1      37.380 -22.281 -16.457  0.00  0.00    +0.015 C 
ATOM     14  C   UNL     1      34.748 -22.470 -17.362  0.00  0.00    +0.006 C 
ATOM     15  C   UNL     1      36.985 -21.591 -17.604  0.00  0.00    +0.006 C 
ATOM     16  C   UNL     1      35.670 -21.686 -18.057  0.00  0.00    +0.054 C 
BRANCH  11  17
ATOM     17  N   UNL     1      36.855 -23.755 -14.613  0.00  0.00    -0.312 N 
ATOM     18  N   UNL     1      37.749 -24.962 -12.190  0.00  0.00    +0.389 N 
ATOM     19  C   UNL     1      38.272 -25.425 -13.480  0.00  0.00    -0.042 C 
ATOM     20  C   UNL     1      36.354 -24.528 -12.325  0.00  0.00    -0.042 C 
ATOM     21  C   UNL     1      38.213 -24.303 -14.527  0.00  0.00    +0.069 C 
ATOM     22  C   UNL     1      36.238 -23.377 -13.334  0.00  0.00    +0.069 C 
ATOM     23  C   UNL     1      35.831 -24.097 -10.956  0.00  0.00    -0.022 C 
ATOM     24  C   UNL     1      39.709 -25.908 -13.292  0.00  0.00    -0.022 C 
ATOM     25  H   UNL     1      38.313 -24.177 -11.863  0.00  0.00    -0.084 HD
ATOM     26  H   UNL     1      37.792 -25.731 -11.523  0.00  0.00    -0.084 HD
ENDBRANCH  11  17
ENDBRANCH   5  16
BRANCH   6  27
ATOM     27  C   UNL     1      34.575 -17.916 -23.993  0.00  0.00    +0.047 C 
BRANCH  27  28
ATOM     28  C   UNL     1      35.243 -16.719 -24.716  0.00  0.00    +0.033 C 
BRANCH  28  29
ATOM     29  C   UNL     1      34.699 -15.384 -24.268  0.00  0.00    -0.016 C 
ATOM     30  C   UNL     1      34.280 -14.447 -25.213  0.00  0.00    +0.033 C 
ATOM     31  C   UNL     1      34.615 -15.088 -22.908  0.00  0.00    +0.033 C 
ATOM     32  C   UNL     1      34.112 -13.855 -22.491  0.00  0.00    +0.141 C 
ATOM     33  C   UNL     1      33.777 -13.215 -24.797  0.00  0.00    +0.141 C 
ATOM     34  C   UNL     1      33.694 -12.918 -23.437  0.00  0.00    +0.074 C 
BRANCH  32  35
ATOM     35  O   UNL     1      34.029 -13.565 -21.164  0.00  0.00    -0.471 OA
ATOM     36  C   UNL     1      32.731 -13.290 -20.641  0.00  0.00    +0.252 C 
ENDBRANCH  32  35
BRANCH  33  37
ATOM     37  O   UNL     1      33.367 -12.301 -25.719  0.00  0.00    -0.471 OA
ATOM     38  C   UNL     1      33.280 -12.740 -27.074  0.00  0.00    +0.252 C 
ENDBRANCH  33  37
ENDBRANCH  28  29
ENDBRANCH  27  28
ENDBRANCH   6  27
TORSDOF 7
ENDMDL
MODEL 5
REMARK VINA RESULT:     -11.7      4.847     13.494
REMARK  Name = 51039095
REMARK  7 active torsions:
REMARK  status: ('A' for Active; 'I' for Inactive)
REMARK    1  A    between atoms: C_5  and  C_16
REMARK    2  A    between atoms: C_6  and  C_27
REMARK    3  A    between atoms: C_11  and  N_17
REMARK    4  A    between atoms: C_27  and  C_28
REMARK    5  A    between atoms: C_28  and  C_29
REMARK    6  A    between atoms: C_32  and  O_35
REMARK    7  A    between atoms: C_33  and  O_37
REMARK                            x       y       z     vdW  Elec       q    Type
REMARK                         _______ _______ _______ _____ _____    ______ ____
ROOT
ATOM      1  O   UNL     1      33.428 -13.760 -21.199  0.00  0.00    -0.270 OA
ATOM      2  N   UNL     1      34.268 -13.802 -23.390  0.00  0.00    -0.265 N 
ATOM      3  N   UNL     1      35.649 -16.854 -24.304  0.00  0.00    -0.239 N 
ATOM      4  N   UNL     1      35.339 -15.585 -24.624  0.00  0.00    -0.166 NA
ATOM      5  C   UNL     1      33.648 -13.201 -22.286  0.00  0.00    +0.251 C 
ATOM      6  C   UNL     1      35.290 -17.206 -23.036  0.00  0.00    +0.046 C 
ATOM      7  C   UNL     1      34.763 -15.124 -23.511  0.00  0.00    +0.153 C 
ATOM      8  C   UNL     1      34.705 -16.090 -22.488  0.00  0.00    +0.048 C 
ATOM      9  H   UNL     1      34.374 -13.232 -24.184  0.00  0.00    +0.157 HD
ATOM     10  H   UNL     1      36.093 -17.471 -24.929  0.00  0.00    +0.174 HD
ENDROOT
BRANCH   5  16
ATOM     11  C   UNL     1      32.547  -9.131 -22.772  0.00  0.00    +0.048 C 
ATOM     12  C   UNL     1      33.499  -9.702 -23.618  0.00  0.00    +0.015 C 
ATOM     13  C   UNL     1      31.956  -9.897 -21.767  0.00  0.00    +0.015 C 
ATOM     14  C   UNL     1      33.860 -11.039 -23.458  0.00  0.00    +0.006 C 
ATOM     15  C   UNL     1      32.318 -11.235 -21.608  0.00  0.00    +0.006 C 
ATOM     16  C   UNL     1      33.269 -11.806 -22.453  0.00  0.00    +0.054 C 
BRANCH  11  17
ATOM     17  N   UNL     1      32.184  -7.789 -22.932  0.00  0.00    -0.312 N 
ATOM     18  N   UNL     1      31.665  -5.001 -23.215  0.00  0.00    +0.389 N 
ATOM     19  C   UNL     1      30.976  -5.775 -22.178  0.00  0.00    -0.042 C 
ATOM     20  C   UNL     1      31.907  -5.827 -24.402  0.00  0.00    -0.042 C 
ATOM     21  C   UNL     1      31.816  -6.991 -21.757  0.00  0.00    +0.069 C 
ATOM     22  C   UNL     1      32.778  -7.042 -24.049  0.00  0.00    +0.069 C 
ATOM     23  C   UNL     1      32.583  -4.975 -25.475  0.00  0.00    -0.022 C 
ATOM     24  C   UNL     1      30.703  -4.871 -20.977  0.00  0.00    -0.022 C 
ATOM     25  H   UNL     1      32.559  -4.671 -22.849  0.00  0.00    -0.084 HD
ATOM     26  H   UNL     1      31.079  -4.210 -23.479  0.00  0.00    -0.084 HD
ENDBRANCH  11  17
ENDBRANCH   5  16
BRANCH   6  27
ATOM     27  C   UNL     1      35.542 -18.550 -22.494  0.00  0.00    +0.047 C 
BRANCH  27  28
ATOM     28  C   UNL     1      34.269 -19.337 -22.092  0.00  0.00    +0.033 C 
BRANCH  28  29
ATOM     29  C   UNL     1      34.454 -20.151 -20.834  0.00  0.00    -0.016 C 
ATOM     30  C   UNL     1      33.345 -20.696 -20.186  0.00  0.00    +0.033 C 
ATOM     31  C   UNL     1      35.733 -20.361 -20.322  0.00  0.00    +0.033 C 
ATOM     32  C   UNL     1      35.905 -21.114 -19.160  0.00  0.00    +0.141 C 
ATOM     33  C   UNL     1      33.516 -21.449 -19.026  0.00  0.00    +0.141 C 
ATOM     34  C   UNL     1      34.796 -21.658 -18.511  0.00  0.00    +0.074 C 
BRANCH  32  35
ATOM     35  O   UNL     1      37.154 -21.319 -18.659  0.00  0.00    -0.471 OA
ATOM     36  C   UNL     1      37.253 -21.612 -17.266  0.00  0.00    +0.252 C 
ENDBRANCH  32  35
BRANCH  33  37
ATOM     37  O   UNL     1      32.435 -21.981 -18.393  0.00  0.00    -0.471 OA
ATOM     38  C   UNL     1      32.683 -22.738 -17.209  0.00  0.00    +0.252 C 
ENDBRANCH  33  37
ENDBRANCH  28  29
ENDBRANCH  27  28
ENDBRANCH   6  27
TORSDOF 7
ENDMDL
MODEL 6
REMARK VINA RESULT:     -11.7      4.857     13.490
REMARK  Name = 51039095
REMARK  7 active torsions:
REMARK  status: ('A' for Active; 'I' for Inactive)
REMARK    1  A    between atoms: C_5  and  C_16
REMARK    2  A    between atoms: C_6  and  C_27
REMARK    3  A    between atoms: C_11  and  N_17
REMARK    4  A    between atoms: C_27  and  C_28
REMARK    5  A    between atoms: C_28  and  C_29
REMARK    6  A    between atoms: C_32  and  O_35
REMARK    7  A    between atoms: C_33  and  O_37
REMARK                            x       y       z     vdW  Elec       q    Type
REMARK                         _______ _______ _______ _____ _____    ______ ____
ROOT
ATOM      1  O   UNL     1      33.499 -13.715 -21.187  0.00  0.00    -0.270 OA
ATOM      2  N   UNL     1      34.268 -13.788 -23.403  0.00  0.00    -0.265 N 
ATOM      3  N   UNL     1      35.623 -16.850 -24.318  0.00  0.00    -0.239 N 
ATOM      4  N   UNL     1      35.301 -15.587 -24.646  0.00  0.00    -0.166 NA
ATOM      5  C   UNL     1      33.683 -13.171 -22.288  0.00  0.00    +0.251 C 
ATOM      6  C   UNL     1      35.305 -17.185 -23.034  0.00  0.00    +0.046 C 
ATOM      7  C   UNL     1      34.760 -15.111 -23.522  0.00  0.00    +0.153 C 
ATOM      8  C   UNL     1      34.737 -16.062 -22.484  0.00  0.00    +0.048 C 
ATOM      9  H   UNL     1      34.348 -13.228 -24.209  0.00  0.00    +0.157 HD
ATOM     10  H   UNL     1      36.047 -17.477 -24.948  0.00  0.00    +0.174 HD
ENDROOT
BRANCH   5  16
ATOM     11  C   UNL     1      32.554  -9.112 -22.799  0.00  0.00    +0.048 C 
ATOM     12  C   UNL     1      31.930  -9.892 -21.825  0.00  0.00    +0.015 C 
ATOM     13  C   UNL     1      33.549  -9.665 -23.605  0.00  0.00    +0.015 C 
ATOM     14  C   UNL     1      32.302 -11.226 -21.657  0.00  0.00    +0.006 C 
ATOM     15  C   UNL     1      33.920 -10.999 -23.436  0.00  0.00    +0.006 C 
ATOM     16  C   UNL     1      33.297 -11.779 -22.463  0.00  0.00    +0.054 C 
BRANCH  11  17
ATOM     17  N   UNL     1      32.183  -7.773 -22.968  0.00  0.00    -0.312 N 
ATOM     18  N   UNL     1      31.648  -4.990 -23.267  0.00  0.00    +0.389 N 
ATOM     19  C   UNL     1      30.947  -5.767 -22.240  0.00  0.00    -0.042 C 
ATOM     20  C   UNL     1      31.917  -5.817 -24.448  0.00  0.00    -0.042 C 
ATOM     21  C   UNL     1      31.788  -6.975 -21.802  0.00  0.00    +0.069 C 
ATOM     22  C   UNL     1      32.790  -7.024 -24.077  0.00  0.00    +0.069 C 
ATOM     23  C   UNL     1      32.605  -4.963 -25.511  0.00  0.00    -0.022 C 
ATOM     24  C   UNL     1      30.646  -4.862 -21.046  0.00  0.00    -0.022 C 
ATOM     25  H   UNL     1      32.533  -4.652 -22.886  0.00  0.00    -0.084 HD
ATOM     26  H   UNL     1      31.060  -4.204 -23.543  0.00  0.00    -0.084 HD
ENDBRANCH  11  17
ENDBRANCH   5  16
BRANCH   6  27
ATOM     27  C   UNL     1      35.577 -18.521 -22.482  0.00  0.00    +0.047 C 
BRANCH  27  28
ATOM     28  C   UNL     1      34.313 -19.340 -22.114  0.00  0.00    +0.033 C 
BRANCH  28  29
ATOM     29  C   UNL     1      34.483 -20.148 -20.850  0.00  0.00    -0.016 C 
ATOM     30  C   UNL     1      35.758 -20.371 -20.330  0.00  0.00    +0.033 C 
ATOM     31  C   UNL     1      33.365 -20.670 -20.201  0.00  0.00    +0.033 C 
ATOM     32  C   UNL     1      33.520 -21.417 -19.033  0.00  0.00    +0.141 C 
ATOM     33  C   UNL     1      35.914 -21.116 -19.162  0.00  0.00    +0.141 C 
ATOM     34  C   UNL     1      34.796 -21.640 -18.513  0.00  0.00    +0.074 C 
BRANCH  32  35
ATOM     35  O   UNL     1      32.429 -21.927 -18.400  0.00  0.00    -0.471 OA
ATOM     36  C   UNL     1      32.664 -22.689 -17.217  0.00  0.00    +0.252 C 
ENDBRANCH  32  35
BRANCH  33  37
ATOM     37  O   UNL     1      37.158 -21.333 -18.653  0.00  0.00    -0.471 OA
ATOM     38  C   UNL     1      37.251 -21.587 -17.252  0.00  0.00    +0.252 C 
ENDBRANCH  33  37
ENDBRANCH  28  29
ENDBRANCH  27  28
ENDBRANCH   6  27
TORSDOF 7
ENDMDL
MODEL 7
REMARK VINA RESULT:     -10.9      1.842      2.690
REMARK  Name = 51039095
REMARK  7 active torsions:
REMARK  status: ('A' for Active; 'I' for Inactive)
REMARK    1  A    between atoms: C_5  and  C_16
REMARK    2  A    between atoms: C_6  and  C_27
REMARK    3  A    between atoms: C_11  and  N_17
REMARK    4  A    between atoms: C_27  and  C_28
REMARK    5  A    between atoms: C_28  and  C_29
REMARK    6  A    between atoms: C_32  and  O_35
REMARK    7  A    between atoms: C_33  and  O_37
REMARK                            x       y       z     vdW  Elec       q    Type
REMARK                         _______ _______ _______ _____ _____    ______ ____
ROOT
ATOM      1  O   UNL     1      33.135 -20.425 -21.037  0.00  0.00    -0.270 OA
ATOM      2  N   UNL     1      35.325 -19.733 -20.557  0.00  0.00    -0.265 N 
ATOM      3  N   UNL     1      36.712 -17.676 -22.986  0.00  0.00    -0.239 N 
ATOM      4  N   UNL     1      36.833 -18.318 -21.811  0.00  0.00    -0.166 NA
ATOM      5  C   UNL     1      34.131 -20.420 -20.296  0.00  0.00    +0.251 C 
ATOM      6  C   UNL     1      35.501 -17.857 -23.590  0.00  0.00    +0.046 C 
ATOM      7  C   UNL     1      35.652 -18.926 -21.674  0.00  0.00    +0.153 C 
ATOM      8  C   UNL     1      34.782 -18.674 -22.752  0.00  0.00    +0.048 C 
ATOM      9  H   UNL     1      36.029 -19.824 -19.875  0.00  0.00    +0.157 HD
ATOM     10  H   UNL     1      37.429 -17.125 -23.374  0.00  0.00    +0.174 HD
ENDROOT
BRANCH   5  16
ATOM     11  C   UNL     1      34.045 -22.684 -16.707  0.00  0.00    +0.048 C 
ATOM     12  C   UNL     1      32.854 -22.362 -17.357  0.00  0.00    +0.015 C 
ATOM     13  C   UNL     1      35.265 -22.263 -17.236  0.00  0.00    +0.015 C 
ATOM     14  C   UNL     1      32.882 -21.619 -18.537  0.00  0.00    +0.006 C 
ATOM     15  C   UNL     1      35.293 -21.519 -18.416  0.00  0.00    +0.006 C 
ATOM     16  C   UNL     1      34.103 -21.197 -19.067  0.00  0.00    +0.054 C 
BRANCH  11  17
ATOM     17  N   UNL     1      34.018 -23.431 -15.524  0.00  0.00    -0.312 N 
ATOM     18  N   UNL     1      33.887 -24.760 -13.006  0.00  0.00    +0.389 N 
ATOM     19  C   UNL     1      35.167 -24.652 -13.715  0.00  0.00    -0.042 C 
ATOM     20  C   UNL     1      32.777 -24.877 -13.957  0.00  0.00    -0.042 C 
ATOM     21  C   UNL     1      35.181 -23.417 -14.629  0.00  0.00    +0.069 C 
ATOM     22  C   UNL     1      32.718 -23.648 -14.876  0.00  0.00    +0.069 C 
ATOM     23  C   UNL     1      31.470 -25.033 -13.182  0.00  0.00    -0.022 C 
ATOM     24  C   UNL     1      36.300 -24.575 -12.693  0.00  0.00    -0.022 C 
ATOM     25  H   UNL     1      33.751 -23.926 -12.433  0.00  0.00    -0.084 HD
ATOM     26  H   UNL     1      33.907 -25.592 -12.418  0.00  0.00    -0.084 HD
ENDBRANCH  11  17
ENDBRANCH   5  16
BRANCH   6  27
ATOM     27  C   UNL     1      35.170 -17.237 -24.883  0.00  0.00    +0.047 C 
BRANCH  27  28
ATOM     28  C   UNL     1      33.839 -16.445 -24.900  0.00  0.00    +0.033 C 
BRANCH  28  29
ATOM     29  C   UNL     1      33.975 -15.053 -24.331  0.00  0.00    -0.016 C 
ATOM     30  C   UNL     1      33.943 -13.945 -25.178  0.00  0.00    +0.033 C 
ATOM     31  C   UNL     1      34.131 -14.875 -22.956  0.00  0.00    +0.033 C 
ATOM     32  C   UNL     1      34.256 -13.590 -22.428  0.00  0.00    +0.141 C 
ATOM     33  C   UNL     1      34.067 -12.661 -24.651  0.00  0.00    +0.141 C 
ATOM     34  C   UNL     1      34.224 -12.482 -23.276  0.00  0.00    +0.074 C 
BRANCH  32  35
ATOM     35  O   UNL     1      34.408 -13.415 -21.087  0.00  0.00    -0.471 OA
ATOM     36  C   UNL     1      33.234 -13.523 -20.283  0.00  0.00    +0.252 C 
ENDBRANCH  32  35
BRANCH  33  37
ATOM     37  O   UNL     1      34.035 -11.579 -25.477  0.00  0.00    -0.471 OA
ATOM     38  C   UNL     1      34.786 -10.434 -25.076  0.00  0.00    +0.252 C 
ENDBRANCH  33  37
ENDBRANCH  28  29
ENDBRANCH  27  28
ENDBRANCH   6  27
TORSDOF 7
ENDMDL
MODEL 8
REMARK VINA RESULT:     -10.3      1.897      3.429
REMARK  Name = 51039095
REMARK  7 active torsions:
REMARK  status: ('A' for Active; 'I' for Inactive)
REMARK    1  A    between atoms: C_5  and  C_16
REMARK    2  A    between atoms: C_6  and  C_27
REMARK    3  A    between atoms: C_11  and  N_17
REMARK    4  A    between atoms: C_27  and  C_28
REMARK    5  A    between atoms: C_28  and  C_29
REMARK    6  A    between atoms: C_32  and  O_35
REMARK    7  A    between atoms: C_33  and  O_37
REMARK                            x       y       z     vdW  Elec       q    Type
REMARK                         _______ _______ _______ _____ _____    ______ ____
ROOT
ATOM      1  O   UNL     1      32.831 -20.276 -20.826  0.00  0.00    -0.270 OA
ATOM      2  N   UNL     1      35.115 -19.818 -20.549  0.00  0.00    -0.265 N 
ATOM      3  N   UNL     1      36.464 -17.833 -23.059  0.00  0.00    -0.239 N 
ATOM      4  N   UNL     1      36.631 -18.520 -21.915  0.00  0.00    -0.166 NA
ATOM      5  C   UNL     1      33.888 -20.391 -20.186  0.00  0.00    +0.251 C 
ATOM      6  C   UNL     1      35.189 -17.875 -23.545  0.00  0.00    +0.046 C 
ATOM      7  C   UNL     1      35.414 -19.012 -21.676  0.00  0.00    +0.153 C 
ATOM      8  C   UNL     1      34.475 -18.643 -22.658  0.00  0.00    +0.048 C 
ATOM      9  H   UNL     1      35.869 -19.999 -19.942  0.00  0.00    +0.157 HD
ATOM     10  H   UNL     1      37.193 -17.345 -23.503  0.00  0.00    +0.174 HD
ENDROOT
BRANCH   5  16
ATOM     11  C   UNL     1      33.921 -22.752 -16.660  0.00  0.00    +0.048 C 
ATOM     12  C   UNL     1      35.124 -22.345 -17.237  0.00  0.00    +0.015 C 
ATOM     13  C   UNL     1      32.707 -22.383 -17.240  0.00  0.00    +0.015 C 
ATOM     14  C   UNL     1      35.113 -21.569 -18.396  0.00  0.00    +0.006 C 
ATOM     15  C   UNL     1      32.697 -21.607 -18.399  0.00  0.00    +0.006 C 
ATOM     16  C   UNL     1      33.899 -21.199 -18.977  0.00  0.00    +0.054 C 
BRANCH  11  17
ATOM     17  N   UNL     1      33.931 -23.530 -15.497  0.00  0.00    -0.312 N 
ATOM     18  N   UNL     1      33.895 -24.922 -13.010  0.00  0.00    +0.389 N 
ATOM     19  C   UNL     1      35.124 -24.875 -13.808  0.00  0.00    -0.042 C 
ATOM     20  C   UNL     1      32.714 -24.941 -13.880  0.00  0.00    -0.042 C 
ATOM     21  C   UNL     1      35.153 -23.617 -14.690  0.00  0.00    +0.069 C 
ATOM     22  C   UNL     1      32.669 -23.685 -14.760  0.00  0.00    +0.069 C 
ATOM     23  C   UNL     1      31.458 -25.038 -13.015  0.00  0.00    -0.022 C 
ATOM     24  C   UNL     1      36.331 -24.900 -12.871  0.00  0.00    -0.022 C 
ATOM     25  H   UNL     1      33.854 -24.099 -12.408  0.00  0.00    -0.084 HD
ATOM     26  H   UNL     1      33.902 -25.772 -12.446  0.00  0.00    -0.084 HD
ENDBRANCH  11  17
ENDBRANCH   5  16
BRANCH   6  27
ATOM     27  C   UNL     1      34.800 -17.187 -24.785  0.00  0.00    +0.047 C 
BRANCH  27  28
ATOM     28  C   UNL     1      35.493 -15.820 -25.013  0.00  0.00    +0.033 C 
BRANCH  28  29
ATOM     29  C   UNL     1      34.849 -14.697 -24.235  0.00  0.00    -0.016 C 
ATOM     30  C   UNL     1      34.563 -14.861 -22.879  0.00  0.00    +0.033 C 
ATOM     31  C   UNL     1      34.543 -13.495 -24.872  0.00  0.00    +0.033 C 
ATOM     32  C   UNL     1      33.948 -12.457 -24.154  0.00  0.00    +0.141 C 
ATOM     33  C   UNL     1      33.970 -13.823 -22.162  0.00  0.00    +0.141 C 
ATOM     34  C   UNL     1      33.662 -12.621 -22.798  0.00  0.00    +0.074 C 
BRANCH  32  35
ATOM     35  O   UNL     1      33.649 -11.283 -24.775  0.00  0.00    -0.471 OA
ATOM     36  C   UNL     1      34.201 -10.094 -24.212  0.00  0.00    +0.252 C 
ENDBRANCH  32  35
BRANCH  33  37
ATOM     37  O   UNL     1      33.691 -13.983 -20.839  0.00  0.00    -0.471 OA
ATOM     38  C   UNL     1      32.450 -13.458 -20.369  0.00  0.00    +0.252 C 
ENDBRANCH  33  37
ENDBRANCH  28  29
ENDBRANCH  27  28
ENDBRANCH   6  27
TORSDOF 7
ENDMDL
MODEL 9
REMARK VINA RESULT:     -10.2      3.199     12.705
REMARK  Name = 51039095
REMARK  7 active torsions:
REMARK  status: ('A' for Active; 'I' for Inactive)
REMARK    1  A    between atoms: C_5  and  C_16
REMARK    2  A    between atoms: C_6  and  C_27
REMARK    3  A    between atoms: C_11  and  N_17
REMARK    4  A    between atoms: C_27  and  C_28
REMARK    5  A    between atoms: C_28  and  C_29
REMARK    6  A    between atoms: C_32  and  O_35
REMARK    7  A    between atoms: C_33  and  O_37
REMARK                            x       y       z     vdW  Elec       q    Type
REMARK                         _______ _______ _______ _____ _____    ______ ____
ROOT
ATOM      1  O   UNL     1      36.385 -18.455 -20.656  0.00  0.00    -0.270 OA
ATOM      2  N   UNL     1      34.121 -19.036 -20.856  0.00  0.00    -0.265 N 
ATOM      3  N   UNL     1      33.275 -21.976 -19.214  0.00  0.00    -0.239 N 
ATOM      4  N   UNL     1      32.902 -20.928 -19.968  0.00  0.00    -0.166 NA
ATOM      5  C   UNL     1      35.243 -18.227 -21.085  0.00  0.00    +0.251 C 
ATOM      6  C   UNL     1      34.599 -21.974 -18.883  0.00  0.00    +0.046 C 
ATOM      7  C   UNL     1      34.038 -20.242 -20.116  0.00  0.00    +0.153 C 
ATOM      8  C   UNL     1      35.128 -20.846 -19.462  0.00  0.00    +0.048 C 
ATOM      9  H   UNL     1      33.280 -18.726 -21.263  0.00  0.00    +0.157 HD
ATOM     10  H   UNL     1      32.650 -22.679 -18.926  0.00  0.00    +0.174 HD
ENDROOT
BRANCH   5  16
ATOM     11  C   UNL     1      34.589 -14.804 -23.506  0.00  0.00    +0.048 C 
ATOM     12  C   UNL     1      34.665 -14.673 -22.119  0.00  0.00    +0.015 C 
ATOM     13  C   UNL     1      34.729 -16.059 -24.098  0.00  0.00    +0.015 C 
ATOM     14  C   UNL     1      34.880 -15.798 -21.324  0.00  0.00    +0.006 C 
ATOM     15  C   UNL     1      34.944 -17.184 -23.302  0.00  0.00    +0.006 C 
ATOM     16  C   UNL     1      35.020 -17.054 -21.915  0.00  0.00    +0.054 C 
BRANCH  11  17
ATOM     17  N   UNL     1      34.373 -13.676 -24.306  0.00  0.00    -0.312 N 
ATOM     18  N   UNL     1      33.749 -11.331 -25.802  0.00  0.00    +0.389 N 
ATOM     19  C   UNL     1      33.774 -12.641 -26.462  0.00  0.00    -0.042 C 
ATOM     20  C   UNL     1      34.748 -11.274 -24.730  0.00  0.00    -0.042 C 
ATOM     21  C   UNL     1      33.470 -13.763 -25.459  0.00  0.00    +0.069 C 
ATOM     22  C   UNL     1      34.472 -12.353 -23.673  0.00  0.00    +0.069 C 
ATOM     23  C   UNL     1      34.723  -9.884 -24.098  0.00  0.00    -0.022 C 
ATOM     24  C   UNL     1      32.752 -12.647 -27.599  0.00  0.00    -0.022 C 
ATOM     25  H   UNL     1      32.822 -11.175 -25.404  0.00  0.00    -0.084 HD
ATOM     26  H   UNL     1      33.964 -10.612 -26.491  0.00  0.00    -0.084 HD
ENDBRANCH  11  17
ENDBRANCH   5  16
BRANCH   6  27
ATOM     27  C   UNL     1      35.203 -23.035 -18.062  0.00  0.00    +0.047 C 
BRANCH  27  28
ATOM     28  C   UNL     1      35.539 -22.617 -16.608  0.00  0.00    +0.033 C 
BRANCH  28  29
ATOM     29  C   UNL     1      34.565 -23.172 -15.596  0.00  0.00    -0.016 C 
ATOM     30  C   UNL     1      35.000 -23.489 -14.309  0.00  0.00    +0.033 C 
ATOM     31  C   UNL     1      33.230 -23.364 -15.948  0.00  0.00    +0.033 C 
ATOM     32  C   UNL     1      32.329 -23.876 -15.015  0.00  0.00    +0.141 C 
ATOM     33  C   UNL     1      34.100 -24.000 -13.375  0.00  0.00    +0.141 C 
ATOM     34  C   UNL     1      32.764 -24.194 -13.727  0.00  0.00    +0.074 C 
BRANCH  32  35
ATOM     35  O   UNL     1      31.025 -24.064 -15.357  0.00  0.00    -0.471 OA
ATOM     36  C   UNL     1      30.311 -25.081 -14.656  0.00  0.00    +0.252 C 
ENDBRANCH  32  35
BRANCH  33  37
ATOM     37  O   UNL     1      34.523 -24.309 -12.119  0.00  0.00    -0.471 OA
ATOM     38  C   UNL     1      35.805 -23.819 -11.727  0.00  0.00    +0.252 C 
ENDBRANCH  33  37
ENDBRANCH  28  29
ENDBRANCH  27  28
ENDBRANCH   6  27
TORSDOF 7
ENDMDL
