MODEL 1
REMARK VINA RESULT:     -12.3      0.000      0.000
REMARK  Name = 9808844
REMARK  5 active torsions:
REMARK  status: ('A' for Active; 'I' for Inactive)
REMARK    1  A    between atoms: N_2  and  C_13
REMARK    2  A    between atoms: C_8  and  O_19
REMARK    3  A    between atoms: O_19  and  C_20
REMARK    4  A    between atoms: C_20  and  C_22
REMARK    5  A    between atoms: C_25  and  C_29
REMARK                            x       y       z     vdW  Elec       q    Type
REMARK                         _______ _______ _______ _____ _____    ______ ____
ROOT
ATOM      1  O   UNL     1      35.611 -22.768 -16.943  0.00  0.00    -0.446 OA
ATOM      2  N   UNL     1      35.869 -19.652 -20.445  0.00  0.00    -0.296 N 
ATOM      3  N   UNL     1      33.820 -20.793 -19.987  0.00  0.00    -0.130 NA
ATOM      4  N   UNL     1      33.051 -21.697 -19.264  0.00  0.00    -0.106 NA
ATOM      5  C   UNL     1      35.694 -21.275 -18.637  0.00  0.00    +0.076 A 
ATOM      6  C   UNL     1      34.897 -22.170 -17.937  0.00  0.00    +0.202 A 
ATOM      7  C   UNL     1      35.122 -20.574 -19.692  0.00  0.00    +0.157 A 
ATOM      8  C   UNL     1      33.570 -22.396 -18.236  0.00  0.00    +0.279 A 
ATOM      9  C   UNL     1      36.973 -21.338 -18.024  0.00  0.00    +0.047 C 
ATOM     10  C   UNL     1      36.869 -22.256 -17.003  0.00  0.00    +0.180 C 
ATOM     11  H   UNL     1      36.804 -19.566 -20.149  0.00  0.00    +0.154 HD
ENDROOT
BRANCH   2  13
ATOM     12 CL   UNL     1      34.513 -16.174 -25.041  0.00  0.00    -0.082 Cl
ATOM     13  C   UNL     1      35.546 -18.823 -21.541  0.00  0.00    +0.049 C 
ATOM     14  C   UNL     1      35.703 -17.441 -21.439  0.00  0.00    +0.016 C 
ATOM     15  C   UNL     1      35.070 -19.386 -22.725  0.00  0.00    +0.016 C 
ATOM     16  C   UNL     1      35.384 -16.622 -22.522  0.00  0.00    +0.013 C 
ATOM     17  C   UNL     1      34.751 -18.567 -23.807  0.00  0.00    +0.013 C 
ATOM     18  C   UNL     1      34.908 -17.185 -23.705  0.00  0.00    +0.058 C 
ENDBRANCH   2  13
BRANCH   8  19
ATOM     19  O   UNL     1      32.776 -23.277 -17.551  0.00  0.00    -0.452 OA
BRANCH  19  20
ATOM     20  C   UNL     1      31.880 -22.723 -16.594  0.00  0.00    +0.234 C 
BRANCH  20  22
ATOM     21  N   UNL     1      32.389 -24.760 -12.857  0.00  0.00    -0.239 NA
ATOM     22  C   UNL     1      32.059 -23.436 -15.285  0.00  0.00    +0.024 C 
ATOM     23  C   UNL     1      33.273 -23.367 -14.624  0.00  0.00    +0.023 C 
ATOM     24  C   UNL     1      31.007 -24.161 -14.748  0.00  0.00    +0.020 C 
ATOM     25  C   UNL     1      33.387 -24.042 -13.419  0.00  0.00    +0.134 C 
ATOM     26  C   UNL     1      31.221 -24.801 -13.538  0.00  0.00    +0.099 C 
BRANCH  25  29
ATOM     27  O   UNL     1      34.772 -24.686 -11.640  0.00  0.00    -0.268 OA
ATOM     28  N   UNL     1      35.661 -23.207 -13.188  0.00  0.00    -0.298 N 
ATOM     29  C   UNL     1      34.634 -24.009 -12.675  0.00  0.00    +0.264 C 
ATOM     30  C   UNL     1      36.965 -23.088 -12.576  0.00  0.00    +0.111 C 
ATOM     31  H   UNL     1      35.485 -22.697 -14.011  0.00  0.00    +0.150 HD
ENDBRANCH  25  29
ENDBRANCH  20  22
ENDBRANCH  19  20
ENDBRANCH   8  19
TORSDOF 5
ENDMDL
MODEL 2
REMARK VINA RESULT:     -12.0      2.428      3.928
REMARK  Name = 9808844
REMARK  5 active torsions:
REMARK  status: ('A' for Active; 'I' for Inactive)
REMARK    1  A    between atoms: N_2  and  C_13
REMARK    2  A    between atoms: C_8  and  O_19
REMARK    3  A    between atoms: O_19  and  C_20
REMARK    4  A    between atoms: C_20  and  C_22
REMARK    5  A    between atoms: C_25  and  C_29
REMARK                            x       y       z     vdW  Elec       q    Type
REMARK                         _______ _______ _______ _____ _____    ______ ____
ROOT
ATOM      1  O   UNL     1      35.504 -22.795 -16.898  0.00  0.00    -0.446 OA
ATOM      2  N   UNL     1      35.833 -19.708 -20.420  0.00  0.00    -0.296 N 
ATOM      3  N   UNL     1      33.754 -20.784 -19.941  0.00  0.00    -0.130 NA
ATOM      4  N   UNL     1      32.962 -21.659 -19.208  0.00  0.00    -0.106 NA
ATOM      5  C   UNL     1      35.621 -21.315 -18.601  0.00  0.00    +0.076 A 
ATOM      6  C   UNL     1      34.802 -22.181 -17.890  0.00  0.00    +0.202 A 
ATOM      7  C   UNL     1      35.063 -20.602 -19.656  0.00  0.00    +0.157 A 
ATOM      8  C   UNL     1      33.466 -22.368 -18.178  0.00  0.00    +0.279 A 
ATOM      9  C   UNL     1      36.902 -21.414 -17.996  0.00  0.00    +0.047 C 
ATOM     10  C   UNL     1      36.777 -22.322 -16.970  0.00  0.00    +0.180 C 
ATOM     11  H   UNL     1      36.772 -19.650 -20.130  0.00  0.00    +0.154 HD
ENDROOT
BRANCH   2  13
ATOM     12 CL   UNL     1      34.552 -16.216 -25.027  0.00  0.00    -0.082 Cl
ATOM     13  C   UNL     1      35.528 -18.876 -21.518  0.00  0.00    +0.049 C 
ATOM     14  C   UNL     1      35.723 -17.498 -21.424  0.00  0.00    +0.016 C 
ATOM     15  C   UNL     1      35.032 -19.431 -22.697  0.00  0.00    +0.016 C 
ATOM     16  C   UNL     1      35.422 -16.676 -22.508  0.00  0.00    +0.013 C 
ATOM     17  C   UNL     1      34.731 -18.609 -23.782  0.00  0.00    +0.013 C 
ATOM     18  C   UNL     1      34.926 -17.231 -23.688  0.00  0.00    +0.058 C 
ENDBRANCH   2  13
BRANCH   8  19
ATOM     19  O   UNL     1      32.650 -23.220 -17.483  0.00  0.00    -0.452 OA
BRANCH  19  20
ATOM     20  C   UNL     1      32.421 -22.913 -16.113  0.00  0.00    +0.234 C 
BRANCH  20  22
ATOM     21  N   UNL     1      28.535 -24.334 -14.993  0.00  0.00    -0.239 NA
ATOM     22  C   UNL     1      31.059 -23.409 -15.721  0.00  0.00    +0.024 C 
ATOM     23  C   UNL     1      29.939 -22.647 -16.006  0.00  0.00    +0.023 C 
ATOM     24  C   UNL     1      30.933 -24.630 -15.075  0.00  0.00    +0.020 C 
ATOM     25  C   UNL     1      28.706 -23.151 -15.624  0.00  0.00    +0.134 C 
ATOM     26  C   UNL     1      29.655 -25.044 -14.734  0.00  0.00    +0.099 C 
BRANCH  25  29
ATOM     27  O   UNL     1      26.678 -22.163 -14.983  0.00  0.00    -0.268 OA
ATOM     28  N   UNL     1      27.303 -21.945 -17.205  0.00  0.00    -0.298 N 
ATOM     29  C   UNL     1      27.492 -22.400 -15.894  0.00  0.00    +0.264 C 
ATOM     30  C   UNL     1      26.160 -21.167 -17.624  0.00  0.00    +0.111 C 
ATOM     31  H   UNL     1      27.987 -22.167 -17.877  0.00  0.00    +0.150 HD
ENDBRANCH  25  29
ENDBRANCH  20  22
ENDBRANCH  19  20
ENDBRANCH   8  19
TORSDOF 5
ENDMDL
MODEL 3
REMARK VINA RESULT:     -11.5      2.349      3.938
REMARK  Name = 9808844
REMARK  5 active torsions:
REMARK  status: ('A' for Active; 'I' for Inactive)
REMARK    1  A    between atoms: N_2  and  C_13
REMARK    2  A    between atoms: C_8  and  O_19
REMARK    3  A    between atoms: O_19  and  C_20
REMARK    4  A    between atoms: C_20  and  C_22
REMARK    5  A    between atoms: C_25  and  C_29
REMARK                            x       y       z     vdW  Elec       q    Type
REMARK                         _______ _______ _______ _____ _____    ______ ____
ROOT
ATOM      1  O   UNL     1      36.351 -22.896 -15.909  0.00  0.00    -0.446 OA
ATOM      2  N   UNL     1      36.536 -20.173 -19.729  0.00  0.00    -0.296 N 
ATOM      3  N   UNL     1      34.529 -21.345 -19.172  0.00  0.00    -0.130 NA
ATOM      4  N   UNL     1      33.787 -22.197 -18.363  0.00  0.00    -0.106 NA
ATOM      5  C   UNL     1      36.399 -21.595 -17.755  0.00  0.00    +0.076 A 
ATOM      6  C   UNL     1      35.628 -22.442 -16.970  0.00  0.00    +0.202 A 
ATOM      7  C   UNL     1      35.815 -21.038 -18.888  0.00  0.00    +0.157 A 
ATOM      8  C   UNL     1      34.317 -22.756 -17.258  0.00  0.00    +0.279 A 
ATOM      9  C   UNL     1      37.669 -21.536 -17.124  0.00  0.00    +0.047 C 
ATOM     10  C   UNL     1      37.587 -22.340 -16.010  0.00  0.00    +0.180 C 
ATOM     11  H   UNL     1      37.461 -20.016 -19.433  0.00  0.00    +0.154 HD
ENDROOT
BRANCH   2  13
ATOM     12 CL   UNL     1      35.112 -17.280 -24.695  0.00  0.00    -0.082 Cl
ATOM     13  C   UNL     1      36.196 -19.483 -20.913  0.00  0.00    +0.049 C 
ATOM     14  C   UNL     1      34.923 -19.627 -21.462  0.00  0.00    +0.016 C 
ATOM     15  C   UNL     1      37.135 -18.658 -21.532  0.00  0.00    +0.016 C 
ATOM     16  C   UNL     1      34.587 -18.946 -22.631  0.00  0.00    +0.013 C 
ATOM     17  C   UNL     1      36.799 -17.977 -22.701  0.00  0.00    +0.013 C 
ATOM     18  C   UNL     1      35.526 -18.120 -23.251  0.00  0.00    +0.058 C 
ENDBRANCH   2  13
BRANCH   8  19
ATOM     19  O   UNL     1      33.549 -23.591 -16.490  0.00  0.00    -0.452 OA
BRANCH  19  20
ATOM     20  C   UNL     1      32.948 -23.023 -15.331  0.00  0.00    +0.234 C 
BRANCH  20  22
ATOM     21  N   UNL     1      29.001 -24.629 -14.875  0.00  0.00    -0.239 NA
ATOM     22  C   UNL     1      31.565 -23.585 -15.172  0.00  0.00    +0.024 C 
ATOM     23  C   UNL     1      30.536 -23.120 -15.973  0.00  0.00    +0.023 C 
ATOM     24  C   UNL     1      31.327 -24.567 -14.223  0.00  0.00    +0.020 C 
ATOM     25  C   UNL     1      29.279 -23.671 -15.787  0.00  0.00    +0.134 C 
ATOM     26  C   UNL     1      30.035 -25.053 -14.115  0.00  0.00    +0.099 C 
BRANCH  25  29
ATOM     27  O   UNL     1      27.767 -23.904 -17.565  0.00  0.00    -0.268 OA
ATOM     28  N   UNL     1      27.534 -22.031 -16.219  0.00  0.00    -0.298 N 
ATOM     29  C   UNL     1      28.157 -23.227 -16.596  0.00  0.00    +0.264 C 
ATOM     30  C   UNL     1      26.393 -21.472 -16.907  0.00  0.00    +0.111 C 
ATOM     31  H   UNL     1      27.892 -21.545 -15.442  0.00  0.00    +0.150 HD
ENDBRANCH  25  29
ENDBRANCH  20  22
ENDBRANCH  19  20
ENDBRANCH   8  19
TORSDOF 5
ENDMDL
MODEL 4
REMARK VINA RESULT:     -11.4      2.673      4.837
REMARK  Name = 9808844
REMARK  5 active torsions:
REMARK  status: ('A' for Active; 'I' for Inactive)
REMARK    1  A    between atoms: N_2  and  C_13
REMARK    2  A    between atoms: C_8  and  O_19
REMARK    3  A    between atoms: O_19  and  C_20
REMARK    4  A    between atoms: C_20  and  C_22
REMARK    5  A    between atoms: C_25  and  C_29
REMARK                            x       y       z     vdW  Elec       q    Type
REMARK                         _______ _______ _______ _____ _____    ______ ____
ROOT
ATOM      1  O   UNL     1      31.805 -24.231 -14.798  0.00  0.00    -0.446 OA
ATOM      2  N   UNL     1      32.990 -21.604 -18.503  0.00  0.00    -0.296 N 
ATOM      3  N   UNL     1      34.673 -22.681 -17.194  0.00  0.00    -0.130 NA
ATOM      4  N   UNL     1      35.082 -23.485 -16.136  0.00  0.00    -0.106 NA
ATOM      5  C   UNL     1      32.416 -22.976 -16.573  0.00  0.00    +0.076 A 
ATOM      6  C   UNL     1      32.860 -23.773 -15.527  0.00  0.00    +0.202 A 
ATOM      7  C   UNL     1      33.366 -22.421 -17.423  0.00  0.00    +0.157 A 
ATOM      8  C   UNL     1      34.192 -24.040 -15.291  0.00  0.00    +0.279 A 
ATOM      9  C   UNL     1      31.001 -22.953 -16.466  0.00  0.00    +0.047 C 
ATOM     10  C   UNL     1      30.682 -23.730 -15.376  0.00  0.00    +0.180 C 
ATOM     11  H   UNL     1      32.017 -21.477 -18.581  0.00  0.00    +0.154 HD
ENDROOT
BRANCH   2  13
ATOM     12 CL   UNL     1      36.090 -18.774 -22.679  0.00  0.00    -0.082 Cl
ATOM     13  C   UNL     1      33.729 -20.929 -19.499  0.00  0.00    +0.049 C 
ATOM     14  C   UNL     1      33.069 -20.154 -20.451  0.00  0.00    +0.016 C 
ATOM     15  C   UNL     1      35.119 -21.038 -19.528  0.00  0.00    +0.016 C 
ATOM     16  C   UNL     1      33.799 -19.487 -21.435  0.00  0.00    +0.013 C 
ATOM     17  C   UNL     1      35.849 -20.371 -20.512  0.00  0.00    +0.013 C 
ATOM     18  C   UNL     1      35.189 -19.596 -21.464  0.00  0.00    +0.058 C 
ENDBRANCH   2  13
BRANCH   8  19
ATOM     19  O   UNL     1      34.639 -24.825 -14.261  0.00  0.00    -0.452 OA
BRANCH  19  20
ATOM     20  C   UNL     1      34.816 -24.187 -13.001  0.00  0.00    +0.234 C 
BRANCH  20  22
ATOM     21  N   UNL     1      39.011 -23.831 -12.192  0.00  0.00    -0.239 NA
ATOM     22  C   UNL     1      36.286 -24.063 -12.718  0.00  0.00    +0.024 C 
ATOM     23  C   UNL     1      37.195 -24.788 -13.470  0.00  0.00    +0.023 C 
ATOM     24  C   UNL     1      36.722 -23.224 -11.705  0.00  0.00    +0.020 C 
ATOM     25  C   UNL     1      38.540 -24.637 -13.170  0.00  0.00    +0.134 C 
ATOM     26  C   UNL     1      38.087 -23.143 -11.483  0.00  0.00    +0.099 C 
BRANCH  25  29
ATOM     27  O   UNL     1      40.737 -25.011 -13.899  0.00  0.00    -0.268 OA
ATOM     28  N   UNL     1      39.112 -26.490 -14.639  0.00  0.00    -0.298 N 
ATOM     29  C   UNL     1      39.545 -25.368 -13.921  0.00  0.00    +0.264 C 
ATOM     30  C   UNL     1      39.995 -27.333 -15.414  0.00  0.00    +0.111 C 
ATOM     31  H   UNL     1      38.155 -26.718 -14.613  0.00  0.00    +0.150 HD
ENDBRANCH  25  29
ENDBRANCH  20  22
ENDBRANCH  19  20
ENDBRANCH   8  19
TORSDOF 5
ENDMDL
MODEL 5
REMARK VINA RESULT:     -11.1      7.430     11.170
REMARK  Name = 9808844
REMARK  5 active torsions:
REMARK  status: ('A' for Active; 'I' for Inactive)
REMARK    1  A    between atoms: N_2  and  C_13
REMARK    2  A    between atoms: C_8  and  O_19
REMARK    3  A    between atoms: O_19  and  C_20
REMARK    4  A    between atoms: C_20  and  C_22
REMARK    5  A    between atoms: C_25  and  C_29
REMARK                            x       y       z     vdW  Elec       q    Type
REMARK                         _______ _______ _______ _____ _____    ______ ____
ROOT
ATOM      1  O   UNL     1      32.608 -13.525 -21.336  0.00  0.00    -0.446 OA
ATOM      2  N   UNL     1      32.687  -8.960 -22.431  0.00  0.00    -0.296 N 
ATOM      3  N   UNL     1      33.576 -10.585 -23.942  0.00  0.00    -0.130 NA
ATOM      4  N   UNL     1      33.878 -11.892 -24.304  0.00  0.00    -0.106 NA
ATOM      5  C   UNL     1      32.664 -11.338 -21.900  0.00  0.00    +0.076 A 
ATOM      6  C   UNL     1      32.982 -12.631 -22.293  0.00  0.00    +0.202 A 
ATOM      7  C   UNL     1      32.979 -10.294 -22.764  0.00  0.00    +0.157 A 
ATOM      8  C   UNL     1      33.590 -12.930 -23.494  0.00  0.00    +0.279 A 
ATOM      9  C   UNL     1      32.060 -11.462 -20.622  0.00  0.00    +0.047 C 
ATOM     10  C   UNL     1      32.050 -12.806 -20.326  0.00  0.00    +0.180 C 
ATOM     11  H   UNL     1      32.254  -8.858 -21.554  0.00  0.00    +0.154 HD
ENDROOT
BRANCH   2  13
ATOM     12 CL   UNL     1      33.542  -3.830 -25.261  0.00  0.00    -0.082 Cl
ATOM     13  C   UNL     1      32.891  -7.737 -23.106  0.00  0.00    +0.049 C 
ATOM     14  C   UNL     1      34.157  -7.153 -23.122  0.00  0.00    +0.016 C 
ATOM     15  C   UNL     1      31.826  -7.114 -23.757  0.00  0.00    +0.016 C 
ATOM     16  C   UNL     1      34.359  -5.945 -23.789  0.00  0.00    +0.013 C 
ATOM     17  C   UNL     1      32.028  -5.906 -24.423  0.00  0.00    +0.013 C 
ATOM     18  C   UNL     1      33.294  -5.322 -24.439  0.00  0.00    +0.058 C 
ENDBRANCH   2  13
BRANCH   8  19
ATOM     19  O   UNL     1      33.907 -14.202 -23.890  0.00  0.00    -0.452 OA
BRANCH  19  20
ATOM     20  C   UNL     1      35.173 -14.704 -23.479  0.00  0.00    +0.234 C 
BRANCH  20  22
ATOM     21  N   UNL     1      35.004 -18.985 -23.356  0.00  0.00    -0.239 NA
ATOM     22  C   UNL     1      35.115 -16.204 -23.435  0.00  0.00    +0.024 C 
ATOM     23  C   UNL     1      35.568 -16.878 -22.314  0.00  0.00    +0.023 C 
ATOM     24  C   UNL     1      34.607 -16.904 -24.518  0.00  0.00    +0.020 C 
ATOM     25  C   UNL     1      35.491 -18.262 -22.323  0.00  0.00    +0.134 C 
ATOM     26  C   UNL     1      34.574 -18.286 -24.429  0.00  0.00    +0.099 C 
BRANCH  25  29
ATOM     27  O   UNL     1      36.993 -18.710 -20.578  0.00  0.00    -0.268 OA
ATOM     28  N   UNL     1      35.157 -20.112 -20.778  0.00  0.00    -0.298 N 
ATOM     29  C   UNL     1      35.950 -19.029 -21.178  0.00  0.00    +0.264 C 
ATOM     30  C   UNL     1      35.466 -20.955 -19.646  0.00  0.00    +0.111 C 
ATOM     31  H   UNL     1      34.344 -20.309 -21.297  0.00  0.00    +0.150 HD
ENDBRANCH  25  29
ENDBRANCH  20  22
ENDBRANCH  19  20
ENDBRANCH   8  19
TORSDOF 5
ENDMDL
MODEL 6
REMARK VINA RESULT:     -10.9      6.122     11.672
REMARK  Name = 9808844
REMARK  5 active torsions:
REMARK  status: ('A' for Active; 'I' for Inactive)
REMARK    1  A    between atoms: N_2  and  C_13
REMARK    2  A    between atoms: C_8  and  O_19
REMARK    3  A    between atoms: O_19  and  C_20
REMARK    4  A    between atoms: C_20  and  C_22
REMARK    5  A    between atoms: C_25  and  C_29
REMARK                            x       y       z     vdW  Elec       q    Type
REMARK                         _______ _______ _______ _____ _____    ______ ____
ROOT
ATOM      1  O   UNL     1      34.961 -17.126 -24.628  0.00  0.00    -0.446 OA
ATOM      2  N   UNL     1      35.244 -20.297 -21.177  0.00  0.00    -0.296 N 
ATOM      3  N   UNL     1      35.446 -17.965 -20.699  0.00  0.00    -0.130 NA
ATOM      4  N   UNL     1      35.472 -16.629 -21.081  0.00  0.00    -0.106 NA
ATOM      5  C   UNL     1      35.102 -18.620 -22.939  0.00  0.00    +0.076 A 
ATOM      6  C   UNL     1      35.134 -17.276 -23.285  0.00  0.00    +0.202 A 
ATOM      7  C   UNL     1      35.265 -18.957 -21.600  0.00  0.00    +0.157 A 
ATOM      8  C   UNL     1      35.318 -16.263 -22.368  0.00  0.00    +0.279 A 
ATOM      9  C   UNL     1      34.896 -19.326 -24.154  0.00  0.00    +0.047 C 
ATOM     10  C   UNL     1      34.816 -18.375 -25.146  0.00  0.00    +0.180 C 
ATOM     11  H   UNL     1      35.107 -20.940 -21.910  0.00  0.00    +0.154 HD
ENDROOT
BRANCH   2  13
ATOM     12 CL   UNL     1      35.812 -22.850 -15.865  0.00  0.00    -0.082 Cl
ATOM     13  C   UNL     1      35.379 -20.906 -19.911  0.00  0.00    +0.049 C 
ATOM     14  C   UNL     1      36.620 -20.920 -19.274  0.00  0.00    +0.016 C 
ATOM     15  C   UNL     1      34.272 -21.492 -19.297  0.00  0.00    +0.016 C 
ATOM     16  C   UNL     1      36.754 -21.521 -18.022  0.00  0.00    +0.013 C 
ATOM     17  C   UNL     1      34.407 -22.093 -18.046  0.00  0.00    +0.013 C 
ATOM     18  C   UNL     1      35.647 -22.107 -17.409  0.00  0.00    +0.058 C 
ENDBRANCH   2  13
BRANCH   8  19
ATOM     19  O   UNL     1      35.352 -14.934 -22.701  0.00  0.00    -0.452 OA
BRANCH  19  20
ATOM     20  C   UNL     1      34.150 -14.196 -22.509  0.00  0.00    +0.234 C 
BRANCH  20  22
ATOM     21  N   UNL     1      33.856 -11.196 -25.557  0.00  0.00    -0.239 NA
ATOM     22  C   UNL     1      34.047 -13.145 -23.576  0.00  0.00    +0.024 C 
ATOM     23  C   UNL     1      34.079 -11.805 -23.228  0.00  0.00    +0.023 C 
ATOM     24  C   UNL     1      33.920 -13.523 -24.903  0.00  0.00    +0.020 C 
ATOM     25  C   UNL     1      33.981 -10.874 -24.250  0.00  0.00    +0.134 C 
ATOM     26  C   UNL     1      33.828 -12.516 -25.850  0.00  0.00    +0.099 C 
BRANCH  25  29
ATOM     27  O   UNL     1      32.967  -8.853 -23.627  0.00  0.00    -0.268 OA
ATOM     28  N   UNL     1      35.251  -8.811 -24.026  0.00  0.00    -0.298 N 
ATOM     29  C   UNL     1      34.009  -9.453 -23.952  0.00  0.00    +0.264 C 
ATOM     30  C   UNL     1      35.445  -7.408 -23.736  0.00  0.00    +0.111 C 
ATOM     31  H   UNL     1      36.035  -9.344 -24.289  0.00  0.00    +0.150 HD
ENDBRANCH  25  29
ENDBRANCH  20  22
ENDBRANCH  19  20
ENDBRANCH   8  19
TORSDOF 5
ENDMDL
MODEL 7
REMARK VINA RESULT:     -10.7      7.931     11.738
REMARK  Name = 9808844
REMARK  5 active torsions:
REMARK  status: ('A' for Active; 'I' for Inactive)
REMARK    1  A    between atoms: N_2  and  C_13
REMARK    2  A    between atoms: C_8  and  O_19
REMARK    3  A    between atoms: O_19  and  C_20
REMARK    4  A    between atoms: C_20  and  C_22
REMARK    5  A    between atoms: C_25  and  C_29
REMARK                            x       y       z     vdW  Elec       q    Type
REMARK                         _______ _______ _______ _____ _____    ______ ____
ROOT
ATOM      1  O   UNL     1      32.146 -12.582 -21.171  0.00  0.00    -0.446 OA
ATOM      2  N   UNL     1      32.604  -8.185 -22.750  0.00  0.00    -0.296 N 
ATOM      3  N   UNL     1      33.649 -10.001 -23.900  0.00  0.00    -0.130 NA
ATOM      4  N   UNL     1      33.947 -11.349 -24.056  0.00  0.00    -0.106 NA
ATOM      5  C   UNL     1      32.390 -10.481 -21.963  0.00  0.00    +0.076 A 
ATOM      6  C   UNL     1      32.708 -11.820 -22.150  0.00  0.00    +0.202 A 
ATOM      7  C   UNL     1      32.885  -9.556 -22.877  0.00  0.00    +0.157 A 
ATOM      8  C   UNL     1      33.486 -12.275 -23.192  0.00  0.00    +0.279 A 
ATOM      9  C   UNL     1      31.585 -10.435 -20.796  0.00  0.00    +0.047 C 
ATOM     10  C   UNL     1      31.466 -11.734 -20.355  0.00  0.00    +0.180 C 
ATOM     11  H   UNL     1      32.041  -7.968 -21.973  0.00  0.00    +0.154 HD
ENDROOT
BRANCH   2  13
ATOM     12 CL   UNL     1      34.131  -3.454 -25.967  0.00  0.00    -0.082 Cl
ATOM     13  C   UNL     1      32.968  -7.057 -23.517  0.00  0.00    +0.049 C 
ATOM     14  C   UNL     1      31.992  -6.338 -24.206  0.00  0.00    +0.016 C 
ATOM     15  C   UNL     1      34.304  -6.662 -23.585  0.00  0.00    +0.016 C 
ATOM     16  C   UNL     1      32.351  -5.224 -24.963  0.00  0.00    +0.013 C 
ATOM     17  C   UNL     1      34.664  -5.548 -24.342  0.00  0.00    +0.013 C 
ATOM     18  C   UNL     1      33.687  -4.829 -25.031  0.00  0.00    +0.058 C 
ENDBRANCH   2  13
BRANCH   8  19
ATOM     19  O   UNL     1      33.805 -13.593 -23.384  0.00  0.00    -0.452 OA
BRANCH  19  20
ATOM     20  C   UNL     1      34.887 -14.108 -22.616  0.00  0.00    +0.234 C 
BRANCH  20  22
ATOM     21  N   UNL     1      35.486 -18.227 -23.639  0.00  0.00    -0.239 NA
ATOM     22  C   UNL     1      35.098 -15.551 -22.973  0.00  0.00    +0.024 C 
ATOM     23  C   UNL     1      35.658 -16.415 -22.048  0.00  0.00    +0.023 C 
ATOM     24  C   UNL     1      34.729 -16.009 -24.229  0.00  0.00    +0.020 C 
ATOM     25  C   UNL     1      35.830 -17.737 -22.427  0.00  0.00    +0.134 C 
ATOM     26  C   UNL     1      34.943 -17.348 -24.511  0.00  0.00    +0.099 C 
BRANCH  25  29
ATOM     27  O   UNL     1      37.637 -18.695 -21.279  0.00  0.00    -0.268 OA
ATOM     28  N   UNL     1      35.535 -19.585 -20.872  0.00  0.00    -0.298 N 
ATOM     29  C   UNL     1      36.412 -18.695 -21.503  0.00  0.00    +0.264 C 
ATOM     30  C   UNL     1      35.957 -20.578 -19.911  0.00  0.00    +0.111 C 
ATOM     31  H   UNL     1      34.578 -19.530 -21.094  0.00  0.00    +0.150 HD
ENDBRANCH  25  29
ENDBRANCH  20  22
ENDBRANCH  19  20
ENDBRANCH   8  19
TORSDOF 5
ENDMDL
MODEL 8
REMARK VINA RESULT:     -10.6      4.594     10.172
REMARK  Name = 9808844
REMARK  5 active torsions:
REMARK  status: ('A' for Active; 'I' for Inactive)
REMARK    1  A    between atoms: N_2  and  C_13
REMARK    2  A    between atoms: C_8  and  O_19
REMARK    3  A    between atoms: O_19  and  C_20
REMARK    4  A    between atoms: C_20  and  C_22
REMARK    5  A    between atoms: C_25  and  C_29
REMARK                            x       y       z     vdW  Elec       q    Type
REMARK                         _______ _______ _______ _____ _____    ______ ____
ROOT
ATOM      1  O   UNL     1      33.788 -19.984 -20.880  0.00  0.00    -0.446 OA
ATOM      2  N   UNL     1      34.985 -22.460 -17.075  0.00  0.00    -0.296 N 
ATOM      3  N   UNL     1      36.663 -21.414 -18.418  0.00  0.00    -0.130 NA
ATOM      4  N   UNL     1      37.067 -20.647 -19.504  0.00  0.00    -0.106 NA
ATOM      5  C   UNL     1      34.405 -21.166 -19.057  0.00  0.00    +0.076 A 
ATOM      6  C   UNL     1      34.845 -20.404 -20.131  0.00  0.00    +0.202 A 
ATOM      7  C   UNL     1      35.358 -21.680 -18.183  0.00  0.00    +0.157 A 
ATOM      8  C   UNL     1      36.175 -20.132 -20.372  0.00  0.00    +0.279 A 
ATOM      9  C   UNL     1      32.991 -21.207 -19.168  0.00  0.00    +0.047 C 
ATOM     10  C   UNL     1      32.668 -20.476 -20.288  0.00  0.00    +0.180 C 
ATOM     11  H   UNL     1      34.013 -22.593 -16.996  0.00  0.00    +0.154 HD
ENDROOT
BRANCH   2  13
ATOM     12 CL   UNL     1      38.098 -25.100 -12.786  0.00  0.00    -0.082 Cl
ATOM     13  C   UNL     1      35.727 -23.089 -16.053  0.00  0.00    +0.049 C 
ATOM     14  C   UNL     1      35.143 -24.098 -15.287  0.00  0.00    +0.016 C 
ATOM     15  C   UNL     1      37.045 -22.702 -15.809  0.00  0.00    +0.016 C 
ATOM     16  C   UNL     1      35.876 -24.720 -14.277  0.00  0.00    +0.013 C 
ATOM     17  C   UNL     1      37.778 -23.324 -14.799  0.00  0.00    +0.013 C 
ATOM     18  C   UNL     1      37.193 -24.333 -14.033  0.00  0.00    +0.058 C 
ENDBRANCH   2  13
BRANCH   8  19
ATOM     19  O   UNL     1      36.618 -19.382 -21.429  0.00  0.00    -0.452 OA
BRANCH  19  20
ATOM     20  C   UNL     1      36.307 -17.994 -21.404  0.00  0.00    +0.234 C 
BRANCH  20  22
ATOM     21  N   UNL     1      34.337 -16.939 -25.062  0.00  0.00    -0.239 NA
ATOM     22  C   UNL     1      35.617 -17.623 -22.685  0.00  0.00    +0.024 C 
ATOM     23  C   UNL     1      35.324 -16.297 -22.951  0.00  0.00    +0.023 C 
ATOM     24  C   UNL     1      35.277 -18.614 -23.593  0.00  0.00    +0.020 C 
ATOM     25  C   UNL     1      34.688 -16.008 -24.147  0.00  0.00    +0.134 C 
ATOM     26  C   UNL     1      34.642 -18.222 -24.760  0.00  0.00    +0.099 C 
BRANCH  25  29
ATOM     27  O   UNL     1      33.884 -14.356 -25.606  0.00  0.00    -0.268 OA
ATOM     28  N   UNL     1      34.561 -13.666 -23.498  0.00  0.00    -0.298 N 
ATOM     29  C   UNL     1      34.353 -14.636 -24.487  0.00  0.00    +0.264 C 
ATOM     30  C   UNL     1      34.255 -12.264 -23.676  0.00  0.00    +0.111 C 
ATOM     31  H   UNL     1      34.934 -13.955 -22.635  0.00  0.00    +0.150 HD
ENDBRANCH  25  29
ENDBRANCH  20  22
ENDBRANCH  19  20
ENDBRANCH   8  19
TORSDOF 5
ENDMDL
MODEL 9
REMARK VINA RESULT:     -10.6      3.982      9.268
REMARK  Name = 9808844
REMARK  5 active torsions:
REMARK  status: ('A' for Active; 'I' for Inactive)
REMARK    1  A    between atoms: N_2  and  C_13
REMARK    2  A    between atoms: C_8  and  O_19
REMARK    3  A    between atoms: O_19  and  C_20
REMARK    4  A    between atoms: C_20  and  C_22
REMARK    5  A    between atoms: C_25  and  C_29
REMARK                            x       y       z     vdW  Elec       q    Type
REMARK                         _______ _______ _______ _____ _____    ______ ____
ROOT
ATOM      1  O   UNL     1      31.178 -22.315 -17.114  0.00  0.00    -0.446 OA
ATOM      2  N   UNL     1      34.821 -24.099 -14.751  0.00  0.00    -0.296 N 
ATOM      3  N   UNL     1      35.078 -23.388 -17.018  0.00  0.00    -0.130 NA
ATOM      4  N   UNL     1      34.587 -22.851 -18.201  0.00  0.00    -0.106 NA
ATOM      5  C   UNL     1      32.955 -23.167 -16.011  0.00  0.00    +0.076 A 
ATOM      6  C   UNL     1      32.498 -22.634 -17.209  0.00  0.00    +0.202 A 
ATOM      7  C   UNL     1      34.290 -23.551 -15.931  0.00  0.00    +0.157 A 
ATOM      8  C   UNL     1      33.300 -22.467 -18.318  0.00  0.00    +0.279 A 
ATOM      9  C   UNL     1      31.836 -23.169 -15.139  0.00  0.00    +0.047 C 
ATOM     10  C   UNL     1      30.785 -22.642 -15.855  0.00  0.00    +0.180 C 
ATOM     11  H   UNL     1      34.165 -24.174 -14.021  0.00  0.00    +0.154 HD
ENDROOT
BRANCH   2  13
ATOM     12 CL   UNL     1      40.222 -26.036 -13.292  0.00  0.00    -0.082 Cl
ATOM     13  C   UNL     1      36.109 -24.560 -14.403  0.00  0.00    +0.049 C 
ATOM     14  C   UNL     1      36.932 -23.782 -13.590  0.00  0.00    +0.016 C 
ATOM     15  C   UNL     1      36.557 -25.795 -14.872  0.00  0.00    +0.016 C 
ATOM     16  C   UNL     1      38.204 -24.239 -13.246  0.00  0.00    +0.013 C 
ATOM     17  C   UNL     1      37.829 -26.251 -14.528  0.00  0.00    +0.013 C 
ATOM     18  C   UNL     1      38.652 -25.473 -13.715  0.00  0.00    +0.058 C 
ENDBRANCH   2  13
BRANCH   8  19
ATOM     19  O   UNL     1      32.858 -21.943 -19.504  0.00  0.00    -0.452 OA
BRANCH  19  20
ATOM     20  C   UNL     1      32.830 -20.524 -19.606  0.00  0.00    +0.234 C 
BRANCH  20  22
ATOM     21  N   UNL     1      36.218 -19.222 -21.886  0.00  0.00    -0.239 NA
ATOM     22  C   UNL     1      34.016 -20.067 -20.405  0.00  0.00    +0.024 C 
ATOM     23  C   UNL     1      33.824 -19.349 -21.573  0.00  0.00    +0.023 C 
ATOM     24  C   UNL     1      35.297 -20.369 -19.969  0.00  0.00    +0.020 C 
ATOM     25  C   UNL     1      34.952 -18.951 -22.274  0.00  0.00    +0.134 C 
ATOM     26  C   UNL     1      36.358 -19.926 -20.741  0.00  0.00    +0.099 C 
BRANCH  25  29
ATOM     27  O   UNL     1      34.511 -18.763 -24.570  0.00  0.00    -0.268 OA
ATOM     28  N   UNL     1      35.030 -16.811 -23.430  0.00  0.00    -0.298 N 
ATOM     29  C   UNL     1      34.819 -18.194 -23.506  0.00  0.00    +0.264 C 
ATOM     30  C   UNL     1      34.911 -15.921 -24.563  0.00  0.00    +0.111 C 
ATOM     31  H   UNL     1      35.270 -16.425 -22.558  0.00  0.00    +0.150 HD
ENDBRANCH  25  29
ENDBRANCH  20  22
ENDBRANCH  19  20
ENDBRANCH   8  19
TORSDOF 5
ENDMDL
