MODEL 1
REMARK VINA RESULT:     -12.2      0.000      0.000
REMARK  Name = 6419766
REMARK  1 active torsions:
REMARK  status: ('A' for Active; 'I' for Inactive)
REMARK    1  A    between atoms: C_9  and  C_20
REMARK                            x       y       z     vdW  Elec       q    Type
REMARK                         _______ _______ _______ _____ _____    ______ ____
ROOT
ATOM      1  N   UNL     1      34.321 -23.916 -14.446  0.00  0.00    -0.274 N 
ATOM      2  N   UNL     1      34.093 -22.776 -16.492  0.00  0.00    -0.328 NA
ATOM      3  N   UNL     1      31.916 -22.394 -17.450  0.00  0.00    -0.343 NA
ATOM      4  N   UNL     1      37.518 -25.004 -15.026  0.00  0.00    -0.239 N 
ATOM      5  N   UNL     1      36.387 -24.482 -15.528  0.00  0.00    -0.166 NA
ATOM      6  C   UNL     1      32.105 -23.559 -15.363  0.00  0.00    +0.143 C 
ATOM      7  C   UNL     1      33.484 -23.400 -15.467  0.00  0.00    +0.185 C 
ATOM      8  C   UNL     1      31.339 -23.023 -16.412  0.00  0.00    +0.133 C 
ATOM      9  C   UNL     1      33.261 -22.304 -17.435  0.00  0.00    +0.138 C 
ATOM     10  C   UNL     1      35.636 -24.408 -14.458  0.00  0.00    +0.152 C 
ATOM     11  C   UNL     1      31.491 -24.215 -14.281  0.00  0.00    -0.011 C 
ATOM     12  C   UNL     1      29.956 -23.163 -16.343  0.00  0.00    +0.029 C 
ATOM     13  C   UNL     1      36.212 -24.854 -13.281  0.00  0.00    +0.048 C 
ATOM     14  C   UNL     1      37.465 -25.247 -13.684  0.00  0.00    +0.046 C 
ATOM     15  C   UNL     1      30.107 -24.341 -14.240  0.00  0.00    -0.004 C 
ATOM     16  C   UNL     1      29.338 -23.814 -15.271  0.00  0.00    +0.002 C 
ATOM     17  C   UNL     1      38.602 -25.819 -12.945  0.00  0.00    +0.049 C 
ATOM     18  H   UNL     1      33.899 -23.931 -13.557  0.00  0.00    +0.156 HD
ATOM     19  H   UNL     1      38.312 -25.196 -15.575  0.00  0.00    +0.174 HD
ENDROOT
BRANCH   9  20
ATOM     20  C   UNL     1      33.871 -21.629 -18.550  0.00  0.00    +0.086 C 
ATOM     21  C   UNL     1      33.093 -20.853 -19.415  0.00  0.00    +0.012 C 
ATOM     22  C   UNL     1      35.246 -21.743 -18.776  0.00  0.00    +0.012 C 
ATOM     23  C   UNL     1      33.684 -20.197 -20.494  0.00  0.00    +0.001 C 
ATOM     24  C   UNL     1      35.837 -21.088 -19.855  0.00  0.00    +0.001 C 
ATOM     25  C   UNL     1      35.057 -20.313 -20.715  0.00  0.00    +0.000 C 
ENDBRANCH   9  20
TORSDOF 1
ENDMDL
MODEL 2
REMARK VINA RESULT:     -11.5      1.217      4.941
REMARK  Name = 6419766
REMARK  1 active torsions:
REMARK  status: ('A' for Active; 'I' for Inactive)
REMARK    1  A    between atoms: C_9  and  C_20
REMARK                            x       y       z     vdW  Elec       q    Type
REMARK                         _______ _______ _______ _____ _____    ______ ____
ROOT
ATOM      1  N   UNL     1      35.877 -23.148 -16.103  0.00  0.00    -0.274 N 
ATOM      2  N   UNL     1      33.525 -23.198 -16.142  0.00  0.00    -0.328 NA
ATOM      3  N   UNL     1      32.302 -22.126 -17.918  0.00  0.00    -0.343 NA
ATOM      4  N   UNL     1      36.164 -23.567 -12.714  0.00  0.00    -0.239 N 
ATOM      5  N   UNL     1      35.375 -23.268 -13.760  0.00  0.00    -0.166 NA
ATOM      6  C   UNL     1      34.698 -22.052 -17.916  0.00  0.00    +0.143 C 
ATOM      7  C   UNL     1      34.661 -22.790 -16.737  0.00  0.00    +0.185 C 
ATOM      8  C   UNL     1      33.455 -21.734 -18.487  0.00  0.00    +0.133 C 
ATOM      9  C   UNL     1      32.399 -22.836 -16.777  0.00  0.00    +0.138 C 
ATOM     10  C   UNL     1      36.216 -23.368 -14.758  0.00  0.00    +0.152 C 
ATOM     11  C   UNL     1      35.899 -21.638 -18.520  0.00  0.00    -0.011 C 
ATOM     12  C   UNL     1      33.452 -20.996 -19.668  0.00  0.00    +0.029 C 
ATOM     13  C   UNL     1      37.513 -23.717 -14.426  0.00  0.00    +0.048 C 
ATOM     14  C   UNL     1      37.455 -23.843 -13.059  0.00  0.00    +0.046 C 
ATOM     15  C   UNL     1      35.865 -20.901 -19.699  0.00  0.00    -0.004 C 
ATOM     16  C   UNL     1      34.642 -20.579 -20.274  0.00  0.00    +0.002 C 
ATOM     17  C   UNL     1      38.476 -24.194 -12.059  0.00  0.00    +0.049 C 
ATOM     18  H   UNL     1      36.630 -23.267 -16.726  0.00  0.00    +0.156 HD
ATOM     19  H   UNL     1      35.840 -23.584 -11.785  0.00  0.00    +0.174 HD
ENDROOT
BRANCH   9  20
ATOM     20  C   UNL     1      31.159 -23.252 -16.174  0.00  0.00    +0.086 C 
ATOM     21  C   UNL     1      29.976 -22.560 -16.448  0.00  0.00    +0.012 C 
ATOM     22  C   UNL     1      31.130 -24.352 -15.312  0.00  0.00    +0.012 C 
ATOM     23  C   UNL     1      28.774 -22.964 -15.866  0.00  0.00    +0.001 C 
ATOM     24  C   UNL     1      29.929 -24.757 -14.730  0.00  0.00    +0.001 C 
ATOM     25  C   UNL     1      28.750 -24.063 -15.007  0.00  0.00    +0.000 C 
ENDBRANCH   9  20
TORSDOF 1
ENDMDL
MODEL 3
REMARK VINA RESULT:     -11.2      1.481      5.812
REMARK  Name = 6419766
REMARK  1 active torsions:
REMARK  status: ('A' for Active; 'I' for Inactive)
REMARK    1  A    between atoms: C_9  and  C_20
REMARK                            x       y       z     vdW  Elec       q    Type
REMARK                         _______ _______ _______ _____ _____    ______ ____
ROOT
ATOM      1  N   UNL     1      33.818 -22.498 -17.686  0.00  0.00    -0.274 N 
ATOM      2  N   UNL     1      35.149 -23.676 -16.144  0.00  0.00    -0.328 NA
ATOM      3  N   UNL     1      34.207 -24.504 -14.088  0.00  0.00    -0.343 NA
ATOM      4  N   UNL     1      36.413 -20.781 -19.122  0.00  0.00    -0.239 N 
ATOM      5  N   UNL     1      35.975 -21.529 -18.095  0.00  0.00    -0.166 NA
ATOM      6  C   UNL     1      32.816 -23.309 -15.632  0.00  0.00    +0.143 C 
ATOM      7  C   UNL     1      33.935 -23.182 -16.450  0.00  0.00    +0.185 C 
ATOM      8  C   UNL     1      33.007 -23.999 -14.424  0.00  0.00    +0.133 C 
ATOM      9  C   UNL     1      35.213 -24.316 -14.965  0.00  0.00    +0.138 C 
ATOM     10  C   UNL     1      34.732 -21.746 -18.443  0.00  0.00    +0.152 C 
ATOM     11  C   UNL     1      31.557 -22.783 -15.974  0.00  0.00    -0.011 C 
ATOM     12  C   UNL     1      31.911 -24.145 -13.579  0.00  0.00    +0.029 C 
ATOM     13  C   UNL     1      34.329 -21.182 -19.641  0.00  0.00    +0.048 C 
ATOM     14  C   UNL     1      35.466 -20.544 -20.075  0.00  0.00    +0.046 C 
ATOM     15  C   UNL     1      30.479 -22.945 -15.110  0.00  0.00    -0.004 C 
ATOM     16  C   UNL     1      30.655 -23.625 -13.911  0.00  0.00    +0.002 C 
ATOM     17  C   UNL     1      35.747 -19.745 -21.279  0.00  0.00    +0.049 C 
ATOM     18  H   UNL     1      32.924 -22.562 -18.092  0.00  0.00    +0.156 HD
ATOM     19  H   UNL     1      37.333 -20.436 -19.181  0.00  0.00    +0.174 HD
ENDROOT
BRANCH   9  20
ATOM     20  C   UNL     1      36.493 -24.861 -14.598  0.00  0.00    +0.086 C 
ATOM     21  C   UNL     1      37.345 -24.149 -13.748  0.00  0.00    +0.012 C 
ATOM     22  C   UNL     1      36.895 -26.108 -15.087  0.00  0.00    +0.012 C 
ATOM     23  C   UNL     1      38.585 -24.678 -13.391  0.00  0.00    +0.001 C 
ATOM     24  C   UNL     1      38.134 -26.637 -14.730  0.00  0.00    +0.001 C 
ATOM     25  C   UNL     1      38.980 -25.922 -13.881  0.00  0.00    +0.000 C 
ENDBRANCH   9  20
TORSDOF 1
ENDMDL
MODEL 4
REMARK VINA RESULT:     -11.0      1.599      5.208
REMARK  Name = 6419766
REMARK  1 active torsions:
REMARK  status: ('A' for Active; 'I' for Inactive)
REMARK    1  A    between atoms: C_9  and  C_20
REMARK                            x       y       z     vdW  Elec       q    Type
REMARK                         _______ _______ _______ _____ _____    ______ ____
ROOT
ATOM      1  N   UNL     1      33.080 -23.749 -16.017  0.00  0.00    -0.274 N 
ATOM      2  N   UNL     1      34.209 -22.400 -17.579  0.00  0.00    -0.328 NA
ATOM      3  N   UNL     1      36.561 -21.941 -17.334  0.00  0.00    -0.343 NA
ATOM      4  N   UNL     1      29.980 -22.409 -16.599  0.00  0.00    -0.239 N 
ATOM      5  N   UNL     1      31.311 -22.301 -16.748  0.00  0.00    -0.166 NA
ATOM      6  C   UNL     1      35.448 -23.321 -15.720  0.00  0.00    +0.143 C 
ATOM      7  C   UNL     1      34.280 -23.136 -16.455  0.00  0.00    +0.185 C 
ATOM      8  C   UNL     1      36.598 -22.684 -16.214  0.00  0.00    +0.133 C 
ATOM      9  C   UNL     1      35.369 -21.838 -17.956  0.00  0.00    +0.138 C 
ATOM     10  C   UNL     1      31.729 -23.384 -16.142  0.00  0.00    +0.152 C 
ATOM     11  C   UNL     1      35.497 -24.097 -14.548  0.00  0.00    -0.011 C 
ATOM     12  C   UNL     1      37.785 -22.846 -15.506  0.00  0.00    +0.029 C 
ATOM     13  C   UNL     1      30.746 -24.196 -15.604  0.00  0.00    +0.048 C 
ATOM     14  C   UNL     1      29.589 -23.526 -15.920  0.00  0.00    +0.046 C 
ATOM     15  C   UNL     1      36.698 -24.241 -13.860  0.00  0.00    -0.004 C 
ATOM     16  C   UNL     1      37.843 -23.615 -14.339  0.00  0.00    +0.002 C 
ATOM     17  C   UNL     1      28.174 -23.827 -15.652  0.00  0.00    +0.049 C 
ATOM     18  H   UNL     1      33.219 -24.593 -15.532  0.00  0.00    +0.156 HD
ATOM     19  H   UNL     1      29.345 -21.743 -16.948  0.00  0.00    +0.174 HD
ENDROOT
BRANCH   9  20
ATOM     20  C   UNL     1      35.339 -21.041 -19.154  0.00  0.00    +0.086 C 
ATOM     21  C   UNL     1      34.120 -20.735 -19.766  0.00  0.00    +0.012 C 
ATOM     22  C   UNL     1      36.529 -20.566 -19.713  0.00  0.00    +0.012 C 
ATOM     23  C   UNL     1      34.091 -19.961 -20.926  0.00  0.00    +0.001 C 
ATOM     24  C   UNL     1      36.501 -19.792 -20.873  0.00  0.00    +0.001 C 
ATOM     25  C   UNL     1      35.281 -19.489 -21.480  0.00  0.00    +0.000 C 
ENDBRANCH   9  20
TORSDOF 1
ENDMDL
MODEL 5
REMARK VINA RESULT:     -10.6      2.064      6.167
REMARK  Name = 6419766
REMARK  1 active torsions:
REMARK  status: ('A' for Active; 'I' for Inactive)
REMARK    1  A    between atoms: C_9  and  C_20
REMARK                            x       y       z     vdW  Elec       q    Type
REMARK                         _______ _______ _______ _____ _____    ______ ____
ROOT
ATOM      1  N   UNL     1      36.099 -22.102 -15.626  0.00  0.00    -0.274 N 
ATOM      2  N   UNL     1      34.009 -22.959 -14.967  0.00  0.00    -0.328 NA
ATOM      3  N   UNL     1      33.786 -24.220 -12.927  0.00  0.00    -0.343 NA
ATOM      4  N   UNL     1      35.369 -21.978 -18.972  0.00  0.00    -0.239 N 
ATOM      5  N   UNL     1      35.043 -22.442 -17.754  0.00  0.00    -0.166 NA
ATOM      6  C   UNL     1      35.933 -23.363 -13.562  0.00  0.00    +0.143 C 
ATOM      7  C   UNL     1      35.320 -22.830 -14.692  0.00  0.00    +0.185 C 
ATOM      8  C   UNL     1      35.099 -24.072 -12.682  0.00  0.00    +0.133 C 
ATOM      9  C   UNL     1      33.312 -23.657 -14.056  0.00  0.00    +0.138 C 
ATOM     10  C   UNL     1      35.986 -21.916 -17.014  0.00  0.00    +0.152 C 
ATOM     11  C   UNL     1      37.306 -23.214 -13.296  0.00  0.00    -0.011 C 
ATOM     12  C   UNL     1      35.677 -24.620 -11.540  0.00  0.00    +0.029 C 
ATOM     13  C   UNL     1      36.913 -21.132 -17.678  0.00  0.00    +0.048 C 
ATOM     14  C   UNL     1      36.482 -21.188 -18.982  0.00  0.00    +0.046 C 
ATOM     15  C   UNL     1      37.856 -23.773 -12.147  0.00  0.00    -0.004 C 
ATOM     16  C   UNL     1      37.041 -24.477 -11.268  0.00  0.00    +0.002 C 
ATOM     17  C   UNL     1      37.003 -20.582 -20.217  0.00  0.00    +0.049 C 
ATOM     18  H   UNL     1      36.867 -21.635 -15.225  0.00  0.00    +0.156 HD
ATOM     19  H   UNL     1      34.852 -22.188 -19.783  0.00  0.00    +0.174 HD
ENDROOT
BRANCH   9  20
ATOM     20  C   UNL     1      31.904 -23.820 -14.311  0.00  0.00    +0.086 C 
ATOM     21  C   UNL     1      31.145 -22.747 -14.786  0.00  0.00    +0.012 C 
ATOM     22  C   UNL     1      31.287 -25.054 -14.086  0.00  0.00    +0.012 C 
ATOM     23  C   UNL     1      29.782 -22.905 -15.034  0.00  0.00    +0.001 C 
ATOM     24  C   UNL     1      29.924 -25.213 -14.334  0.00  0.00    +0.001 C 
ATOM     25  C   UNL     1      29.170 -24.139 -14.809  0.00  0.00    +0.000 C 
ENDBRANCH   9  20
TORSDOF 1
ENDMDL
MODEL 6
REMARK VINA RESULT:      -9.9      1.645      6.507
REMARK  Name = 6419766
REMARK  1 active torsions:
REMARK  status: ('A' for Active; 'I' for Inactive)
REMARK    1  A    between atoms: C_9  and  C_20
REMARK                            x       y       z     vdW  Elec       q    Type
REMARK                         _______ _______ _______ _____ _____    ______ ____
ROOT
ATOM      1  N   UNL     1      32.846 -22.860 -16.048  0.00  0.00    -0.274 N 
ATOM      2  N   UNL     1      34.960 -23.146 -15.055  0.00  0.00    -0.328 NA
ATOM      3  N   UNL     1      36.967 -22.532 -16.237  0.00  0.00    -0.343 NA
ATOM      4  N   UNL     1      31.278 -25.282 -14.200  0.00  0.00    -0.239 N 
ATOM      5  N   UNL     1      32.435 -24.737 -14.611  0.00  0.00    -0.166 NA
ATOM      6  C   UNL     1      34.832 -22.224 -17.285  0.00  0.00    +0.143 C 
ATOM      7  C   UNL     1      34.256 -22.742 -16.129  0.00  0.00    +0.185 C 
ATOM      8  C   UNL     1      36.234 -22.137 -17.293  0.00  0.00    +0.133 C 
ATOM      9  C   UNL     1      36.291 -23.016 -15.176  0.00  0.00    +0.138 C 
ATOM     10  C   UNL     1      32.008 -23.757 -15.366  0.00  0.00    +0.152 C 
ATOM     11  C   UNL     1      34.075 -21.807 -18.394  0.00  0.00    -0.011 C 
ATOM     12  C   UNL     1      36.847 -21.624 -18.433  0.00  0.00    +0.029 C 
ATOM     13  C   UNL     1      30.634 -23.628 -15.473  0.00  0.00    +0.048 C 
ATOM     14  C   UNL     1      30.169 -24.656 -14.688  0.00  0.00    +0.046 C 
ATOM     15  C   UNL     1      34.715 -21.299 -19.520  0.00  0.00    -0.004 C 
ATOM     16  C   UNL     1      36.102 -21.207 -19.540  0.00  0.00    +0.002 C 
ATOM     17  C   UNL     1      28.806 -25.100 -14.355  0.00  0.00    +0.049 C 
ATOM     18  H   UNL     1      32.360 -22.183 -16.572  0.00  0.00    +0.156 HD
ATOM     19  H   UNL     1      31.235 -26.062 -13.601  0.00  0.00    +0.174 HD
ENDROOT
BRANCH   9  20
ATOM     20  C   UNL     1      37.083 -23.438 -14.050  0.00  0.00    +0.086 C 
ATOM     21  C   UNL     1      36.854 -22.892 -12.784  0.00  0.00    +0.012 C 
ATOM     22  C   UNL     1      38.086 -24.397 -14.215  0.00  0.00    +0.012 C 
ATOM     23  C   UNL     1      37.621 -23.301 -11.693  0.00  0.00    +0.001 C 
ATOM     24  C   UNL     1      38.853 -24.807 -13.125  0.00  0.00    +0.001 C 
ATOM     25  C   UNL     1      38.620 -24.260 -11.863  0.00  0.00    +0.000 C 
ENDBRANCH   9  20
TORSDOF 1
ENDMDL
MODEL 7
REMARK VINA RESULT:      -9.8      1.796      5.263
REMARK  Name = 6419766
REMARK  1 active torsions:
REMARK  status: ('A' for Active; 'I' for Inactive)
REMARK    1  A    between atoms: C_9  and  C_20
REMARK                            x       y       z     vdW  Elec       q    Type
REMARK                         _______ _______ _______ _____ _____    ______ ____
ROOT
ATOM      1  N   UNL     1      33.464 -24.591 -13.955  0.00  0.00    -0.274 N 
ATOM      2  N   UNL     1      34.708 -23.344 -15.516  0.00  0.00    -0.328 NA
ATOM      3  N   UNL     1      36.907 -22.530 -14.966  0.00  0.00    -0.343 NA
ATOM      4  N   UNL     1      30.398 -23.800 -15.264  0.00  0.00    -0.239 N 
ATOM      5  N   UNL     1      31.712 -23.530 -15.206  0.00  0.00    -0.166 NA
ATOM      6  C   UNL     1      35.673 -23.797 -13.347  0.00  0.00    +0.143 C 
ATOM      7  C   UNL     1      34.650 -23.888 -14.286  0.00  0.00    +0.185 C 
ATOM      8  C   UNL     1      36.817 -23.085 -13.746  0.00  0.00    +0.133 C 
ATOM      9  C   UNL     1      35.848 -22.689 -15.785  0.00  0.00    +0.138 C 
ATOM     10  C   UNL     1      32.129 -24.441 -14.363  0.00  0.00    +0.152 C 
ATOM     11  C   UNL     1      35.589 -24.374 -12.068  0.00  0.00    -0.011 C 
ATOM     12  C   UNL     1      37.862 -22.973 -12.833  0.00  0.00    +0.029 C 
ATOM     13  C   UNL     1      31.159 -25.294 -13.864  0.00  0.00    +0.048 C 
ATOM     14  C   UNL     1      30.014 -24.847 -14.478  0.00  0.00    +0.046 C 
ATOM     15  C   UNL     1      36.649 -24.245 -11.176  0.00  0.00    -0.004 C 
ATOM     16  C   UNL     1      37.786 -23.543 -11.558  0.00  0.00    +0.002 C 
ATOM     17  C   UNL     1      28.616 -25.300 -14.401  0.00  0.00    +0.049 C 
ATOM     18  H   UNL     1      33.604 -25.326 -13.316  0.00  0.00    +0.156 HD
ATOM     19  H   UNL     1      29.768 -23.288 -15.822  0.00  0.00    +0.174 HD
ENDROOT
BRANCH   9  20
ATOM     20  C   UNL     1      35.953 -22.091 -17.091  0.00  0.00    +0.086 C 
ATOM     21  C   UNL     1      34.912 -22.226 -18.014  0.00  0.00    +0.012 C 
ATOM     22  C   UNL     1      37.097 -21.369 -17.444  0.00  0.00    +0.012 C 
ATOM     23  C   UNL     1      35.013 -21.645 -19.278  0.00  0.00    +0.001 C 
ATOM     24  C   UNL     1      37.199 -20.788 -18.707  0.00  0.00    +0.001 C 
ATOM     25  C   UNL     1      36.156 -20.926 -19.625  0.00  0.00    +0.000 C 
ENDBRANCH   9  20
TORSDOF 1
ENDMDL
