MODEL 1
REMARK VINA RESULT:     -12.0      0.000      0.000
REMARK  Name = 447731
REMARK  4 active torsions:
REMARK  status: ('A' for Active; 'I' for Inactive)
REMARK    1  A    between atoms: N_2  and  C_13
REMARK    2  A    between atoms: C_3  and  C_19
REMARK    3  A    between atoms: C_6  and  C_17
REMARK    4  A    between atoms: C_27  and  C_31
REMARK                            x       y       z     vdW  Elec       q    Type
REMARK                         _______ _______ _______ _____ _____    ______ ____
ROOT
ATOM      1  O   UNL     1      33.957 -23.631 -17.958  0.00  0.00    -0.270 OA
ATOM      2  N   UNL     1      35.342 -22.188 -16.722  0.00  0.00    -0.280 N 
ATOM      3  C   UNL     1      34.563 -22.574 -17.820  0.00  0.00    +0.249 C 
ATOM      4  H   UNL     1      35.760 -21.299 -16.779  0.00  0.00    +0.155 HD
ENDROOT
BRANCH   2  13
ATOM      5  N   UNL     1      37.290 -26.276 -12.134  0.00  0.00    +0.387 N 
ATOM      6  C   UNL     1      38.239 -25.356 -14.221  0.00  0.00    +0.001 C 
ATOM      7  C   UNL     1      37.022 -24.446 -14.308  0.00  0.00    -0.029 C 
ATOM      8  C   UNL     1      38.518 -25.810 -12.775  0.00  0.00    -0.077 C 
ATOM      9  C   UNL     1      36.112 -24.385 -13.233  0.00  0.00    -0.048 C 
ATOM     10  C   UNL     1      36.362 -25.155 -11.961  0.00  0.00    -0.055 C 
ATOM     11  C   UNL     1      36.736 -23.719 -15.475  0.00  0.00    +0.010 C 
ATOM     12  C   UNL     1      34.980 -23.560 -13.321  0.00  0.00    -0.005 C 
ATOM     13  C   UNL     1      35.600 -22.911 -15.555  0.00  0.00    +0.050 C 
ATOM     14  C   UNL     1      34.726 -22.827 -14.477  0.00  0.00    +0.014 C 
ATOM     15  H   UNL     1      37.514 -26.673 -11.222  0.00  0.00    -0.084 HD
ATOM     16  H   UNL     1      36.853 -26.985 -12.722  0.00  0.00    -0.084 HD
BRANCH   6  17
ATOM     17  C   UNL     1      39.517 -24.730 -14.792  0.00  0.00    +0.002 C 
ATOM     18  C   UNL     1      40.741 -25.522 -14.387  0.00  0.00    +0.000 C 
ENDBRANCH   6  17
ENDBRANCH   2  13
BRANCH   3  19
ATOM     19  C   UNL     1      34.501 -21.591 -18.933  0.00  0.00    +0.054 C 
ATOM     20  C   UNL     1      35.632 -20.099 -20.443  0.00  0.00    +0.000 C 
ATOM     21  C   UNL     1      34.383 -19.755 -21.013  0.00  0.00    +0.000 C 
ATOM     22  C   UNL     1      35.674 -21.030 -19.392  0.00  0.00    +0.005 C 
ATOM     23  C   UNL     1      33.274 -21.274 -19.470  0.00  0.00    +0.005 C 
ATOM     24  C   UNL     1      33.213 -20.351 -20.514  0.00  0.00    +0.000 C 
ATOM     25  C   UNL     1      34.339 -18.824 -22.064  0.00  0.00    +0.003 C 
ATOM     26  C   UNL     1      36.801 -19.502 -20.942  0.00  0.00    +0.000 C 
ATOM     27  C   UNL     1      35.511 -18.241 -22.546  0.00  0.00    +0.031 C 
ATOM     28  C   UNL     1      36.740 -18.580 -21.986  0.00  0.00    +0.003 C 
BRANCH  27  31
ATOM     29  N   UNL     1      35.864 -15.960 -23.460  0.00  0.00    -0.343 N 
ATOM     30  N   UNL     1      34.991 -17.650 -24.816  0.00  0.00    -0.285 NA
ATOM     31  C   UNL     1      35.450 -17.279 -23.635  0.00  0.00    +0.117 C 
ATOM     32  H   UNL     1      35.814 -15.325 -24.211  0.00  0.00    +0.144 HD
ATOM     33  H   UNL     1      36.207 -15.662 -22.586  0.00  0.00    +0.144 HD
ATOM     34  H   UNL     1      34.948 -17.000 -25.554  0.00  0.00    +0.188 HD
ENDBRANCH  27  31
ENDBRANCH   3  19
TORSDOF 4
ENDMDL
MODEL 2
REMARK VINA RESULT:     -11.9      1.128      2.553
REMARK  Name = 447731
REMARK  4 active torsions:
REMARK  status: ('A' for Active; 'I' for Inactive)
REMARK    1  A    between atoms: N_2  and  C_13
REMARK    2  A    between atoms: C_3  and  C_19
REMARK    3  A    between atoms: C_6  and  C_17
REMARK    4  A    between atoms: C_27  and  C_31
REMARK                            x       y       z     vdW  Elec       q    Type
REMARK                         _______ _______ _______ _____ _____    ______ ____
ROOT
ATOM      1  O   UNL     1      34.441 -23.203 -17.933  0.00  0.00    -0.270 OA
ATOM      2  N   UNL     1      36.114 -21.805 -17.051  0.00  0.00    -0.280 N 
ATOM      3  C   UNL     1      35.132 -22.190 -17.973  0.00  0.00    +0.249 C 
ATOM      4  H   UNL     1      36.574 -20.955 -17.240  0.00  0.00    +0.155 HD
ENDROOT
BRANCH   2  13
ATOM      5  N   UNL     1      36.887 -24.388 -11.196  0.00  0.00    +0.387 N 
ATOM      6  C   UNL     1      34.975 -23.745 -12.622  0.00  0.00    +0.001 C 
ATOM      7  C   UNL     1      35.973 -23.454 -13.733  0.00  0.00    -0.029 C 
ATOM      8  C   UNL     1      35.530 -24.754 -11.597  0.00  0.00    -0.077 C 
ATOM      9  C   UNL     1      37.329 -23.803 -13.570  0.00  0.00    -0.048 C 
ATOM     10  C   UNL     1      37.798 -24.530 -12.335  0.00  0.00    -0.055 C 
ATOM     11  C   UNL     1      35.589 -22.768 -14.897  0.00  0.00    +0.010 C 
ATOM     12  C   UNL     1      38.252 -23.519 -14.587  0.00  0.00    -0.005 C 
ATOM     13  C   UNL     1      36.520 -22.478 -15.897  0.00  0.00    +0.050 C 
ATOM     14  C   UNL     1      37.849 -22.859 -15.745  0.00  0.00    +0.014 C 
ATOM     15  H   UNL     1      37.193 -25.000 -10.440  0.00  0.00    -0.084 HD
ATOM     16  H   UNL     1      36.894 -23.418 -10.880  0.00  0.00    -0.084 HD
BRANCH   6  17
ATOM     17  C   UNL     1      33.622 -24.259 -13.129  0.00  0.00    +0.002 C 
ATOM     18  C   UNL     1      32.583 -23.158 -13.126  0.00  0.00    +0.000 C 
ENDBRANCH   6  17
ENDBRANCH   2  13
BRANCH   3  19
ATOM     19  C   UNL     1      34.944 -21.270 -19.125  0.00  0.00    +0.054 C 
ATOM     20  C   UNL     1      35.888 -19.775 -20.756  0.00  0.00    +0.000 C 
ATOM     21  C   UNL     1      34.591 -19.552 -21.278  0.00  0.00    +0.000 C 
ATOM     22  C   UNL     1      36.049 -20.647 -19.666  0.00  0.00    +0.005 C 
ATOM     23  C   UNL     1      33.673 -21.071 -19.614  0.00  0.00    +0.005 C 
ATOM     24  C   UNL     1      33.494 -20.208 -20.694  0.00  0.00    +0.000 C 
ATOM     25  C   UNL     1      34.429 -18.679 -22.366  0.00  0.00    +0.003 C 
ATOM     26  C   UNL     1      36.984 -19.119 -21.338  0.00  0.00    +0.000 C 
ATOM     27  C   UNL     1      35.529 -18.036 -22.932  0.00  0.00    +0.031 C 
ATOM     28  C   UNL     1      36.805 -18.256 -22.419  0.00  0.00    +0.003 C 
BRANCH  27  31
ATOM     29  N   UNL     1      35.832 -15.830 -24.031  0.00  0.00    -0.343 N 
ATOM     30  N   UNL     1      34.702 -17.551 -25.135  0.00  0.00    -0.285 NA
ATOM     31  C   UNL     1      35.345 -17.136 -24.059  0.00  0.00    +0.117 C 
ATOM     32  H   UNL     1      35.696 -15.237 -24.805  0.00  0.00    +0.144 HD
ATOM     33  H   UNL     1      36.312 -15.500 -23.237  0.00  0.00    +0.144 HD
ATOM     34  H   UNL     1      34.576 -16.943 -25.899  0.00  0.00    +0.188 HD
ENDBRANCH  27  31
ENDBRANCH   3  19
TORSDOF 4
ENDMDL
MODEL 3
REMARK VINA RESULT:     -11.0      8.234     15.061
REMARK  Name = 447731
REMARK  4 active torsions:
REMARK  status: ('A' for Active; 'I' for Inactive)
REMARK    1  A    between atoms: N_2  and  C_13
REMARK    2  A    between atoms: C_3  and  C_19
REMARK    3  A    between atoms: C_6  and  C_17
REMARK    4  A    between atoms: C_27  and  C_31
REMARK                            x       y       z     vdW  Elec       q    Type
REMARK                         _______ _______ _______ _____ _____    ______ ____
ROOT
ATOM      1  O   UNL     1      33.776 -11.325 -24.763  0.00  0.00    -0.270 OA
ATOM      2  N   UNL     1      33.316 -10.452 -22.628  0.00  0.00    -0.280 N 
ATOM      3  C   UNL     1      33.733 -11.428 -23.541  0.00  0.00    +0.249 C 
ATOM      4  H   UNL     1      33.346 -10.707 -21.678  0.00  0.00    +0.155 HD
ENDROOT
BRANCH   2  13
ATOM      5  N   UNL     1      32.473  -4.139 -23.620  0.00  0.00    +0.387 N 
ATOM      6  C   UNL     1      34.325  -5.753 -23.884  0.00  0.00    +0.001 C 
ATOM      7  C   UNL     1      33.337  -6.857 -23.537  0.00  0.00    -0.029 C 
ATOM      8  C   UNL     1      33.620  -4.504 -24.450  0.00  0.00    -0.077 C 
ATOM      9  C   UNL     1      31.963  -6.562 -23.422  0.00  0.00    -0.048 C 
ATOM     10  C   UNL     1      31.442  -5.176 -23.709  0.00  0.00    -0.055 C 
ATOM     11  C   UNL     1      33.773  -8.161 -23.248  0.00  0.00    +0.010 C 
ATOM     12  C   UNL     1      31.055  -7.577 -23.085  0.00  0.00    -0.005 C 
ATOM     13  C   UNL     1      32.861  -9.160 -22.901  0.00  0.00    +0.050 C 
ATOM     14  C   UNL     1      31.503  -8.869 -22.825  0.00  0.00    +0.014 C 
ATOM     15  H   UNL     1      32.089  -3.252 -23.946  0.00  0.00    -0.084 HD
ATOM     16  H   UNL     1      32.776  -4.049 -22.650  0.00  0.00    -0.084 HD
BRANCH   6  17
ATOM     17  C   UNL     1      35.413  -6.188 -24.872  0.00  0.00    +0.002 C 
ATOM     18  C   UNL     1      35.534  -5.208 -26.019  0.00  0.00    +0.000 C 
ENDBRANCH   6  17
ENDBRANCH   2  13
BRANCH   3  19
ATOM     19  C   UNL     1      34.138 -12.728 -22.943  0.00  0.00    +0.054 C 
ATOM     20  C   UNL     1      34.922 -14.984 -23.230  0.00  0.00    +0.000 C 
ATOM     21  C   UNL     1      34.894 -15.154 -21.824  0.00  0.00    +0.000 C 
ATOM     22  C   UNL     1      34.536 -13.749 -23.780  0.00  0.00    +0.005 C 
ATOM     23  C   UNL     1      34.102 -12.868 -21.575  0.00  0.00    +0.005 C 
ATOM     24  C   UNL     1      34.480 -14.086 -21.011  0.00  0.00    +0.000 C 
ATOM     25  C   UNL     1      35.279 -16.388 -21.274  0.00  0.00    +0.003 C 
ATOM     26  C   UNL     1      35.334 -16.051 -24.042  0.00  0.00    +0.000 C 
ATOM     27  C   UNL     1      35.686 -17.438 -22.097  0.00  0.00    +0.031 C 
ATOM     28  C   UNL     1      35.713 -17.269 -23.479  0.00  0.00    +0.003 C 
BRANCH  27  31
ATOM     29  N   UNL     1      37.374 -18.915 -21.033  0.00  0.00    -0.343 N 
ATOM     30  N   UNL     1      35.209 -19.696 -21.430  0.00  0.00    -0.285 NA
ATOM     31  C   UNL     1      36.081 -18.709 -21.512  0.00  0.00    +0.117 C 
ATOM     32  H   UNL     1      37.621 -19.783 -20.641  0.00  0.00    +0.144 HD
ATOM     33  H   UNL     1      38.040 -18.192 -21.087  0.00  0.00    +0.144 HD
ATOM     34  H   UNL     1      35.474 -20.558 -21.035  0.00  0.00    +0.188 HD
ENDBRANCH  27  31
ENDBRANCH   3  19
TORSDOF 4
ENDMDL
MODEL 4
REMARK VINA RESULT:     -10.8      8.441     15.207
REMARK  Name = 447731
REMARK  4 active torsions:
REMARK  status: ('A' for Active; 'I' for Inactive)
REMARK    1  A    between atoms: N_2  and  C_13
REMARK    2  A    between atoms: C_3  and  C_19
REMARK    3  A    between atoms: C_6  and  C_17
REMARK    4  A    between atoms: C_27  and  C_31
REMARK                            x       y       z     vdW  Elec       q    Type
REMARK                         _______ _______ _______ _____ _____    ______ ____
ROOT
ATOM      1  O   UNL     1      31.457 -11.158 -21.584  0.00  0.00    -0.270 OA
ATOM      2  N   UNL     1      33.174 -10.244 -22.905  0.00  0.00    -0.280 N 
ATOM      3  C   UNL     1      32.525 -11.251 -22.179  0.00  0.00    +0.249 C 
ATOM      4  H   UNL     1      34.030 -10.495 -23.323  0.00  0.00    +0.155 HD
ENDROOT
BRANCH   2  13
ATOM      5  N   UNL     1      32.520  -3.870 -23.607  0.00  0.00    +0.387 N 
ATOM      6  C   UNL     1      34.307  -5.532 -23.995  0.00  0.00    +0.001 C 
ATOM      7  C   UNL     1      33.292  -6.617 -23.664  0.00  0.00    -0.029 C 
ATOM      8  C   UNL     1      33.628  -4.238 -24.487  0.00  0.00    -0.077 C 
ATOM      9  C   UNL     1      31.933  -6.281 -23.495  0.00  0.00    -0.048 C 
ATOM     10  C   UNL     1      31.452  -4.868 -23.707  0.00  0.00    -0.055 C 
ATOM     11  C   UNL     1      33.691  -7.945 -23.443  0.00  0.00    +0.010 C 
ATOM     12  C   UNL     1      31.001  -7.279 -23.172  0.00  0.00    -0.005 C 
ATOM     13  C   UNL     1      32.756  -8.927 -23.110  0.00  0.00    +0.050 C 
ATOM     14  C   UNL     1      31.412  -8.596 -22.980  0.00  0.00    +0.014 C 
ATOM     15  H   UNL     1      32.157  -2.958 -23.884  0.00  0.00    -0.084 HD
ATOM     16  H   UNL     1      32.854  -3.832 -22.644  0.00  0.00    -0.084 HD
BRANCH   6  17
ATOM     17  C   UNL     1      35.350  -5.961 -25.033  0.00  0.00    +0.002 C 
ATOM     18  C   UNL     1      35.389  -4.997 -26.199  0.00  0.00    +0.000 C 
ENDBRANCH   6  17
ENDBRANCH   2  13
BRANCH   3  19
ATOM     19  C   UNL     1      33.239 -12.553 -22.119  0.00  0.00    +0.054 C 
ATOM     20  C   UNL     1      34.167 -14.460 -23.254  0.00  0.00    +0.000 C 
ATOM     21  C   UNL     1      34.573 -14.986 -22.004  0.00  0.00    +0.000 C 
ATOM     22  C   UNL     1      33.493 -13.228 -23.295  0.00  0.00    +0.005 C 
ATOM     23  C   UNL     1      33.622 -13.043 -20.891  0.00  0.00    +0.005 C 
ATOM     24  C   UNL     1      34.292 -14.265 -20.832  0.00  0.00    +0.000 C 
ATOM     25  C   UNL     1      35.246 -16.218 -21.963  0.00  0.00    +0.003 C 
ATOM     26  C   UNL     1      34.447 -15.181 -24.426  0.00  0.00    +0.000 C 
ATOM     27  C   UNL     1      35.516 -16.922 -23.137  0.00  0.00    +0.031 C 
ATOM     28  C   UNL     1      35.117 -16.403 -24.366  0.00  0.00    +0.003 C 
BRANCH  27  31
ATOM     29  N   UNL     1      37.505 -18.291 -22.562  0.00  0.00    -0.343 N 
ATOM     30  N   UNL     1      35.625 -19.290 -23.521  0.00  0.00    -0.285 NA
ATOM     31  C   UNL     1      36.214 -18.195 -23.078  0.00  0.00    +0.117 C 
ATOM     32  H   UNL     1      37.959 -19.163 -22.531  0.00  0.00    +0.144 HD
ATOM     33  H   UNL     1      37.963 -17.485 -22.228  0.00  0.00    +0.144 HD
ATOM     34  H   UNL     1      36.095 -20.154 -23.482  0.00  0.00    +0.188 HD
ENDBRANCH  27  31
ENDBRANCH   3  19
TORSDOF 4
ENDMDL
MODEL 5
REMARK VINA RESULT:     -10.6      3.038      4.689
REMARK  Name = 447731
REMARK  4 active torsions:
REMARK  status: ('A' for Active; 'I' for Inactive)
REMARK    1  A    between atoms: N_2  and  C_13
REMARK    2  A    between atoms: C_3  and  C_19
REMARK    3  A    between atoms: C_6  and  C_17
REMARK    4  A    between atoms: C_27  and  C_31
REMARK                            x       y       z     vdW  Elec       q    Type
REMARK                         _______ _______ _______ _____ _____    ______ ____
ROOT
ATOM      1  O   UNL     1      35.419 -22.463 -18.151  0.00  0.00    -0.270 OA
ATOM      2  N   UNL     1      33.148 -22.019 -17.727  0.00  0.00    -0.280 N 
ATOM      3  C   UNL     1      34.363 -21.896 -18.413  0.00  0.00    +0.249 C 
ATOM      4  H   UNL     1      32.398 -21.487 -18.078  0.00  0.00    +0.155 HD
ENDROOT
BRANCH   2  13
ATOM      5  N   UNL     1      30.694 -25.015 -12.575  0.00  0.00    +0.387 N 
ATOM      6  C   UNL     1      29.805 -24.057 -14.671  0.00  0.00    +0.001 C 
ATOM      7  C   UNL     1      31.243 -23.829 -15.111  0.00  0.00    -0.029 C 
ATOM      8  C   UNL     1      29.693 -25.185 -13.626  0.00  0.00    -0.077 C 
ATOM      9  C   UNL     1      32.305 -24.353 -14.346  0.00  0.00    -0.048 C 
ATOM     10  C   UNL     1      32.037 -25.204 -13.130  0.00  0.00    -0.055 C 
ATOM     11  C   UNL     1      31.546 -23.033 -16.228  0.00  0.00    +0.010 C 
ATOM     12  C   UNL     1      33.632 -24.127 -14.743  0.00  0.00    -0.005 C 
ATOM     13  C   UNL     1      32.871 -22.804 -16.606  0.00  0.00    +0.050 C 
ATOM     14  C   UNL     1      33.912 -23.356 -15.868  0.00  0.00    +0.014 C 
ATOM     15  H   UNL     1      30.533 -25.704 -11.839  0.00  0.00    -0.084 HD
ATOM     16  H   UNL     1      30.620 -24.074 -12.189  0.00  0.00    -0.084 HD
BRANCH   6  17
ATOM     17  C   UNL     1      28.849 -24.368 -15.828  0.00  0.00    +0.002 C 
ATOM     18  C   UNL     1      28.094 -23.130 -16.261  0.00  0.00    +0.000 C 
ENDBRANCH   6  17
ENDBRANCH   2  13
BRANCH   3  19
ATOM     19  C   UNL     1      34.353 -20.953 -19.562  0.00  0.00    +0.054 C 
ATOM     20  C   UNL     1      35.547 -19.481 -21.044  0.00  0.00    +0.000 C 
ATOM     21  C   UNL     1      34.331 -19.191 -21.708  0.00  0.00    +0.000 C 
ATOM     22  C   UNL     1      35.540 -20.375 -19.960  0.00  0.00    +0.005 C 
ATOM     23  C   UNL     1      33.158 -20.687 -20.191  0.00  0.00    +0.005 C 
ATOM     24  C   UNL     1      33.145 -19.802 -21.269  0.00  0.00    +0.000 C 
ATOM     25  C   UNL     1      34.337 -18.297 -22.791  0.00  0.00    +0.003 C 
ATOM     26  C   UNL     1      36.732 -18.870 -21.483  0.00  0.00    +0.000 C 
ATOM     27  C   UNL     1      35.524 -17.698 -23.214  0.00  0.00    +0.031 C 
ATOM     28  C   UNL     1      36.720 -17.985 -22.560  0.00  0.00    +0.003 C 
BRANCH  27  31
ATOM     29  N   UNL     1      35.944 -15.458 -24.196  0.00  0.00    -0.343 N 
ATOM     30  N   UNL     1      35.086 -17.181 -25.518  0.00  0.00    -0.285 NA
ATOM     31  C   UNL     1      35.514 -16.775 -24.337  0.00  0.00    +0.117 C 
ATOM     32  H   UNL     1      35.929 -14.849 -24.970  0.00  0.00    +0.144 HD
ATOM     33  H   UNL     1      36.265 -15.134 -23.323  0.00  0.00    +0.144 HD
ATOM     34  H   UNL     1      35.077 -16.557 -26.281  0.00  0.00    +0.188 HD
ENDBRANCH  27  31
ENDBRANCH   3  19
TORSDOF 4
ENDMDL
MODEL 6
REMARK VINA RESULT:     -10.5      0.752      1.533
REMARK  Name = 447731
REMARK  4 active torsions:
REMARK  status: ('A' for Active; 'I' for Inactive)
REMARK    1  A    between atoms: N_2  and  C_13
REMARK    2  A    between atoms: C_3  and  C_19
REMARK    3  A    between atoms: C_6  and  C_17
REMARK    4  A    between atoms: C_27  and  C_31
REMARK                            x       y       z     vdW  Elec       q    Type
REMARK                         _______ _______ _______ _____ _____    ______ ____
ROOT
ATOM      1  O   UNL     1      34.635 -22.980 -18.080  0.00  0.00    -0.270 OA
ATOM      2  N   UNL     1      36.291 -21.918 -16.791  0.00  0.00    -0.280 N 
ATOM      3  C   UNL     1      35.472 -22.099 -17.913  0.00  0.00    +0.249 C 
ATOM      4  H   UNL     1      36.911 -21.154 -16.827  0.00  0.00    +0.155 HD
ENDROOT
BRANCH   2  13
ATOM      5  N   UNL     1      37.236 -26.303 -12.162  0.00  0.00    +0.387 N 
ATOM      6  C   UNL     1      38.500 -25.473 -14.116  0.00  0.00    +0.001 C 
ATOM      7  C   UNL     1      37.421 -24.415 -14.294  0.00  0.00    -0.029 C 
ATOM      8  C   UNL     1      38.572 -25.986 -12.664  0.00  0.00    -0.077 C 
ATOM      9  C   UNL     1      36.421 -24.258 -13.313  0.00  0.00    -0.048 C 
ATOM     10  C   UNL     1      36.443 -25.077 -12.047  0.00  0.00    -0.055 C 
ATOM     11  C   UNL     1      37.349 -23.636 -15.461  0.00  0.00    +0.010 C 
ATOM     12  C   UNL     1      35.416 -23.295 -13.486  0.00  0.00    -0.005 C 
ATOM     13  C   UNL     1      36.336 -22.689 -15.628  0.00  0.00    +0.050 C 
ATOM     14  C   UNL     1      35.374 -22.515 -14.639  0.00  0.00    +0.014 C 
ATOM     15  H   UNL     1      37.315 -26.742 -11.245  0.00  0.00    -0.084 HD
ATOM     16  H   UNL     1      36.777 -26.941 -12.812  0.00  0.00    -0.084 HD
BRANCH   6  17
ATOM     17  C   UNL     1      39.898 -25.004 -14.537  0.00  0.00    +0.002 C 
ATOM     18  C   UNL     1      40.920 -26.107 -14.365  0.00  0.00    +0.000 C 
ENDBRANCH   6  17
ENDBRANCH   2  13
BRANCH   3  19
ATOM     19  C   UNL     1      35.677 -21.123 -19.015  0.00  0.00    +0.054 C 
ATOM     20  C   UNL     1      34.801 -19.918 -20.904  0.00  0.00    +0.000 C 
ATOM     21  C   UNL     1      36.062 -19.299 -21.073  0.00  0.00    +0.000 C 
ATOM     22  C   UNL     1      34.623 -20.839 -19.857  0.00  0.00    +0.005 C 
ATOM     23  C   UNL     1      36.913 -20.535 -19.159  0.00  0.00    +0.005 C 
ATOM     24  C   UNL     1      37.108 -19.619 -20.192  0.00  0.00    +0.000 C 
ATOM     25  C   UNL     1      36.241 -18.379 -22.120  0.00  0.00    +0.003 C 
ATOM     26  C   UNL     1      33.755 -19.599 -21.785  0.00  0.00    +0.000 C 
ATOM     27  C   UNL     1      35.191 -18.074 -22.986  0.00  0.00    +0.031 C 
ATOM     28  C   UNL     1      33.950 -18.684 -22.818  0.00  0.00    +0.003 C 
BRANCH  27  31
ATOM     29  N   UNL     1      35.932 -15.858 -23.823  0.00  0.00    -0.343 N 
ATOM     30  N   UNL     1      35.056 -17.441 -25.299  0.00  0.00    -0.285 NA
ATOM     31  C   UNL     1      35.392 -17.120 -24.064  0.00  0.00    +0.117 C 
ATOM     32  H   UNL     1      36.061 -15.227 -24.568  0.00  0.00    +0.144 HD
ATOM     33  H   UNL     1      36.187 -15.597 -22.908  0.00  0.00    +0.144 HD
ATOM     34  H   UNL     1      35.191 -16.796 -26.031  0.00  0.00    +0.188 HD
ENDBRANCH  27  31
ENDBRANCH   3  19
TORSDOF 4
ENDMDL
MODEL 7
REMARK VINA RESULT:     -10.5      2.228     10.223
REMARK  Name = 447731
REMARK  4 active torsions:
REMARK  status: ('A' for Active; 'I' for Inactive)
REMARK    1  A    between atoms: N_2  and  C_13
REMARK    2  A    between atoms: C_3  and  C_19
REMARK    3  A    between atoms: C_6  and  C_17
REMARK    4  A    between atoms: C_27  and  C_31
REMARK                            x       y       z     vdW  Elec       q    Type
REMARK                         _______ _______ _______ _____ _____    ______ ____
ROOT
ATOM      1  O   UNL     1      33.291 -20.662 -20.566  0.00  0.00    -0.270 OA
ATOM      2  N   UNL     1      35.414 -19.653 -20.481  0.00  0.00    -0.280 N 
ATOM      3  C   UNL     1      34.397 -20.517 -20.055  0.00  0.00    +0.249 C 
ATOM      4  H   UNL     1      36.243 -19.665 -19.950  0.00  0.00    +0.155 HD
ENDROOT
BRANCH   2  13
ATOM      5  N   UNL     1      34.437 -14.934 -24.761  0.00  0.00    +0.387 N 
ATOM      6  C   UNL     1      34.395 -15.144 -22.300  0.00  0.00    +0.001 C 
ATOM      7  C   UNL     1      34.922 -16.562 -22.468  0.00  0.00    -0.029 C 
ATOM      8  C   UNL     1      34.746 -14.251 -23.507  0.00  0.00    -0.077 C 
ATOM      9  C   UNL     1      35.331 -17.014 -23.740  0.00  0.00    -0.048 C 
ATOM     10  C   UNL     1      35.321 -16.090 -24.931  0.00  0.00    -0.055 C 
ATOM     11  C   UNL     1      34.939 -17.466 -21.394  0.00  0.00    +0.010 C 
ATOM     12  C   UNL     1      35.800 -18.327 -23.898  0.00  0.00    -0.005 C 
ATOM     13  C   UNL     1      35.396 -18.774 -21.566  0.00  0.00    +0.050 C 
ATOM     14  C   UNL     1      35.831 -19.202 -22.815  0.00  0.00    +0.014 C 
ATOM     15  H   UNL     1      34.571 -14.288 -25.540  0.00  0.00    -0.084 HD
ATOM     16  H   UNL     1      33.468 -15.253 -24.740  0.00  0.00    -0.084 HD
BRANCH   6  17
ATOM     17  C   UNL     1      34.884 -14.453 -21.023  0.00  0.00    +0.002 C 
ATOM     18  C   UNL     1      33.738 -13.799 -20.281  0.00  0.00    +0.000 C 
ENDBRANCH   6  17
ENDBRANCH   2  13
BRANCH   3  19
ATOM     19  C   UNL     1      34.706 -21.314 -18.839  0.00  0.00    +0.054 C 
ATOM     20  C   UNL     1      36.298 -22.036 -17.186  0.00  0.00    +0.000 C 
ATOM     21  C   UNL     1      35.282 -22.803 -16.567  0.00  0.00    +0.000 C 
ATOM     22  C   UNL     1      35.990 -21.288 -18.335  0.00  0.00    +0.005 C 
ATOM     23  C   UNL     1      33.701 -22.052 -18.256  0.00  0.00    +0.005 C 
ATOM     24  C   UNL     1      33.989 -22.800 -17.116  0.00  0.00    +0.000 C 
ATOM     25  C   UNL     1      35.590 -23.552 -15.419  0.00  0.00    +0.003 C 
ATOM     26  C   UNL     1      37.591 -22.039 -16.639  0.00  0.00    +0.000 C 
ATOM     27  C   UNL     1      36.880 -23.543 -14.889  0.00  0.00    +0.031 C 
ATOM     28  C   UNL     1      37.879 -22.788 -15.498  0.00  0.00    +0.003 C 
BRANCH  27  31
ATOM     29  N   UNL     1      36.369 -25.382 -13.302  0.00  0.00    -0.343 N 
ATOM     30  N   UNL     1      38.244 -24.029 -12.972  0.00  0.00    -0.285 NA
ATOM     31  C   UNL     1      37.182 -24.323 -13.700  0.00  0.00    +0.117 C 
ATOM     32  H   UNL     1      36.592 -25.898 -12.493  0.00  0.00    +0.144 HD
ATOM     33  H   UNL     1      35.571 -25.616 -13.829  0.00  0.00    +0.144 HD
ATOM     34  H   UNL     1      38.450 -24.556 -12.166  0.00  0.00    +0.188 HD
ENDBRANCH  27  31
ENDBRANCH   3  19
TORSDOF 4
ENDMDL
MODEL 8
REMARK VINA RESULT:     -10.4      2.696      4.753
REMARK  Name = 447731
REMARK  4 active torsions:
REMARK  status: ('A' for Active; 'I' for Inactive)
REMARK    1  A    between atoms: N_2  and  C_13
REMARK    2  A    between atoms: C_3  and  C_19
REMARK    3  A    between atoms: C_6  and  C_17
REMARK    4  A    between atoms: C_27  and  C_31
REMARK                            x       y       z     vdW  Elec       q    Type
REMARK                         _______ _______ _______ _____ _____    ______ ____
ROOT
ATOM      1  O   UNL     1      37.664 -19.082 -20.115  0.00  0.00    -0.270 OA
ATOM      2  N   UNL     1      35.646 -20.237 -19.761  0.00  0.00    -0.280 N 
ATOM      3  C   UNL     1      36.499 -19.334 -20.407  0.00  0.00    +0.249 C 
ATOM      4  H   UNL     1      34.737 -20.315 -20.132  0.00  0.00    +0.155 HD
ENDROOT
BRANCH   2  13
ATOM      5  N   UNL     1      35.693 -23.640 -14.287  0.00  0.00    +0.387 N 
ATOM      6  C   UNL     1      34.001 -22.987 -15.965  0.00  0.00    +0.001 C 
ATOM      7  C   UNL     1      35.135 -22.411 -16.802  0.00  0.00    -0.029 C 
ATOM      8  C   UNL     1      34.496 -24.083 -15.000  0.00  0.00    -0.077 C 
ATOM      9  C   UNL     1      36.474 -22.631 -16.419  0.00  0.00    -0.048 C 
ATOM     10  C   UNL     1      36.807 -23.494 -15.228  0.00  0.00    -0.055 C 
ATOM     11  C   UNL     1      34.878 -21.590 -17.912  0.00  0.00    +0.010 C 
ATOM     12  C   UNL     1      37.518 -22.085 -17.180  0.00  0.00    -0.005 C 
ATOM     13  C   UNL     1      35.925 -21.041 -18.654  0.00  0.00    +0.050 C 
ATOM     14  C   UNL     1      37.244 -21.293 -18.292  0.00  0.00    +0.014 C 
ATOM     15  H   UNL     1      35.938 -24.331 -13.577  0.00  0.00    -0.084 HD
ATOM     16  H   UNL     1      35.507 -22.740 -13.845  0.00  0.00    -0.084 HD
BRANCH   6  17
ATOM     17  C   UNL     1      32.849 -23.557 -16.801  0.00  0.00    +0.002 C 
ATOM     18  C   UNL     1      31.547 -22.851 -16.488  0.00  0.00    +0.000 C 
ENDBRANCH   6  17
ENDBRANCH   2  13
BRANCH   3  19
ATOM     19  C   UNL     1      35.899 -18.597 -21.550  0.00  0.00    +0.054 C 
ATOM     20  C   UNL     1      35.186 -16.517 -22.528  0.00  0.00    +0.000 C 
ATOM     21  C   UNL     1      34.778 -17.221 -23.686  0.00  0.00    +0.000 C 
ATOM     22  C   UNL     1      35.752 -17.229 -21.456  0.00  0.00    +0.005 C 
ATOM     23  C   UNL     1      35.510 -19.304 -22.665  0.00  0.00    +0.005 C 
ATOM     24  C   UNL     1      34.946 -18.615 -23.738  0.00  0.00    +0.000 C 
ATOM     25  C   UNL     1      34.211 -16.512 -24.758  0.00  0.00    +0.003 C 
ATOM     26  C   UNL     1      35.017 -15.125 -22.475  0.00  0.00    +0.000 C 
ATOM     27  C   UNL     1      34.051 -15.127 -24.688  0.00  0.00    +0.031 C 
ATOM     28  C   UNL     1      34.453 -14.436 -23.549  0.00  0.00    +0.003 C 
BRANCH  27  31
ATOM     29  N   UNL     1      33.759 -13.065 -26.039  0.00  0.00    -0.343 N 
ATOM     30  N   UNL     1      32.628 -15.024 -26.621  0.00  0.00    -0.285 NA
ATOM     31  C   UNL     1      33.463 -14.407 -25.806  0.00  0.00    +0.117 C 
ATOM     32  H   UNL     1      33.351 -12.596 -26.802  0.00  0.00    +0.144 HD
ATOM     33  H   UNL     1      34.378 -12.586 -25.442  0.00  0.00    +0.144 HD
ATOM     34  H   UNL     1      32.228 -14.538 -27.378  0.00  0.00    +0.188 HD
ENDBRANCH  27  31
ENDBRANCH   3  19
TORSDOF 4
ENDMDL
MODEL 9
REMARK VINA RESULT:     -10.3      2.217     10.425
REMARK  Name = 447731
REMARK  4 active torsions:
REMARK  status: ('A' for Active; 'I' for Inactive)
REMARK    1  A    between atoms: N_2  and  C_13
REMARK    2  A    between atoms: C_3  and  C_19
REMARK    3  A    between atoms: C_6  and  C_17
REMARK    4  A    between atoms: C_27  and  C_31
REMARK                            x       y       z     vdW  Elec       q    Type
REMARK                         _______ _______ _______ _____ _____    ______ ____
ROOT
ATOM      1  O   UNL     1      33.756 -20.701 -20.349  0.00  0.00    -0.270 OA
ATOM      2  N   UNL     1      35.833 -19.602 -20.433  0.00  0.00    -0.280 N 
ATOM      3  C   UNL     1      34.887 -20.497 -19.919  0.00  0.00    +0.249 C 
ATOM      4  H   UNL     1      36.696 -19.567 -19.960  0.00  0.00    +0.155 HD
ENDROOT
BRANCH   2  13
ATOM      5  N   UNL     1      34.331 -15.067 -24.760  0.00  0.00    +0.387 N 
ATOM      6  C   UNL     1      34.418 -15.220 -22.296  0.00  0.00    +0.001 C 
ATOM      7  C   UNL     1      35.035 -16.601 -22.459  0.00  0.00    -0.029 C 
ATOM      8  C   UNL     1      34.650 -14.334 -23.536  0.00  0.00    -0.077 C 
ATOM      9  C   UNL     1      35.414 -17.056 -23.739  0.00  0.00    -0.048 C 
ATOM     10  C   UNL     1      35.285 -16.163 -24.948  0.00  0.00    -0.055 C 
ATOM     11  C   UNL     1      35.165 -17.476 -21.368  0.00  0.00    +0.010 C 
ATOM     12  C   UNL     1      35.966 -18.336 -23.892  0.00  0.00    -0.005 C 
ATOM     13  C   UNL     1      35.704 -18.754 -21.535  0.00  0.00    +0.050 C 
ATOM     14  C   UNL     1      36.109 -19.181 -22.794  0.00  0.00    +0.014 C 
ATOM     15  H   UNL     1      34.384 -14.433 -25.558  0.00  0.00    -0.084 HD
ATOM     16  H   UNL     1      33.389 -15.451 -24.686  0.00  0.00    -0.084 HD
BRANCH   6  17
ATOM     17  C   UNL     1      34.917 -14.466 -21.058  0.00  0.00    +0.002 C 
ATOM     18  C   UNL     1      33.803 -13.665 -20.420  0.00  0.00    +0.000 C 
ENDBRANCH   6  17
ENDBRANCH   2  13
BRANCH   3  19
ATOM     19  C   UNL     1      35.312 -21.249 -18.709  0.00  0.00    +0.054 C 
ATOM     20  C   UNL     1      34.762 -22.713 -16.882  0.00  0.00    +0.000 C 
ATOM     21  C   UNL     1      36.109 -22.652 -16.449  0.00  0.00    +0.000 C 
ATOM     22  C   UNL     1      34.376 -21.997 -18.027  0.00  0.00    +0.005 C 
ATOM     23  C   UNL     1      36.627 -21.172 -18.309  0.00  0.00    +0.005 C 
ATOM     24  C   UNL     1      37.028 -21.876 -17.174  0.00  0.00    +0.000 C 
ATOM     25  C   UNL     1      36.495 -23.366 -15.303  0.00  0.00    +0.003 C 
ATOM     26  C   UNL     1      33.843 -23.488 -16.157  0.00  0.00    +0.000 C 
ATOM     27  C   UNL     1      35.568 -24.131 -14.595  0.00  0.00    +0.031 C 
ATOM     28  C   UNL     1      34.244 -24.192 -15.022  0.00  0.00    +0.003 C 
BRANCH  27  31
ATOM     29  N   UNL     1      36.928 -25.889 -13.488  0.00  0.00    -0.343 N 
ATOM     30  N   UNL     1      35.463 -24.569 -12.235  0.00  0.00    -0.285 NA
ATOM     31  C   UNL     1      35.985 -24.865 -13.411  0.00  0.00    +0.117 C 
ATOM     32  H   UNL     1      37.196 -26.373 -12.674  0.00  0.00    +0.144 HD
ATOM     33  H   UNL     1      37.327 -26.127 -14.356  0.00  0.00    +0.144 HD
ATOM     34  H   UNL     1      35.743 -25.065 -11.432  0.00  0.00    +0.188 HD
ENDBRANCH  27  31
ENDBRANCH   3  19
TORSDOF 4
ENDMDL
