MODEL 1
REMARK VINA RESULT:     -12.1      0.000      0.000
REMARK  Name = 3488
REMARK  8 active torsions:
REMARK  status: ('A' for Active; 'I' for Inactive)
REMARK    1  A    between atoms: C_1  and  S_7
REMARK    2  A    between atoms: C_2  and  C_22
REMARK    3  A    between atoms: S_7  and  N_12
REMARK    4  A    between atoms: N_11  and  C_16
REMARK    5  A    between atoms: C_22  and  C_23
REMARK    6  A    between atoms: C_23  and  N_25
REMARK    7  A    between atoms: C_26  and  C_29
REMARK    8  A    between atoms: C_30  and  O_35
REMARK                            x       y       z     vdW  Elec       q    Type
REMARK                         _______ _______ _______ _____ _____    ______ ____
ROOT
ATOM      1  C   UNL     1      34.650 -21.457 -19.148  0.00  0.00    +0.125 C 
ATOM      2  C   UNL     1      36.014 -19.623 -20.710  0.00  0.00    -0.020 C 
ATOM      3  C   UNL     1      33.934 -20.617 -19.983  0.00  0.00    +0.020 C 
ATOM      4  C   UNL     1      36.030 -21.403 -19.074  0.00  0.00    +0.020 C 
ATOM      5  C   UNL     1      34.622 -19.693 -20.771  0.00  0.00    -0.003 C 
ATOM      6  C   UNL     1      36.719 -20.479 -19.862  0.00  0.00    -0.003 C 
ENDROOT
BRANCH   1   7
ATOM      7  S   UNL     1      33.778 -22.628 -18.150  0.00  0.00    +0.077 S 
ATOM      8  O   UNL     1      33.793 -23.905 -18.838  0.00  0.00    -0.150 OA
ATOM      9  O   UNL     1      32.523 -22.008 -17.776  0.00  0.00    -0.150 OA
BRANCH   7  12
ATOM     10  O   UNL     1      33.631 -24.318 -15.548  0.00  0.00    -0.251 OA
ATOM     11  N   UNL     1      35.575 -23.410 -14.688  0.00  0.00    -0.289 N 
ATOM     12  N   UNL     1      34.797 -22.713 -16.780  0.00  0.00    -0.169 N 
ATOM     13  C   UNL     1      34.588 -23.555 -15.642  0.00  0.00    +0.319 C 
ATOM     14  H   UNL     1      36.304 -22.770 -14.856  0.00  0.00    +0.151 HD
ATOM     15  H   UNL     1      35.594 -22.134 -16.774  0.00  0.00    +0.178 HD
BRANCH  11  16
ATOM     16  C   UNL     1      35.587 -24.159 -13.449  0.00  0.00    +0.073 C 
ATOM     17  C   UNL     1      36.027 -23.275 -12.277  0.00  0.00    +0.020 C 
ATOM     18  C   UNL     1      36.469 -25.405 -13.567  0.00  0.00    +0.020 C 
ATOM     19  C   UNL     1      37.517 -22.939 -12.325  0.00  0.00    +0.002 C 
ATOM     20  C   UNL     1      37.959 -25.066 -13.613  0.00  0.00    +0.002 C 
ATOM     21  C   UNL     1      38.375 -24.197 -12.431  0.00  0.00    +0.000 C 
ENDBRANCH  11  16
ENDBRANCH   7  12
ENDBRANCH   1   7
BRANCH   2  22
ATOM     22  C   UNL     1      36.749 -18.635 -21.551  0.00  0.00    +0.048 C 
BRANCH  22  23
ATOM     23  C   UNL     1      36.139 -18.441 -22.945  0.00  0.00    +0.094 C 
BRANCH  23  25
ATOM     24  O   UNL     1      34.150 -17.573 -24.824  0.00  0.00    -0.270 OA
ATOM     25  N   UNL     1      35.698 -17.091 -23.165  0.00  0.00    -0.300 N 
ATOM     26  C   UNL     1      34.725 -16.763 -24.101  0.00  0.00    +0.249 C 
ATOM     27  H   UNL     1      36.102 -16.368 -22.632  0.00  0.00    +0.150 HD
BRANCH  26  29
ATOM     28 CL   UNL     1      33.119 -12.895 -27.111  0.00  0.00    -0.082 Cl
ATOM     29  C   UNL     1      34.399 -15.319 -24.228  0.00  0.00    +0.088 C 
ATOM     30  C   UNL     1      34.533 -14.487 -23.135  0.00  0.00    +0.143 C 
ATOM     31  C   UNL     1      33.969 -14.856 -25.455  0.00  0.00    +0.019 C 
ATOM     32  C   UNL     1      34.223 -13.135 -23.274  0.00  0.00    +0.038 C 
ATOM     33  C   UNL     1      33.658 -13.503 -25.594  0.00  0.00    +0.058 C 
ATOM     34  C   UNL     1      33.785 -12.642 -24.504  0.00  0.00    +0.015 C 
BRANCH  30  35
ATOM     35  O   UNL     1      34.958 -14.949 -21.925  0.00  0.00    -0.471 OA
ATOM     36  C   UNL     1      34.552 -14.213 -20.773  0.00  0.00    +0.252 C 
ENDBRANCH  30  35
ENDBRANCH  26  29
ENDBRANCH  23  25
ENDBRANCH  22  23
ENDBRANCH   2  22
TORSDOF 8
ENDMDL
MODEL 2
REMARK VINA RESULT:     -11.3      6.446     10.242
REMARK  Name = 3488
REMARK  8 active torsions:
REMARK  status: ('A' for Active; 'I' for Inactive)
REMARK    1  A    between atoms: C_1  and  S_7
REMARK    2  A    between atoms: C_2  and  C_22
REMARK    3  A    between atoms: S_7  and  N_12
REMARK    4  A    between atoms: N_11  and  C_16
REMARK    5  A    between atoms: C_22  and  C_23
REMARK    6  A    between atoms: C_23  and  N_25
REMARK    7  A    between atoms: C_26  and  C_29
REMARK    8  A    between atoms: C_30  and  O_35
REMARK                            x       y       z     vdW  Elec       q    Type
REMARK                         _______ _______ _______ _____ _____    ______ ____
ROOT
ATOM      1  C   UNL     1      33.116 -12.512 -22.813  0.00  0.00    +0.125 C 
ATOM      2  C   UNL     1      31.939 -11.050 -20.778  0.00  0.00    -0.020 C 
ATOM      3  C   UNL     1      32.805 -13.142 -21.621  0.00  0.00    +0.020 C 
ATOM      4  C   UNL     1      32.852 -11.168 -23.013  0.00  0.00    +0.020 C 
ATOM      5  C   UNL     1      32.212 -12.405 -20.595  0.00  0.00    -0.003 C 
ATOM      6  C   UNL     1      32.258 -10.431 -21.988  0.00  0.00    -0.003 C 
ENDROOT
BRANCH   1   7
ATOM      7  S   UNL     1      33.868 -13.446 -24.112  0.00  0.00    +0.077 S 
ATOM      8  O   UNL     1      34.907 -12.629 -24.711  0.00  0.00    -0.150 OA
ATOM      9  O   UNL     1      32.792 -13.978 -24.924  0.00  0.00    -0.150 OA
BRANCH   7  12
ATOM     10  O   UNL     1      34.936 -16.235 -24.967  0.00  0.00    -0.251 OA
ATOM     11  N   UNL     1      35.576 -16.799 -22.819  0.00  0.00    -0.289 N 
ATOM     12  N   UNL     1      34.590 -14.718 -23.226  0.00  0.00    -0.169 N 
ATOM     13  C   UNL     1      35.033 -15.962 -23.775  0.00  0.00    +0.319 C 
ATOM     14  H   UNL     1      35.610 -16.488 -21.886  0.00  0.00    +0.151 HD
ATOM     15  H   UNL     1      34.710 -14.581 -22.258  0.00  0.00    +0.178 HD
BRANCH  11  16
ATOM     16  C   UNL     1      36.100 -18.111 -23.129  0.00  0.00    +0.073 C 
ATOM     17  C   UNL     1      35.039 -19.194 -22.901  0.00  0.00    +0.020 C 
ATOM     18  C   UNL     1      37.372 -18.401 -22.327  0.00  0.00    +0.020 C 
ATOM     19  C   UNL     1      34.758 -19.433 -21.418  0.00  0.00    +0.002 C 
ATOM     20  C   UNL     1      37.086 -18.642 -20.844  0.00  0.00    +0.002 C 
ATOM     21  C   UNL     1      36.038 -19.731 -20.642  0.00  0.00    +0.000 C 
ENDBRANCH  11  16
ENDBRANCH   7  12
ENDBRANCH   1   7
BRANCH   2  22
ATOM     22  C   UNL     1      31.305 -10.261 -19.683  0.00  0.00    +0.048 C 
BRANCH  22  23
ATOM     23  C   UNL     1      32.090  -8.999 -19.302  0.00  0.00    +0.094 C 
BRANCH  23  25
ATOM     24  O   UNL     1      33.441  -6.467 -19.276  0.00  0.00    -0.270 OA
ATOM     25  N   UNL     1      32.229  -8.090 -20.406  0.00  0.00    -0.300 N 
ATOM     26  C   UNL     1      32.903  -6.879 -20.301  0.00  0.00    +0.249 C 
ATOM     27  H   UNL     1      31.830  -8.333 -21.273  0.00  0.00    +0.150 HD
BRANCH  26  29
ATOM     28 CL   UNL     1      31.353  -2.579 -22.691  0.00  0.00    -0.082 Cl
ATOM     29  C   UNL     1      32.935  -6.039 -21.526  0.00  0.00    +0.088 C 
ATOM     30  C   UNL     1      33.668  -6.450 -22.620  0.00  0.00    +0.143 C 
ATOM     31  C   UNL     1      32.218  -4.859 -21.522  0.00  0.00    +0.019 C 
ATOM     32  C   UNL     1      33.686  -5.648 -23.761  0.00  0.00    +0.038 C 
ATOM     33  C   UNL     1      32.237  -4.056 -22.663  0.00  0.00    +0.058 C 
ATOM     34  C   UNL     1      32.969  -4.451 -23.782  0.00  0.00    +0.015 C 
BRANCH  30  35
ATOM     35  O   UNL     1      34.375  -7.616 -22.619  0.00  0.00    -0.471 OA
ATOM     36  C   UNL     1      35.212  -7.865 -23.746  0.00  0.00    +0.252 C 
ENDBRANCH  30  35
ENDBRANCH  26  29
ENDBRANCH  23  25
ENDBRANCH  22  23
ENDBRANCH   2  22
TORSDOF 8
ENDMDL
MODEL 3
REMARK VINA RESULT:     -11.3      1.019      1.911
REMARK  Name = 3488
REMARK  8 active torsions:
REMARK  status: ('A' for Active; 'I' for Inactive)
REMARK    1  A    between atoms: C_1  and  S_7
REMARK    2  A    between atoms: C_2  and  C_22
REMARK    3  A    between atoms: S_7  and  N_12
REMARK    4  A    between atoms: N_11  and  C_16
REMARK    5  A    between atoms: C_22  and  C_23
REMARK    6  A    between atoms: C_23  and  N_25
REMARK    7  A    between atoms: C_26  and  C_29
REMARK    8  A    between atoms: C_30  and  O_35
REMARK                            x       y       z     vdW  Elec       q    Type
REMARK                         _______ _______ _______ _____ _____    ______ ____
ROOT
ATOM      1  C   UNL     1      34.235 -21.670 -18.960  0.00  0.00    +0.125 C 
ATOM      2  C   UNL     1      35.373 -19.831 -20.689  0.00  0.00    -0.020 C 
ATOM      3  C   UNL     1      33.412 -20.865 -19.728  0.00  0.00    +0.020 C 
ATOM      4  C   UNL     1      35.614 -21.578 -19.036  0.00  0.00    +0.020 C 
ATOM      5  C   UNL     1      33.985 -19.938 -20.599  0.00  0.00    -0.003 C 
ATOM      6  C   UNL     1      36.188 -20.652 -19.908  0.00  0.00    -0.003 C 
ENDROOT
BRANCH   1   7
ATOM      7  S   UNL     1      33.508 -22.844 -17.856  0.00  0.00    +0.077 S 
ATOM      8  O   UNL     1      33.531 -24.143 -18.500  0.00  0.00    -0.150 OA
ATOM      9  O   UNL     1      32.258 -22.271 -17.398  0.00  0.00    -0.150 OA
BRANCH   7  12
ATOM     10  O   UNL     1      33.586 -24.337 -15.133  0.00  0.00    -0.251 OA
ATOM     11  N   UNL     1      35.592 -23.373 -14.507  0.00  0.00    -0.289 N 
ATOM     12  N   UNL     1      34.638 -22.829 -16.573  0.00  0.00    -0.169 N 
ATOM     13  C   UNL     1      34.528 -23.586 -15.363  0.00  0.00    +0.319 C 
ATOM     14  H   UNL     1      36.301 -22.748 -14.783  0.00  0.00    +0.151 HD
ATOM     15  H   UNL     1      35.431 -22.253 -16.676  0.00  0.00    +0.178 HD
BRANCH  11  16
ATOM     16  C   UNL     1      35.710 -24.028 -13.223  0.00  0.00    +0.073 C 
ATOM     17  C   UNL     1      36.330 -23.090 -12.182  0.00  0.00    +0.020 C 
ATOM     18  C   UNL     1      36.506 -25.332 -13.341  0.00  0.00    +0.020 C 
ATOM     19  C   UNL     1      37.820 -22.850 -12.425  0.00  0.00    +0.002 C 
ATOM     20  C   UNL     1      37.996 -25.088 -13.582  0.00  0.00    +0.002 C 
ATOM     21  C   UNL     1      38.593 -24.162 -12.527  0.00  0.00    +0.000 C 
ENDBRANCH  11  16
ENDBRANCH   7  12
ENDBRANCH   1   7
BRANCH   2  22
ATOM     22  C   UNL     1      35.987 -18.841 -21.620  0.00  0.00    +0.048 C 
BRANCH  22  23
ATOM     23  C   UNL     1      35.877 -17.391 -21.131  0.00  0.00    +0.094 C 
BRANCH  23  25
ATOM     24  O   UNL     1      34.731 -14.781 -20.794  0.00  0.00    -0.270 OA
ATOM     25  N   UNL     1      35.466 -16.492 -22.176  0.00  0.00    -0.300 N 
ATOM     26  C   UNL     1      34.918 -15.242 -21.917  0.00  0.00    +0.249 C 
ATOM     27  H   UNL     1      35.577 -16.774 -23.113  0.00  0.00    +0.150 HD
BRANCH  26  29
ATOM     28 CL   UNL     1      34.059 -10.587 -23.966  0.00  0.00    -0.082 Cl
ATOM     29  C   UNL     1      34.519 -14.444 -23.105  0.00  0.00    +0.088 C 
ATOM     30  C   UNL     1      34.198 -15.084 -24.285  0.00  0.00    +0.143 C 
ATOM     31  C   UNL     1      34.484 -13.069 -22.982  0.00  0.00    +0.019 C 
ATOM     32  C   UNL     1      33.826 -14.318 -25.389  0.00  0.00    +0.038 C 
ATOM     33  C   UNL     1      34.113 -12.303 -24.087  0.00  0.00    +0.058 C 
ATOM     34  C   UNL     1      33.783 -12.927 -25.290  0.00  0.00    +0.015 C 
BRANCH  30  35
ATOM     35  O   UNL     1      34.234 -16.442 -24.402  0.00  0.00    -0.471 OA
ATOM     36  C   UNL     1      33.268 -17.043 -25.262  0.00  0.00    +0.252 C 
ENDBRANCH  30  35
ENDBRANCH  26  29
ENDBRANCH  23  25
ENDBRANCH  22  23
ENDBRANCH   2  22
TORSDOF 8
ENDMDL
MODEL 4
REMARK VINA RESULT:     -11.0      1.585      2.289
REMARK  Name = 3488
REMARK  8 active torsions:
REMARK  status: ('A' for Active; 'I' for Inactive)
REMARK    1  A    between atoms: C_1  and  S_7
REMARK    2  A    between atoms: C_2  and  C_22
REMARK    3  A    between atoms: S_7  and  N_12
REMARK    4  A    between atoms: N_11  and  C_16
REMARK    5  A    between atoms: C_22  and  C_23
REMARK    6  A    between atoms: C_23  and  N_25
REMARK    7  A    between atoms: C_26  and  C_29
REMARK    8  A    between atoms: C_30  and  O_35
REMARK                            x       y       z     vdW  Elec       q    Type
REMARK                         _______ _______ _______ _____ _____    ______ ____
ROOT
ATOM      1  C   UNL     1      34.687 -21.128 -19.554  0.00  0.00    +0.125 C 
ATOM      2  C   UNL     1      36.059 -19.240 -21.044  0.00  0.00    -0.020 C 
ATOM      3  C   UNL     1      36.064 -21.054 -19.447  0.00  0.00    +0.020 C 
ATOM      4  C   UNL     1      33.978 -20.281 -20.388  0.00  0.00    +0.020 C 
ATOM      5  C   UNL     1      36.756 -20.102 -20.198  0.00  0.00    -0.003 C 
ATOM      6  C   UNL     1      34.669 -19.328 -21.139  0.00  0.00    -0.003 C 
ENDROOT
BRANCH   1   7
ATOM      7  S   UNL     1      33.811 -22.333 -18.603  0.00  0.00    +0.077 S 
ATOM      8  O   UNL     1      33.840 -23.588 -19.330  0.00  0.00    -0.150 OA
ATOM      9  O   UNL     1      32.548 -21.731 -18.224  0.00  0.00    -0.150 OA
BRANCH   7  12
ATOM     10  O   UNL     1      33.589 -24.030 -16.011  0.00  0.00    -0.251 OA
ATOM     11  N   UNL     1      35.552 -23.186 -15.129  0.00  0.00    -0.289 N 
ATOM     12  N   UNL     1      34.814 -22.455 -17.225  0.00  0.00    -0.169 N 
ATOM     13  C   UNL     1      34.569 -23.296 -16.093  0.00  0.00    +0.319 C 
ATOM     14  H   UNL     1      36.301 -22.567 -15.288  0.00  0.00    +0.151 HD
ATOM     15  H   UNL     1      35.628 -21.901 -17.209  0.00  0.00    +0.178 HD
BRANCH  11  16
ATOM     16  C   UNL     1      35.531 -23.940 -13.895  0.00  0.00    +0.073 C 
ATOM     17  C   UNL     1      36.232 -23.173 -12.769  0.00  0.00    +0.020 C 
ATOM     18  C   UNL     1      36.146 -25.329 -14.087  0.00  0.00    +0.020 C 
ATOM     19  C   UNL     1      37.748 -23.124 -12.951  0.00  0.00    +0.002 C 
ATOM     20  C   UNL     1      37.663 -25.278 -14.267  0.00  0.00    +0.002 C 
ATOM     21  C   UNL     1      38.340 -24.520 -13.128  0.00  0.00    +0.000 C 
ENDBRANCH  11  16
ENDBRANCH   7  12
ENDBRANCH   1   7
BRANCH   2  22
ATOM     22  C   UNL     1      36.798 -18.223 -21.847  0.00  0.00    +0.048 C 
BRANCH  22  23
ATOM     23  C   UNL     1      36.037 -17.757 -23.095  0.00  0.00    +0.094 C 
BRANCH  23  25
ATOM     24  O   UNL     1      34.707 -16.185 -25.094  0.00  0.00    -0.270 OA
ATOM     25  N   UNL     1      35.400 -16.483 -22.901  0.00  0.00    -0.300 N 
ATOM     26  C   UNL     1      34.777 -15.791 -23.933  0.00  0.00    +0.249 C 
ATOM     27  H   UNL     1      35.405 -16.083 -22.001  0.00  0.00    +0.150 HD
BRANCH  26  29
ATOM     28 CL   UNL     1      32.951 -12.676 -20.249  0.00  0.00    -0.082 Cl
ATOM     29  C   UNL     1      34.189 -14.474 -23.576  0.00  0.00    +0.088 C 
ATOM     30  C   UNL     1      33.960 -13.535 -24.561  0.00  0.00    +0.143 C 
ATOM     31  C   UNL     1      33.889 -14.235 -22.249  0.00  0.00    +0.019 C 
ATOM     32  C   UNL     1      33.407 -12.305 -24.206  0.00  0.00    +0.038 C 
ATOM     33  C   UNL     1      33.337 -13.004 -21.894  0.00  0.00    +0.058 C 
ATOM     34  C   UNL     1      33.095 -12.040 -22.872  0.00  0.00    +0.015 C 
BRANCH  30  35
ATOM     35  O   UNL     1      34.258 -13.775 -25.870  0.00  0.00    -0.471 OA
ATOM     36  C   UNL     1      33.617 -12.950 -26.840  0.00  0.00    +0.252 C 
ENDBRANCH  30  35
ENDBRANCH  26  29
ENDBRANCH  23  25
ENDBRANCH  22  23
ENDBRANCH   2  22
TORSDOF 8
ENDMDL
MODEL 5
REMARK VINA RESULT:     -10.8      6.181     10.001
REMARK  Name = 3488
REMARK  8 active torsions:
REMARK  status: ('A' for Active; 'I' for Inactive)
REMARK    1  A    between atoms: C_1  and  S_7
REMARK    2  A    between atoms: C_2  and  C_22
REMARK    3  A    between atoms: S_7  and  N_12
REMARK    4  A    between atoms: N_11  and  C_16
REMARK    5  A    between atoms: C_22  and  C_23
REMARK    6  A    between atoms: C_23  and  N_25
REMARK    7  A    between atoms: C_26  and  C_29
REMARK    8  A    between atoms: C_30  and  O_35
REMARK                            x       y       z     vdW  Elec       q    Type
REMARK                         _______ _______ _______ _____ _____    ______ ____
ROOT
ATOM      1  C   UNL     1      33.117 -12.559 -22.568  0.00  0.00    +0.125 C 
ATOM      2  C   UNL     1      31.917 -11.157 -20.504  0.00  0.00    -0.020 C 
ATOM      3  C   UNL     1      32.968 -13.168 -21.335  0.00  0.00    +0.020 C 
ATOM      4  C   UNL     1      32.681 -11.265 -22.795  0.00  0.00    +0.020 C 
ATOM      5  C   UNL     1      32.363 -12.462 -20.295  0.00  0.00    -0.003 C 
ATOM      6  C   UNL     1      32.075 -10.558 -21.756  0.00  0.00    -0.003 C 
ENDROOT
BRANCH   1   7
ATOM      7  S   UNL     1      33.884 -13.454 -23.886  0.00  0.00    +0.077 S 
ATOM      8  O   UNL     1      34.921 -12.616 -24.456  0.00  0.00    -0.150 OA
ATOM      9  O   UNL     1      32.816 -13.972 -24.718  0.00  0.00    -0.150 OA
BRANCH   7  12
ATOM     10  O   UNL     1      35.074 -16.167 -24.820  0.00  0.00    -0.251 OA
ATOM     11  N   UNL     1      35.640 -16.812 -22.674  0.00  0.00    -0.289 N 
ATOM     12  N   UNL     1      34.607 -14.744 -23.028  0.00  0.00    -0.169 N 
ATOM     13  C   UNL     1      35.112 -15.948 -23.613  0.00  0.00    +0.319 C 
ATOM     14  H   UNL     1      35.624 -16.545 -21.727  0.00  0.00    +0.151 HD
ATOM     15  H   UNL     1      34.681 -14.650 -22.050  0.00  0.00    +0.178 HD
BRANCH  11  16
ATOM     16  C   UNL     1      36.218 -18.092 -23.020  0.00  0.00    +0.073 C 
ATOM     17  C   UNL     1      35.185 -19.217 -22.882  0.00  0.00    +0.020 C 
ATOM     18  C   UNL     1      37.467 -18.379 -22.182  0.00  0.00    +0.020 C 
ATOM     19  C   UNL     1      34.855 -19.531 -21.424  0.00  0.00    +0.002 C 
ATOM     20  C   UNL     1      37.133 -18.695 -20.724  0.00  0.00    +0.002 C 
ATOM     21  C   UNL     1      36.113 -19.824 -20.611  0.00  0.00    +0.000 C 
ENDBRANCH  11  16
ENDBRANCH   7  12
ENDBRANCH   1   7
BRANCH   2  22
ATOM     22  C   UNL     1      31.271 -10.401 -19.393  0.00  0.00    +0.048 C 
BRANCH  22  23
ATOM     23  C   UNL     1      31.873  -9.008 -19.168  0.00  0.00    +0.094 C 
BRANCH  23  25
ATOM     24  O   UNL     1      33.485  -6.645 -19.407  0.00  0.00    -0.270 OA
ATOM     25  N   UNL     1      32.355  -8.418 -20.387  0.00  0.00    -0.300 N 
ATOM     26  C   UNL     1      33.134  -7.267 -20.407  0.00  0.00    +0.249 C 
ATOM     27  H   UNL     1      32.124  -8.846 -21.244  0.00  0.00    +0.150 HD
BRANCH  26  29
ATOM     28 CL   UNL     1      35.780  -8.070 -24.761  0.00  0.00    -0.082 Cl
ATOM     29  C   UNL     1      33.529  -6.768 -21.749  0.00  0.00    +0.088 C 
ATOM     30  C   UNL     1      33.064  -5.546 -22.191  0.00  0.00    +0.143 C 
ATOM     31  C   UNL     1      34.361  -7.559 -22.516  0.00  0.00    +0.019 C 
ATOM     32  C   UNL     1      33.447  -5.095 -23.454  0.00  0.00    +0.038 C 
ATOM     33  C   UNL     1      34.743  -7.107 -23.780  0.00  0.00    +0.058 C 
ATOM     34  C   UNL     1      34.287  -5.876 -24.248  0.00  0.00    +0.015 C 
BRANCH  30  35
ATOM     35  O   UNL     1      32.242  -4.769 -21.430  0.00  0.00    -0.471 OA
ATOM     36  C   UNL     1      30.878  -4.680 -21.835  0.00  0.00    +0.252 C 
ENDBRANCH  30  35
ENDBRANCH  26  29
ENDBRANCH  23  25
ENDBRANCH  22  23
ENDBRANCH   2  22
TORSDOF 8
ENDMDL
MODEL 6
REMARK VINA RESULT:     -10.7      3.554     10.768
REMARK  Name = 3488
REMARK  8 active torsions:
REMARK  status: ('A' for Active; 'I' for Inactive)
REMARK    1  A    between atoms: C_1  and  S_7
REMARK    2  A    between atoms: C_2  and  C_22
REMARK    3  A    between atoms: S_7  and  N_12
REMARK    4  A    between atoms: N_11  and  C_16
REMARK    5  A    between atoms: C_22  and  C_23
REMARK    6  A    between atoms: C_23  and  N_25
REMARK    7  A    between atoms: C_26  and  C_29
REMARK    8  A    between atoms: C_30  and  O_35
REMARK                            x       y       z     vdW  Elec       q    Type
REMARK                         _______ _______ _______ _____ _____    ______ ____
ROOT
ATOM      1  C   UNL     1      35.059 -18.387 -23.257  0.00  0.00    +0.125 C 
ATOM      2  C   UNL     1      36.036 -19.530 -20.933  0.00  0.00    -0.020 C 
ATOM      3  C   UNL     1      36.403 -18.258 -22.955  0.00  0.00    +0.020 C 
ATOM      4  C   UNL     1      34.191 -19.074 -22.426  0.00  0.00    +0.020 C 
ATOM      5  C   UNL     1      36.896 -18.834 -21.783  0.00  0.00    -0.003 C 
ATOM      6  C   UNL     1      34.684 -19.652 -21.255  0.00  0.00    -0.003 C 
ENDROOT
BRANCH   1   7
ATOM      7  S   UNL     1      34.434 -17.657 -24.741  0.00  0.00    +0.077 S 
ATOM      8  O   UNL     1      33.380 -18.511 -25.255  0.00  0.00    -0.150 OA
ATOM      9  O   UNL     1      35.582 -17.330 -25.563  0.00  0.00    -0.150 OA
BRANCH   7  12
ATOM     10  O   UNL     1      35.672 -15.227 -23.254  0.00  0.00    -0.251 OA
ATOM     11  N   UNL     1      33.646 -14.129 -23.079  0.00  0.00    -0.289 N 
ATOM     12  N   UNL     1      33.747 -16.215 -24.132  0.00  0.00    -0.169 N 
ATOM     13  C   UNL     1      34.464 -15.176 -23.459  0.00  0.00    +0.319 C 
ATOM     14  H   UNL     1      32.685 -14.182 -23.288  0.00  0.00    +0.151 HD
ATOM     15  H   UNL     1      32.778 -16.089 -24.257  0.00  0.00    +0.178 HD
BRANCH  11  16
ATOM     16  C   UNL     1      34.138 -12.958 -22.386  0.00  0.00    +0.073 C 
ATOM     17  C   UNL     1      34.209 -13.203 -20.875  0.00  0.00    +0.020 C 
ATOM     18  C   UNL     1      33.287 -11.728 -22.711  0.00  0.00    +0.020 C 
ATOM     19  C   UNL     1      32.827 -13.256 -20.226  0.00  0.00    +0.002 C 
ATOM     20  C   UNL     1      31.905 -11.783 -22.058  0.00  0.00    +0.002 C 
ATOM     21  C   UNL     1      32.002 -12.014 -20.553  0.00  0.00    +0.000 C 
ENDBRANCH  11  16
ENDBRANCH   7  12
ENDBRANCH   1   7
BRANCH   2  22
ATOM     22  C   UNL     1      36.562 -20.146 -19.680  0.00  0.00    +0.048 C 
BRANCH  22  23
ATOM     23  C   UNL     1      36.195 -21.627 -19.524  0.00  0.00    +0.094 C 
BRANCH  23  25
ATOM     24  O   UNL     1      33.934 -23.385 -19.331  0.00  0.00    -0.270 OA
ATOM     25  N   UNL     1      35.395 -21.871 -18.355  0.00  0.00    -0.300 N 
ATOM     26  C   UNL     1      34.314 -22.743 -18.354  0.00  0.00    +0.249 C 
ATOM     27  H   UNL     1      35.622 -21.400 -17.520  0.00  0.00    +0.150 HD
BRANCH  26  29
ATOM     28 CL   UNL     1      29.800 -22.451 -15.875  0.00  0.00    -0.082 Cl
ATOM     29  C   UNL     1      33.572 -22.864 -17.073  0.00  0.00    +0.088 C 
ATOM     30  C   UNL     1      34.247 -23.204 -15.919  0.00  0.00    +0.143 C 
ATOM     31  C   UNL     1      32.211 -22.629 -17.086  0.00  0.00    +0.019 C 
ATOM     32  C   UNL     1      33.533 -23.313 -14.726  0.00  0.00    +0.038 C 
ATOM     33  C   UNL     1      31.497 -22.739 -15.892  0.00  0.00    +0.058 C 
ATOM     34  C   UNL     1      32.158 -23.079 -14.712  0.00  0.00    +0.015 C 
BRANCH  30  35
ATOM     35  O   UNL     1      35.591 -23.436 -15.910  0.00  0.00    -0.471 OA
ATOM     36  C   UNL     1      36.350 -22.801 -14.884  0.00  0.00    +0.252 C 
ENDBRANCH  30  35
ENDBRANCH  26  29
ENDBRANCH  23  25
ENDBRANCH  22  23
ENDBRANCH   2  22
TORSDOF 8
ENDMDL
MODEL 7
REMARK VINA RESULT:     -10.5      3.329      5.271
REMARK  Name = 3488
REMARK  8 active torsions:
REMARK  status: ('A' for Active; 'I' for Inactive)
REMARK    1  A    between atoms: C_1  and  S_7
REMARK    2  A    between atoms: C_2  and  C_22
REMARK    3  A    between atoms: S_7  and  N_12
REMARK    4  A    between atoms: N_11  and  C_16
REMARK    5  A    between atoms: C_22  and  C_23
REMARK    6  A    between atoms: C_23  and  N_25
REMARK    7  A    between atoms: C_26  and  C_29
REMARK    8  A    between atoms: C_30  and  O_35
REMARK                            x       y       z     vdW  Elec       q    Type
REMARK                         _______ _______ _______ _____ _____    ______ ____
ROOT
ATOM      1  C   UNL     1      36.367 -23.361 -15.356  0.00  0.00    +0.125 C 
ATOM      2  C   UNL     1      36.674 -21.595 -17.466  0.00  0.00    -0.020 C 
ATOM      3  C   UNL     1      37.599 -22.766 -15.564  0.00  0.00    +0.020 C 
ATOM      4  C   UNL     1      35.285 -23.095 -16.176  0.00  0.00    +0.020 C 
ATOM      5  C   UNL     1      37.754 -21.876 -16.628  0.00  0.00    -0.003 C 
ATOM      6  C   UNL     1      35.439 -22.204 -17.239  0.00  0.00    -0.003 C 
ENDROOT
BRANCH   1   7
ATOM      7  S   UNL     1      36.171 -24.490 -14.009  0.00  0.00    +0.077 S 
ATOM      8  O   UNL     1      36.270 -23.737 -12.773  0.00  0.00    -0.150 OA
ATOM      9  O   UNL     1      37.060 -25.606 -14.264  0.00  0.00    -0.150 OA
BRANCH   7  12
ATOM     10  O   UNL     1      33.505 -23.585 -12.696  0.00  0.00    -0.251 OA
ATOM     11  N   UNL     1      32.236 -25.070 -13.933  0.00  0.00    -0.289 N 
ATOM     12  N   UNL     1      34.553 -24.993 -14.237  0.00  0.00    -0.169 N 
ATOM     13  C   UNL     1      33.417 -24.471 -13.541  0.00  0.00    +0.319 C 
ATOM     14  H   UNL     1      32.269 -25.773 -14.620  0.00  0.00    +0.151 HD
ATOM     15  H   UNL     1      34.391 -25.701 -14.902  0.00  0.00    +0.178 HD
BRANCH  11  16
ATOM     16  C   UNL     1      30.950 -24.708 -13.378  0.00  0.00    +0.073 C 
ATOM     17  C   UNL     1      29.809 -25.387 -14.144  0.00  0.00    +0.020 C 
ATOM     18  C   UNL     1      30.771 -23.188 -13.347  0.00  0.00    +0.020 C 
ATOM     19  C   UNL     1      29.604 -24.790 -15.536  0.00  0.00    +0.002 C 
ATOM     20  C   UNL     1      30.564 -22.594 -14.740  0.00  0.00    +0.002 C 
ATOM     21  C   UNL     1      29.416 -23.277 -15.478  0.00  0.00    +0.000 C 
ENDBRANCH  11  16
ENDBRANCH   7  12
ENDBRANCH   1   7
BRANCH   2  22
ATOM     22  C   UNL     1      36.839 -20.644 -18.602  0.00  0.00    +0.048 C 
BRANCH  22  23
ATOM     23  C   UNL     1      36.011 -21.017 -19.839  0.00  0.00    +0.094 C 
BRANCH  23  25
ATOM     24  O   UNL     1      37.723 -18.990 -20.933  0.00  0.00    -0.270 OA
ATOM     25  N   UNL     1      35.602 -19.862 -20.590  0.00  0.00    -0.300 N 
ATOM     26  C   UNL     1      36.506 -18.929 -21.083  0.00  0.00    +0.249 C 
ATOM     27  H   UNL     1      34.641 -19.725 -20.763  0.00  0.00    +0.150 HD
BRANCH  26  29
ATOM     28 CL   UNL     1      34.573 -14.150 -20.884  0.00  0.00    -0.082 Cl
ATOM     29  C   UNL     1      35.921 -17.776 -21.816  0.00  0.00    +0.088 C 
ATOM     30  C   UNL     1      35.746 -17.850 -23.183  0.00  0.00    +0.143 C 
ATOM     31  C   UNL     1      35.571 -16.655 -21.090  0.00  0.00    +0.019 C 
ATOM     32  C   UNL     1      35.196 -16.758 -23.853  0.00  0.00    +0.038 C 
ATOM     33  C   UNL     1      35.021 -15.562 -21.761  0.00  0.00    +0.058 C 
ATOM     34  C   UNL     1      34.833 -15.614 -23.142  0.00  0.00    +0.015 C 
BRANCH  30  35
ATOM     35  O   UNL     1      36.094 -18.959 -23.896  0.00  0.00    -0.471 OA
ATOM     36  C   UNL     1      35.031 -19.731 -24.450  0.00  0.00    +0.252 C 
ENDBRANCH  30  35
ENDBRANCH  26  29
ENDBRANCH  23  25
ENDBRANCH  22  23
ENDBRANCH   2  22
TORSDOF 8
ENDMDL
MODEL 8
REMARK VINA RESULT:     -10.4      3.219      4.398
REMARK  Name = 3488
REMARK  8 active torsions:
REMARK  status: ('A' for Active; 'I' for Inactive)
REMARK    1  A    between atoms: C_1  and  S_7
REMARK    2  A    between atoms: C_2  and  C_22
REMARK    3  A    between atoms: S_7  and  N_12
REMARK    4  A    between atoms: N_11  and  C_16
REMARK    5  A    between atoms: C_22  and  C_23
REMARK    6  A    between atoms: C_23  and  N_25
REMARK    7  A    between atoms: C_26  and  C_29
REMARK    8  A    between atoms: C_30  and  O_35
REMARK                            x       y       z     vdW  Elec       q    Type
REMARK                         _______ _______ _______ _____ _____    ______ ____
ROOT
ATOM      1  C   UNL     1      34.652 -21.462 -19.507  0.00  0.00    +0.125 C 
ATOM      2  C   UNL     1      35.292 -19.350 -21.180  0.00  0.00    -0.020 C 
ATOM      3  C   UNL     1      35.982 -21.194 -19.777  0.00  0.00    +0.020 C 
ATOM      4  C   UNL     1      33.633 -20.700 -20.052  0.00  0.00    +0.020 C 
ATOM      5  C   UNL     1      36.305 -20.130 -20.621  0.00  0.00    -0.003 C 
ATOM      6  C   UNL     1      33.955 -19.635 -20.894  0.00  0.00    -0.003 C 
ENDROOT
BRANCH   1   7
ATOM      7  S   UNL     1      34.243 -22.810 -18.439  0.00  0.00    +0.077 S 
ATOM      8  O   UNL     1      35.134 -22.766 -17.295  0.00  0.00    -0.150 OA
ATOM      9  O   UNL     1      34.171 -23.996 -19.269  0.00  0.00    -0.150 OA
BRANCH   7  12
ATOM     10  O   UNL     1      32.752 -23.106 -15.730  0.00  0.00    -0.251 OA
ATOM     11  N   UNL     1      30.820 -22.122 -16.532  0.00  0.00    -0.289 N 
ATOM     12  N   UNL     1      32.666 -22.370 -17.945  0.00  0.00    -0.169 N 
ATOM     13  C   UNL     1      32.119 -22.579 -16.640  0.00  0.00    +0.319 C 
ATOM     14  H   UNL     1      30.397 -21.713 -17.321  0.00  0.00    +0.151 HD
ATOM     15  H   UNL     1      32.089 -21.936 -18.615  0.00  0.00    +0.178 HD
BRANCH  11  16
ATOM     16  C   UNL     1      30.053 -22.216 -15.309  0.00  0.00    +0.073 C 
ATOM     17  C   UNL     1      30.544 -23.379 -14.440  0.00  0.00    +0.020 C 
ATOM     18  C   UNL     1      28.555 -22.337 -15.605  0.00  0.00    +0.020 C 
ATOM     19  C   UNL     1      30.168 -24.742 -15.021  0.00  0.00    +0.002 C 
ATOM     20  C   UNL     1      28.182 -23.702 -16.184  0.00  0.00    +0.002 C 
ATOM     21  C   UNL     1      28.670 -24.843 -15.297  0.00  0.00    +0.000 C 
ENDBRANCH  11  16
ENDBRANCH   7  12
ENDBRANCH   1   7
BRANCH   2  22
ATOM     22  C   UNL     1      35.636 -18.213 -22.081  0.00  0.00    +0.048 C 
BRANCH  22  23
ATOM     23  C   UNL     1      35.330 -16.837 -21.476  0.00  0.00    +0.094 C 
BRANCH  23  25
ATOM     24  O   UNL     1      34.395 -14.159 -21.036  0.00  0.00    -0.270 OA
ATOM     25  N   UNL     1      35.057 -15.847 -22.482  0.00  0.00    -0.300 N 
ATOM     26  C   UNL     1      34.605 -14.570 -22.174  0.00  0.00    +0.249 C 
ATOM     27  H   UNL     1      35.196 -16.083 -23.428  0.00  0.00    +0.150 HD
BRANCH  26  29
ATOM     28 CL   UNL     1      34.011  -9.751 -23.916  0.00  0.00    -0.082 Cl
ATOM     29  C   UNL     1      34.344 -13.672 -23.329  0.00  0.00    +0.088 C 
ATOM     30  C   UNL     1      34.147 -14.210 -24.585  0.00  0.00    +0.143 C 
ATOM     31  C   UNL     1      34.307 -12.311 -23.099  0.00  0.00    +0.019 C 
ATOM     32  C   UNL     1      33.903 -13.351 -25.656  0.00  0.00    +0.038 C 
ATOM     33  C   UNL     1      34.064 -11.453 -24.171  0.00  0.00    +0.058 C 
ATOM     34  C   UNL     1      33.861 -11.972 -25.449  0.00  0.00    +0.015 C 
BRANCH  30  35
ATOM     35  O   UNL     1      34.185 -15.554 -24.808  0.00  0.00    -0.471 OA
ATOM     36  C   UNL     1      33.093 -16.121 -25.529  0.00  0.00    +0.252 C 
ENDBRANCH  30  35
ENDBRANCH  26  29
ENDBRANCH  23  25
ENDBRANCH  22  23
ENDBRANCH   2  22
TORSDOF 8
ENDMDL
MODEL 9
REMARK VINA RESULT:     -10.2      2.922      4.549
REMARK  Name = 3488
REMARK  8 active torsions:
REMARK  status: ('A' for Active; 'I' for Inactive)
REMARK    1  A    between atoms: C_1  and  S_7
REMARK    2  A    between atoms: C_2  and  C_22
REMARK    3  A    between atoms: S_7  and  N_12
REMARK    4  A    between atoms: N_11  and  C_16
REMARK    5  A    between atoms: C_22  and  C_23
REMARK    6  A    between atoms: C_23  and  N_25
REMARK    7  A    between atoms: C_26  and  C_29
REMARK    8  A    between atoms: C_30  and  O_35
REMARK                            x       y       z     vdW  Elec       q    Type
REMARK                         _______ _______ _______ _____ _____    ______ ____
ROOT
ATOM      1  C   UNL     1      35.553 -22.249 -17.244  0.00  0.00    +0.125 C 
ATOM      2  C   UNL     1      35.633 -20.938 -19.682  0.00  0.00    -0.020 C 
ATOM      3  C   UNL     1      34.441 -22.285 -18.067  0.00  0.00    +0.020 C 
ATOM      4  C   UNL     1      36.704 -21.573 -17.610  0.00  0.00    +0.020 C 
ATOM      5  C   UNL     1      34.481 -21.624 -19.295  0.00  0.00    -0.003 C 
ATOM      6  C   UNL     1      36.745 -20.914 -18.839  0.00  0.00    -0.003 C 
ENDROOT
BRANCH   1   7
ATOM      7  S   UNL     1      35.502 -23.085 -15.687  0.00  0.00    +0.077 S 
ATOM      8  O   UNL     1      35.586 -22.088 -14.637  0.00  0.00    -0.150 OA
ATOM      9  O   UNL     1      36.470 -24.162 -15.758  0.00  0.00    -0.150 OA
BRANCH   7  12
ATOM     10  O   UNL     1      32.935 -22.413 -14.073  0.00  0.00    -0.251 OA
ATOM     11  N   UNL     1      31.676 -24.029 -15.143  0.00  0.00    -0.289 N 
ATOM     12  N   UNL     1      33.924 -23.741 -15.719  0.00  0.00    -0.169 N 
ATOM     13  C   UNL     1      32.833 -23.316 -14.897  0.00  0.00    +0.319 C 
ATOM     14  H   UNL     1      31.695 -24.737 -15.826  0.00  0.00    +0.151 HD
ATOM     15  H   UNL     1      33.752 -24.471 -16.358  0.00  0.00    +0.178 HD
BRANCH  11  16
ATOM     16  C   UNL     1      30.435 -23.780 -14.441  0.00  0.00    +0.073 C 
ATOM     17  C   UNL     1      29.414 -24.889 -14.718  0.00  0.00    +0.020 C 
ATOM     18  C   UNL     1      29.868 -22.402 -14.796  0.00  0.00    +0.020 C 
ATOM     19  C   UNL     1      28.858 -24.830 -16.140  0.00  0.00    +0.002 C 
ATOM     20  C   UNL     1      29.311 -22.347 -16.218  0.00  0.00    +0.002 C 
ATOM     21  C   UNL     1      28.289 -23.452 -16.466  0.00  0.00    +0.000 C 
ENDBRANCH  11  16
ENDBRANCH   7  12
ENDBRANCH   1   7
BRANCH   2  22
ATOM     22  C   UNL     1      35.676 -20.232 -20.994  0.00  0.00    +0.048 C 
BRANCH  22  23
ATOM     23  C   UNL     1      36.495 -18.935 -20.966  0.00  0.00    +0.094 C 
BRANCH  23  25
ATOM     24  O   UNL     1      35.252 -16.401 -20.442  0.00  0.00    -0.270 OA
ATOM     25  N   UNL     1      36.043 -17.982 -21.943  0.00  0.00    -0.300 N 
ATOM     26  C   UNL     1      35.449 -16.775 -21.595  0.00  0.00    +0.249 C 
ATOM     27  H   UNL     1      36.158 -18.194 -22.898  0.00  0.00    +0.150 HD
BRANCH  26  29
ATOM     28 CL   UNL     1      34.006 -12.093 -23.210  0.00  0.00    -0.082 Cl
ATOM     29  C   UNL     1      35.012 -15.912 -22.723  0.00  0.00    +0.088 C 
ATOM     30  C   UNL     1      34.879 -16.450 -23.987  0.00  0.00    +0.143 C 
ATOM     31  C   UNL     1      34.751 -14.582 -22.460  0.00  0.00    +0.019 C 
ATOM     32  C   UNL     1      34.467 -15.625 -25.033  0.00  0.00    +0.038 C 
ATOM     33  C   UNL     1      34.340 -13.756 -23.506  0.00  0.00    +0.058 C 
ATOM     34  C   UNL     1      34.197 -14.277 -24.792  0.00  0.00    +0.015 C 
BRANCH  30  35
ATOM     35  O   UNL     1      35.138 -17.764 -24.243  0.00  0.00    -0.471 OA
ATOM     36  C   UNL     1      34.018 -18.603 -24.518  0.00  0.00    +0.252 C 
ENDBRANCH  30  35
ENDBRANCH  26  29
ENDBRANCH  23  25
ENDBRANCH  22  23
ENDBRANCH   2  22
TORSDOF 8
ENDMDL
