MODEL 1
REMARK VINA RESULT:     -11.5      0.000      0.000
REMARK  Name = 6323454
REMARK  1 active torsions:
REMARK  status: ('A' for Active; 'I' for Inactive)
REMARK    1  A    between atoms: C_18  and  O_22
REMARK                            x       y       z     vdW  Elec       q    Type
REMARK                         _______ _______ _______ _____ _____    ______ ____
ROOT
ATOM      1  O   UNL     1      34.491 -24.461 -13.135  0.00  0.00    -0.350 OA
ATOM      2  O   UNL     1      37.556 -22.729 -13.353  0.00  0.00    -0.445 OA
ATOM      3  O   UNL     1      37.922 -22.273 -16.082  0.00  0.00    -0.287 OA
ATOM      4  O   UNL     1      38.465 -22.639 -11.235  0.00  0.00    -0.250 OA
ATOM      5  O   UNL     1      32.774 -23.390 -16.897  0.00  0.00    -0.287 OA
ATOM      6  C   UNL     1      35.482 -23.508 -12.812  0.00  0.00    +0.171 C 
ATOM      7  C   UNL     1      36.518 -23.528 -13.907  0.00  0.00    +0.221 C 
ATOM      8  C   UNL     1      35.881 -23.072 -15.184  0.00  0.00    +0.060 C 
ATOM      9  C   UNL     1      33.727 -24.041 -14.298  0.00  0.00    +0.141 C 
ATOM     10  C   UNL     1      34.573 -23.339 -15.369  0.00  0.00    +0.046 C 
ATOM     11  C   UNL     1      36.356 -23.798 -11.617  0.00  0.00    +0.143 C 
ATOM     12  C   UNL     1      37.581 -22.997 -11.998  0.00  0.00    +0.320 C 
ATOM     13  C   UNL     1      36.716 -22.426 -16.225  0.00  0.00    +0.195 C 
ATOM     14  C   UNL     1      33.917 -23.013 -16.667  0.00  0.00    +0.197 C 
ATOM     15  C   UNL     1      32.562 -23.180 -13.798  0.00  0.00    +0.037 C 
ATOM     16  C   UNL     1      36.040 -21.970 -17.454  0.00  0.00    +0.045 C 
ATOM     17  C   UNL     1      34.692 -22.254 -17.665  0.00  0.00    +0.075 C 
ATOM     18  C   UNL     1      34.067 -21.824 -18.842  0.00  0.00    +0.137 C 
ATOM     19  C   UNL     1      36.766 -21.259 -18.417  0.00  0.00    +0.003 C 
ATOM     20  C   UNL     1      34.791 -21.113 -19.800  0.00  0.00    +0.037 C 
ATOM     21  C   UNL     1      36.139 -20.831 -19.587  0.00  0.00    +0.003 C 
ENDROOT
BRANCH  18  22
ATOM     22  O   UNL     1      32.751 -22.061 -19.109  0.00  0.00    -0.505 OA
ATOM     23  H   UNL     1      32.475 -22.232 -19.988  0.00  0.00    +0.292 HD
ENDBRANCH  18  22
TORSDOF 1
ENDMDL
MODEL 2
REMARK VINA RESULT:     -11.0      1.013      1.162
REMARK  Name = 6323454
REMARK  1 active torsions:
REMARK  status: ('A' for Active; 'I' for Inactive)
REMARK    1  A    between atoms: C_18  and  O_22
REMARK                            x       y       z     vdW  Elec       q    Type
REMARK                         _______ _______ _______ _____ _____    ______ ____
ROOT
ATOM      1  O   UNL     1      34.095 -24.263 -14.342  0.00  0.00    -0.350 OA
ATOM      2  O   UNL     1      37.287 -22.762 -14.374  0.00  0.00    -0.445 OA
ATOM      3  O   UNL     1      37.708 -22.045 -17.038  0.00  0.00    -0.287 OA
ATOM      4  O   UNL     1      38.184 -22.973 -12.260  0.00  0.00    -0.250 OA
ATOM      5  O   UNL     1      32.495 -22.662 -17.964  0.00  0.00    -0.287 OA
ATOM      6  C   UNL     1      35.155 -23.432 -13.918  0.00  0.00    +0.171 C 
ATOM      7  C   UNL     1      36.194 -23.413 -15.010  0.00  0.00    +0.221 C 
ATOM      8  C   UNL     1      35.604 -22.774 -16.230  0.00  0.00    +0.060 C 
ATOM      9  C   UNL     1      33.375 -23.663 -15.452  0.00  0.00    +0.141 C 
ATOM     10  C   UNL     1      34.281 -22.917 -16.442  0.00  0.00    +0.046 C 
ATOM     11  C   UNL     1      35.995 -23.916 -12.763  0.00  0.00    +0.143 C 
ATOM     12  C   UNL     1      37.280 -23.176 -13.056  0.00  0.00    +0.320 C 
ATOM     13  C   UNL     1      36.494 -22.087 -17.196  0.00  0.00    +0.195 C 
ATOM     14  C   UNL     1      33.662 -22.403 -17.696  0.00  0.00    +0.197 C 
ATOM     15  C   UNL     1      32.277 -22.773 -14.861  0.00  0.00    +0.037 C 
ATOM     16  C   UNL     1      35.866 -21.450 -18.367  0.00  0.00    +0.045 C 
ATOM     17  C   UNL     1      34.501 -21.604 -18.607  0.00  0.00    +0.075 C 
ATOM     18  C   UNL     1      33.920 -21.002 -19.730  0.00  0.00    +0.137 C 
ATOM     19  C   UNL     1      36.652 -20.698 -19.248  0.00  0.00    +0.003 C 
ATOM     20  C   UNL     1      34.704 -20.250 -20.606  0.00  0.00    +0.037 C 
ATOM     21  C   UNL     1      36.068 -20.099 -20.365  0.00  0.00    +0.003 C 
ENDROOT
BRANCH  18  22
ATOM     22  O   UNL     1      32.591 -21.105 -20.020  0.00  0.00    -0.505 OA
ATOM     23  H   UNL     1      32.243 -21.915 -20.338  0.00  0.00    +0.292 HD
ENDBRANCH  18  22
TORSDOF 1
ENDMDL
MODEL 3
REMARK VINA RESULT:     -10.6      2.143      4.491
REMARK  Name = 6323454
REMARK  1 active torsions:
REMARK  status: ('A' for Active; 'I' for Inactive)
REMARK    1  A    between atoms: C_18  and  O_22
REMARK                            x       y       z     vdW  Elec       q    Type
REMARK                         _______ _______ _______ _____ _____    ______ ____
ROOT
ATOM      1  O   UNL     1      33.679 -24.317 -13.556  0.00  0.00    -0.350 OA
ATOM      2  O   UNL     1      30.686 -23.999 -15.397  0.00  0.00    -0.445 OA
ATOM      3  O   UNL     1      31.230 -22.032 -17.301  0.00  0.00    -0.287 OA
ATOM      4  O   UNL     1      29.101 -25.342 -14.398  0.00  0.00    -0.250 OA
ATOM      5  O   UNL     1      36.440 -22.633 -16.346  0.00  0.00    -0.287 OA
ATOM      6  C   UNL     1      32.527 -24.727 -14.263  0.00  0.00    +0.171 C 
ATOM      7  C   UNL     1      31.943 -23.513 -14.940  0.00  0.00    +0.221 C 
ATOM      8  C   UNL     1      32.919 -23.010 -15.959  0.00  0.00    +0.060 C 
ATOM      9  C   UNL     1      34.738 -23.927 -14.472  0.00  0.00    +0.141 C 
ATOM     10  C   UNL     1      34.233 -23.188 -15.719  0.00  0.00    +0.046 C 
ATOM     11  C   UNL     1      31.338 -25.172 -13.449  0.00  0.00    +0.143 C 
ATOM     12  C   UNL     1      30.230 -24.880 -14.436  0.00  0.00    +0.320 C 
ATOM     13  C   UNL     1      32.421 -22.268 -17.142  0.00  0.00    +0.195 C 
ATOM     14  C   UNL     1      35.250 -22.606 -16.639  0.00  0.00    +0.197 C 
ATOM     15  C   UNL     1      35.543 -25.186 -14.809  0.00  0.00    +0.037 C 
ATOM     16  C   UNL     1      33.416 -21.815 -18.131  0.00  0.00    +0.045 C 
ATOM     17  C   UNL     1      34.779 -21.979 -17.887  0.00  0.00    +0.075 C 
ATOM     18  C   UNL     1      35.713 -21.534 -18.831  0.00  0.00    +0.137 C 
ATOM     19  C   UNL     1      32.984 -21.207 -19.315  0.00  0.00    +0.003 C 
ATOM     20  C   UNL     1      35.280 -20.930 -20.013  0.00  0.00    +0.037 C 
ATOM     21  C   UNL     1      33.918 -20.767 -20.254  0.00  0.00    +0.003 C 
ENDROOT
BRANCH  18  22
ATOM     22  O   UNL     1      37.059 -21.669 -18.659  0.00  0.00    -0.505 OA
ATOM     23  H   UNL     1      37.586 -20.915 -18.484  0.00  0.00    +0.292 HD
ENDBRANCH  18  22
TORSDOF 1
ENDMDL
MODEL 4
REMARK VINA RESULT:     -10.5      2.025      5.732
REMARK  Name = 6323454
REMARK  1 active torsions:
REMARK  status: ('A' for Active; 'I' for Inactive)
REMARK    1  A    between atoms: C_18  and  O_22
REMARK                            x       y       z     vdW  Elec       q    Type
REMARK                         _______ _______ _______ _____ _____    ______ ____
ROOT
ATOM      1  O   UNL     1      32.109 -22.812 -14.690  0.00  0.00    -0.350 OA
ATOM      2  O   UNL     1      34.328 -22.737 -17.431  0.00  0.00    -0.445 OA
ATOM      3  O   UNL     1      36.866 -22.990 -16.297  0.00  0.00    -0.287 OA
ATOM      4  O   UNL     1      33.088 -22.312 -19.328  0.00  0.00    -0.250 OA
ATOM      5  O   UNL     1      34.609 -24.677 -11.772  0.00  0.00    -0.287 OA
ATOM      6  C   UNL     1      32.617 -23.118 -15.971  0.00  0.00    +0.171 C 
ATOM      7  C   UNL     1      34.027 -22.591 -16.048  0.00  0.00    +0.221 C 
ATOM      8  C   UNL     1      34.875 -23.331 -15.060  0.00  0.00    +0.060 C 
ATOM      9  C   UNL     1      32.789 -23.584 -13.664  0.00  0.00    +0.141 C 
ATOM     10  C   UNL     1      34.289 -23.773 -13.929  0.00  0.00    +0.046 C 
ATOM     11  C   UNL     1      32.004 -22.401 -17.148  0.00  0.00    +0.143 C 
ATOM     12  C   UNL     1      33.160 -22.470 -18.119  0.00  0.00    +0.320 C 
ATOM     13  C   UNL     1      36.329 -23.478 -15.311  0.00  0.00    +0.195 C 
ATOM     14  C   UNL     1      35.107 -24.412 -12.860  0.00  0.00    +0.197 C 
ATOM     15  C   UNL     1      32.038 -24.910 -13.510  0.00  0.00    +0.037 C 
ATOM     16  C   UNL     1      37.118 -24.237 -14.323  0.00  0.00    +0.045 C 
ATOM     17  C   UNL     1      36.528 -24.686 -13.143  0.00  0.00    +0.075 C 
ATOM     18  C   UNL     1      37.293 -25.396 -12.209  0.00  0.00    +0.137 C 
ATOM     19  C   UNL     1      38.471 -24.493 -14.572  0.00  0.00    +0.003 C 
ATOM     20  C   UNL     1      38.641 -25.654 -12.460  0.00  0.00    +0.037 C 
ATOM     21  C   UNL     1      39.229 -25.203 -13.639  0.00  0.00    +0.003 C 
ENDROOT
BRANCH  18  22
ATOM     22  O   UNL     1      36.778 -25.870 -11.039  0.00  0.00    -0.505 OA
ATOM     23  H   UNL     1      36.290 -26.670 -11.032  0.00  0.00    +0.292 HD
ENDBRANCH  18  22
TORSDOF 1
ENDMDL
MODEL 5
REMARK VINA RESULT:     -10.3      1.910      6.167
REMARK  Name = 6323454
REMARK  1 active torsions:
REMARK  status: ('A' for Active; 'I' for Inactive)
REMARK    1  A    between atoms: C_18  and  O_22
REMARK                            x       y       z     vdW  Elec       q    Type
REMARK                         _______ _______ _______ _____ _____    ______ ____
ROOT
ATOM      1  O   UNL     1      37.199 -22.094 -17.962  0.00  0.00    -0.350 OA
ATOM      2  O   UNL     1      34.169 -21.007 -19.405  0.00  0.00    -0.445 OA
ATOM      3  O   UNL     1      32.191 -22.479 -18.096  0.00  0.00    -0.287 OA
ATOM      4  O   UNL     1      34.688 -19.560 -21.123  0.00  0.00    -0.250 OA
ATOM      5  O   UNL     1      35.723 -23.741 -14.307  0.00  0.00    -0.287 OA
ATOM      6  C   UNL     1      36.238 -21.188 -18.461  0.00  0.00    +0.171 C 
ATOM      7  C   UNL     1      34.957 -21.950 -18.687  0.00  0.00    +0.221 C 
ATOM      8  C   UNL     1      34.444 -22.438 -17.367  0.00  0.00    +0.060 C 
ATOM      9  C   UNL     1      36.852 -22.532 -16.620  0.00  0.00    +0.141 C 
ATOM     10  C   UNL     1      35.345 -22.733 -16.409  0.00  0.00    +0.046 C 
ATOM     11  C   UNL     1      36.463 -20.634 -19.846  0.00  0.00    +0.143 C 
ATOM     12  C   UNL     1      35.035 -20.313 -20.226  0.00  0.00    +0.320 C 
ATOM     13  C   UNL     1      32.990 -22.661 -17.186  0.00  0.00    +0.195 C 
ATOM     14  C   UNL     1      34.901 -23.332 -15.119  0.00  0.00    +0.197 C 
ATOM     15  C   UNL     1      37.465 -21.530 -15.636  0.00  0.00    +0.037 C 
ATOM     16  C   UNL     1      32.530 -23.117 -15.861  0.00  0.00    +0.045 C 
ATOM     17  C   UNL     1      33.452 -23.440 -14.867  0.00  0.00    +0.075 C 
ATOM     18  C   UNL     1      33.001 -23.883 -13.617  0.00  0.00    +0.137 C 
ATOM     19  C   UNL     1      31.158 -23.237 -15.611  0.00  0.00    +0.003 C 
ATOM     20  C   UNL     1      31.632 -23.998 -13.368  0.00  0.00    +0.037 C 
ATOM     21  C   UNL     1      30.713 -23.677 -14.364  0.00  0.00    +0.003 C 
ENDROOT
BRANCH  18  22
ATOM     22  O   UNL     1      33.847 -24.208 -12.598  0.00  0.00    -0.505 OA
ATOM     23  H   UNL     1      33.789 -25.051 -12.192  0.00  0.00    +0.292 HD
ENDBRANCH  18  22
TORSDOF 1
ENDMDL
MODEL 6
REMARK VINA RESULT:     -10.1      2.131      5.362
REMARK  Name = 6323454
REMARK  1 active torsions:
REMARK  status: ('A' for Active; 'I' for Inactive)
REMARK    1  A    between atoms: C_18  and  O_22
REMARK                            x       y       z     vdW  Elec       q    Type
REMARK                         _______ _______ _______ _____ _____    ______ ____
ROOT
ATOM      1  O   UNL     1      36.668 -23.617 -15.485  0.00  0.00    -0.350 OA
ATOM      2  O   UNL     1      35.137 -21.617 -17.955  0.00  0.00    -0.445 OA
ATOM      3  O   UNL     1      32.459 -22.402 -17.945  0.00  0.00    -0.287 OA
ATOM      4  O   UNL     1      36.793 -20.392 -18.992  0.00  0.00    -0.250 OA
ATOM      5  O   UNL     1      33.227 -24.748 -13.220  0.00  0.00    -0.287 OA
ATOM      6  C   UNL     1      36.355 -22.450 -16.215  0.00  0.00    +0.171 C 
ATOM      7  C   UNL     1      35.190 -22.766 -17.118  0.00  0.00    +0.221 C 
ATOM      8  C   UNL     1      33.994 -23.081 -16.274  0.00  0.00    +0.060 C 
ATOM      9  C   UNL     1      35.613 -23.935 -14.538  0.00  0.00    +0.141 C 
ATOM     10  C   UNL     1      34.201 -23.653 -15.071  0.00  0.00    +0.046 C 
ATOM     11  C   UNL     1      37.361 -21.983 -17.237  0.00  0.00    +0.143 C 
ATOM     12  C   UNL     1      36.444 -21.224 -18.169  0.00  0.00    +0.320 C 
ATOM     13  C   UNL     1      32.635 -22.835 -16.813  0.00  0.00    +0.195 C 
ATOM     14  C   UNL     1      33.045 -24.093 -14.240  0.00  0.00    +0.197 C 
ATOM     15  C   UNL     1      35.920 -23.187 -13.236  0.00  0.00    +0.037 C 
ATOM     16  C   UNL     1      31.489 -23.135 -15.936  0.00  0.00    +0.045 C 
ATOM     17  C   UNL     1      31.688 -23.741 -14.696  0.00  0.00    +0.075 C 
ATOM     18  C   UNL     1      30.589 -24.030 -13.878  0.00  0.00    +0.137 C 
ATOM     19  C   UNL     1      30.194 -22.819 -16.361  0.00  0.00    +0.003 C 
ATOM     20  C   UNL     1      29.298 -23.711 -14.302  0.00  0.00    +0.037 C 
ATOM     21  C   UNL     1      29.101 -23.107 -15.542  0.00  0.00    +0.003 C 
ENDROOT
BRANCH  18  22
ATOM     22  O   UNL     1      30.713 -24.615 -12.652  0.00  0.00    -0.505 OA
ATOM     23  H   UNL     1      31.558 -24.872 -12.340  0.00  0.00    +0.292 HD
ENDBRANCH  18  22
TORSDOF 1
ENDMDL
MODEL 7
REMARK VINA RESULT:      -9.8      2.334      5.369
REMARK  Name = 6323454
REMARK  1 active torsions:
REMARK  status: ('A' for Active; 'I' for Inactive)
REMARK    1  A    between atoms: C_18  and  O_22
REMARK                            x       y       z     vdW  Elec       q    Type
REMARK                         _______ _______ _______ _____ _____    ______ ____
ROOT
ATOM      1  O   UNL     1      30.945 -23.627 -13.736  0.00  0.00    -0.350 OA
ATOM      2  O   UNL     1      29.970 -23.270 -17.108  0.00  0.00    -0.445 OA
ATOM      3  O   UNL     1      32.052 -21.845 -18.302  0.00  0.00    -0.287 OA
ATOM      4  O   UNL     1      27.841 -24.129 -17.318  0.00  0.00    -0.250 OA
ATOM      5  O   UNL     1      35.150 -22.983 -14.115  0.00  0.00    -0.287 OA
ATOM      6  C   UNL     1      30.437 -24.004 -14.999  0.00  0.00    +0.171 C 
ATOM      7  C   UNL     1      30.730 -22.887 -15.968  0.00  0.00    +0.221 C 
ATOM      8  C   UNL     1      32.215 -22.755 -16.121  0.00  0.00    +0.060 C 
ATOM      9  C   UNL     1      32.397 -23.595 -13.749  0.00  0.00    +0.141 C 
ATOM     10  C   UNL     1      32.990 -23.068 -15.064  0.00  0.00    +0.046 C 
ATOM     11  C   UNL     1      28.939 -24.092 -15.144  0.00  0.00    +0.143 C 
ATOM     12  C   UNL     1      28.813 -23.855 -16.632  0.00  0.00    +0.320 C 
ATOM     13  C   UNL     1      32.773 -22.213 -17.383  0.00  0.00    +0.195 C 
ATOM     14  C   UNL     1      34.462 -22.845 -15.120  0.00  0.00    +0.197 C 
ATOM     15  C   UNL     1      32.893 -25.000 -13.392  0.00  0.00    +0.037 C 
ATOM     16  C   UNL     1      34.240 -22.127 -17.497  0.00  0.00    +0.045 C 
ATOM     17  C   UNL     1      35.053 -22.432 -16.406  0.00  0.00    +0.075 C 
ATOM     18  C   UNL     1      36.445 -22.335 -16.526  0.00  0.00    +0.137 C 
ATOM     19  C   UNL     1      34.815 -21.723 -18.708  0.00  0.00    +0.003 C 
ATOM     20  C   UNL     1      37.016 -21.936 -17.735  0.00  0.00    +0.037 C 
ATOM     21  C   UNL     1      36.203 -21.630 -18.824  0.00  0.00    +0.003 C 
ENDROOT
BRANCH  18  22
ATOM     22  O   UNL     1      37.297 -22.625 -15.503  0.00  0.00    -0.505 OA
ATOM     23  H   UNL     1      38.033 -22.070 -15.335  0.00  0.00    +0.292 HD
ENDBRANCH  18  22
TORSDOF 1
ENDMDL
MODEL 8
REMARK VINA RESULT:      -9.7      1.263      6.532
REMARK  Name = 6323454
REMARK  1 active torsions:
REMARK  status: ('A' for Active; 'I' for Inactive)
REMARK    1  A    between atoms: C_18  and  O_22
REMARK                            x       y       z     vdW  Elec       q    Type
REMARK                         _______ _______ _______ _____ _____    ______ ____
ROOT
ATOM      1  O   UNL     1      36.664 -21.333 -19.154  0.00  0.00    -0.350 OA
ATOM      2  O   UNL     1      33.142 -21.445 -18.984  0.00  0.00    -0.445 OA
ATOM      3  O   UNL     1      32.588 -23.228 -16.910  0.00  0.00    -0.287 OA
ATOM      4  O   UNL     1      32.315 -20.187 -20.730  0.00  0.00    -0.250 OA
ATOM      5  O   UNL     1      37.634 -22.774 -15.251  0.00  0.00    -0.287 OA
ATOM      6  C   UNL     1      35.339 -20.847 -19.131  0.00  0.00    +0.171 C 
ATOM      7  C   UNL     1      34.434 -21.985 -18.732  0.00  0.00    +0.221 C 
ATOM      8  C   UNL     1      34.766 -22.399 -17.331  0.00  0.00    +0.060 C 
ATOM      9  C   UNL     1      37.125 -21.646 -17.812  0.00  0.00    +0.141 C 
ATOM     10  C   UNL     1      36.040 -22.258 -16.915  0.00  0.00    +0.046 C 
ATOM     11  C   UNL     1      34.719 -20.468 -20.453  0.00  0.00    +0.143 C 
ATOM     12  C   UNL     1      33.258 -20.654 -20.111  0.00  0.00    +0.320 C 
ATOM     13  C   UNL     1      33.718 -23.020 -16.487  0.00  0.00    +0.195 C 
ATOM     14  C   UNL     1      36.452 -22.760 -15.574  0.00  0.00    +0.197 C 
ATOM     15  C   UNL     1      37.735 -20.369 -17.225  0.00  0.00    +0.037 C 
ATOM     16  C   UNL     1      34.084 -23.387 -15.106  0.00  0.00    +0.045 C 
ATOM     17  C   UNL     1      35.401 -23.261 -14.668  0.00  0.00    +0.075 C 
ATOM     18  C   UNL     1      35.736 -23.624 -13.357  0.00  0.00    +0.137 C 
ATOM     19  C   UNL     1      33.100 -23.876 -14.239  0.00  0.00    +0.003 C 
ATOM     20  C   UNL     1      34.753 -24.108 -12.493  0.00  0.00    +0.037 C 
ATOM     21  C   UNL     1      33.438 -24.234 -12.933  0.00  0.00    +0.003 C 
ENDROOT
BRANCH  18  22
ATOM     22  O   UNL     1      37.002 -23.519 -12.862  0.00  0.00    -0.505 OA
ATOM     23  H   UNL     1      37.344 -22.680 -12.624  0.00  0.00    +0.292 HD
ENDBRANCH  18  22
TORSDOF 1
ENDMDL
MODEL 9
REMARK VINA RESULT:      -9.3      2.201      4.837
REMARK  Name = 6323454
REMARK  1 active torsions:
REMARK  status: ('A' for Active; 'I' for Inactive)
REMARK    1  A    between atoms: C_18  and  O_22
REMARK                            x       y       z     vdW  Elec       q    Type
REMARK                         _______ _______ _______ _____ _____    ______ ____
ROOT
ATOM      1  O   UNL     1      35.886 -22.266 -16.397  0.00  0.00    -0.350 OA
ATOM      2  O   UNL     1      35.750 -24.677 -13.826  0.00  0.00    -0.445 OA
ATOM      3  O   UNL     1      33.097 -24.643 -12.960  0.00  0.00    -0.287 OA
ATOM      4  O   UNL     1      37.895 -25.441 -13.465  0.00  0.00    -0.250 OA
ATOM      5  O   UNL     1      31.742 -22.037 -17.409  0.00  0.00    -0.287 OA
ATOM      6  C   UNL     1      36.116 -23.495 -15.742  0.00  0.00    +0.171 C 
ATOM      7  C   UNL     1      35.253 -23.531 -14.507  0.00  0.00    +0.221 C 
ATOM      8  C   UNL     1      33.813 -23.526 -14.922  0.00  0.00    +0.060 C 
ATOM      9  C   UNL     1      34.543 -22.216 -16.951  0.00  0.00    +0.141 C 
ATOM     10  C   UNL     1      33.486 -22.884 -16.061  0.00  0.00    +0.046 C 
ATOM     11  C   UNL     1      37.474 -23.704 -15.120  0.00  0.00    +0.143 C 
ATOM     12  C   UNL     1      37.112 -24.710 -14.051  0.00  0.00    +0.320 C 
ATOM     13  C   UNL     1      32.797 -24.145 -14.038  0.00  0.00    +0.195 C 
ATOM     14  C   UNL     1      32.057 -22.747 -16.461  0.00  0.00    +0.197 C 
ATOM     15  C   UNL     1      34.603 -22.814 -18.360  0.00  0.00    +0.037 C 
ATOM     16  C   UNL     1      31.397 -24.139 -14.501  0.00  0.00    +0.045 C 
ATOM     17  C   UNL     1      31.042 -23.465 -15.668  0.00  0.00    +0.075 C 
ATOM     18  C   UNL     1      29.706 -23.459 -16.089  0.00  0.00    +0.137 C 
ATOM     19  C   UNL     1      30.420 -24.805 -13.752  0.00  0.00    +0.003 C 
ATOM     20  C   UNL     1      28.735 -24.127 -15.343  0.00  0.00    +0.037 C 
ATOM     21  C   UNL     1      29.091 -24.798 -14.176  0.00  0.00    +0.003 C 
ENDROOT
BRANCH  18  22
ATOM     22  O   UNL     1      29.292 -22.827 -17.224  0.00  0.00    -0.505 OA
ATOM     23  H   UNL     1      29.183 -21.896 -17.228  0.00  0.00    +0.292 HD
ENDBRANCH  18  22
TORSDOF 1
ENDMDL
