MODEL 1
REMARK VINA RESULT:     -11.8      0.000      0.000
REMARK  Name = 5326869
REMARK  6 active torsions:
REMARK  status: ('A' for Active; 'I' for Inactive)
REMARK    1  A    between atoms: N_2  and  C_11
REMARK    2  A    between atoms: C_3  and  C_25
REMARK    3  A    between atoms: N_5  and  C_14
REMARK    4  A    between atoms: C_14  and  C_15
REMARK    5  A    between atoms: C_15  and  C_17
REMARK    6  A    between atoms: C_23  and  N_30
REMARK                            x       y       z     vdW  Elec       q    Type
REMARK                         _______ _______ _______ _____ _____    ______ ____
ROOT
ATOM      1  O   UNL     1      31.929 -13.635 -20.707  0.00  0.00    -0.270 OA
ATOM      2  N   UNL     1      33.432 -12.793 -22.307  0.00  0.00    -0.280 N 
ATOM      3  C   UNL     1      32.546 -12.710 -21.225  0.00  0.00    +0.250 C 
ATOM      4  H   UNL     1      33.841 -11.945 -22.595  0.00  0.00    +0.155 HD
ENDROOT
BRANCH   2  11
ATOM      5  N   UNL     1      35.533 -17.217 -22.771  0.00  0.00    -0.286 N 
ATOM      6  C   UNL     1      34.856 -16.075 -23.136  0.00  0.00    +0.053 C 
ATOM      7  C   UNL     1      34.543 -16.200 -24.491  0.00  0.00    +0.015 C 
ATOM      8  C   UNL     1      35.658 -18.056 -23.846  0.00  0.00    +0.065 C 
ATOM      9  C   UNL     1      34.503 -14.953 -22.378  0.00  0.00    +0.029 C 
ATOM     10  C   UNL     1      35.054 -17.455 -24.925  0.00  0.00    +0.017 C 
ATOM     11  C   UNL     1      33.806 -13.929 -23.026  0.00  0.00    +0.052 C 
ATOM     12  C   UNL     1      33.839 -15.154 -25.122  0.00  0.00    +0.003 C 
ATOM     13  C   UNL     1      33.479 -14.026 -24.377  0.00  0.00    +0.015 C 
BRANCH   5  14
ATOM     14  C   UNL     1      36.045 -17.505 -21.448  0.00  0.00    +0.100 C 
BRANCH  14  15
ATOM     15  C   UNL     1      36.547 -18.943 -21.287  0.00  0.00    +0.048 C 
BRANCH  15  17
ATOM     16  N   UNL     1      33.759 -21.505 -19.279  0.00  0.00    -0.242 NA
ATOM     17  C   UNL     1      35.565 -19.844 -20.580  0.00  0.00    -0.017 C 
ATOM     18  C   UNL     1      34.210 -19.672 -20.788  0.00  0.00    +0.016 C 
ATOM     19  C   UNL     1      36.035 -20.831 -19.733  0.00  0.00    +0.016 C 
ATOM     20  C   UNL     1      33.350 -20.525 -20.116  0.00  0.00    +0.099 C 
ATOM     21  C   UNL     1      35.094 -21.633 -19.109  0.00  0.00    +0.099 C 
ENDBRANCH  15  17
ENDBRANCH  14  15
ENDBRANCH   5  14
ENDBRANCH   2  11
BRANCH   3  25
ATOM     22  F   UNL     1      32.078  -9.687 -17.480  0.00  0.00    -0.204 F 
ATOM     23  C   UNL     1      31.956  -9.014 -21.053  0.00  0.00    +0.050 C 
ATOM     24  C   UNL     1      32.159 -10.297 -21.563  0.00  0.00    +0.019 C 
ATOM     25  C   UNL     1      32.328 -11.344 -20.683  0.00  0.00    +0.057 C 
ATOM     26  C   UNL     1      31.929  -8.809 -19.675  0.00  0.00    +0.044 C 
ATOM     27  C   UNL     1      32.306 -11.167 -19.314  0.00  0.00    +0.034 C 
ATOM     28  C   UNL     1      32.103  -9.885 -18.804  0.00  0.00    +0.142 C 
BRANCH  23  30
ATOM     29  O   UNL     1      31.706  -5.758 -23.702  0.00  0.00    -0.350 OA
ATOM     30  N   UNL     1      31.781  -7.935 -21.925  0.00  0.00    -0.303 N 
ATOM     31  C   UNL     1      31.880  -6.561 -21.419  0.00  0.00    +0.123 C 
ATOM     32  C   UNL     1      32.162  -8.112 -23.333  0.00  0.00    +0.123 C 
ATOM     33  C   UNL     1      31.184  -5.606 -22.382  0.00  0.00    +0.164 C 
ATOM     34  C   UNL     1      31.451  -7.074 -24.194  0.00  0.00    +0.164 C 
ENDBRANCH  23  30
ENDBRANCH   3  25
TORSDOF 6
ENDMDL
MODEL 2
REMARK VINA RESULT:     -11.6      4.400     11.175
REMARK  Name = 5326869
REMARK  6 active torsions:
REMARK  status: ('A' for Active; 'I' for Inactive)
REMARK    1  A    between atoms: N_2  and  C_11
REMARK    2  A    between atoms: C_3  and  C_25
REMARK    3  A    between atoms: N_5  and  C_14
REMARK    4  A    between atoms: C_14  and  C_15
REMARK    5  A    between atoms: C_15  and  C_17
REMARK    6  A    between atoms: C_23  and  N_30
REMARK                            x       y       z     vdW  Elec       q    Type
REMARK                         _______ _______ _______ _____ _____    ______ ____
ROOT
ATOM      1  O   UNL     1      32.734 -20.741 -20.378  0.00  0.00    -0.270 OA
ATOM      2  N   UNL     1      34.961 -19.986 -20.356  0.00  0.00    -0.280 N 
ATOM      3  C   UNL     1      33.858 -20.713 -19.889  0.00  0.00    +0.250 C 
ATOM      4  H   UNL     1      35.792 -20.081 -19.837  0.00  0.00    +0.155 HD
ENDROOT
BRANCH   2  11
ATOM      5  N   UNL     1      35.087 -15.577 -22.536  0.00  0.00    -0.286 N 
ATOM      6  C   UNL     1      35.081 -16.949 -22.419  0.00  0.00    +0.053 C 
ATOM      7  C   UNL     1      35.158 -17.472 -23.710  0.00  0.00    +0.015 C 
ATOM      8  C   UNL     1      35.165 -15.217 -23.855  0.00  0.00    +0.065 C 
ATOM      9  C   UNL     1      35.013 -17.757 -21.278  0.00  0.00    +0.029 C 
ATOM     10  C   UNL     1      35.211 -16.368 -24.606  0.00  0.00    +0.017 C 
ATOM     11  C   UNL     1      35.025 -19.143 -21.467  0.00  0.00    +0.052 C 
ATOM     12  C   UNL     1      35.169 -18.872 -23.875  0.00  0.00    +0.003 C 
ATOM     13  C   UNL     1      35.102 -19.693 -22.744  0.00  0.00    +0.015 C 
BRANCH   5  14
ATOM     14  C   UNL     1      35.022 -14.638 -21.437  0.00  0.00    +0.100 C 
BRANCH  14  15
ATOM     15  C   UNL     1      33.606 -14.433 -20.891  0.00  0.00    +0.048 C 
BRANCH  15  17
ATOM     16  N   UNL     1      31.963 -10.587 -21.825  0.00  0.00    -0.242 NA
ATOM     17  C   UNL     1      33.027 -13.080 -21.220  0.00  0.00    -0.017 C 
ATOM     18  C   UNL     1      32.224 -12.439 -20.295  0.00  0.00    +0.016 C 
ATOM     19  C   UNL     1      33.309 -12.498 -22.442  0.00  0.00    +0.016 C 
ATOM     20  C   UNL     1      31.718 -11.198 -20.645  0.00  0.00    +0.099 C 
ATOM     21  C   UNL     1      32.754 -11.254 -22.696  0.00  0.00    +0.099 C 
ENDBRANCH  15  17
ENDBRANCH  14  15
ENDBRANCH   5  14
ENDBRANCH   2  11
BRANCH   3  25
ATOM     22  F   UNL     1      36.868 -22.653 -16.639  0.00  0.00    -0.204 F 
ATOM     23  C   UNL     1      33.236 -22.760 -16.813  0.00  0.00    +0.050 C 
ATOM     24  C   UNL     1      33.012 -22.017 -17.972  0.00  0.00    +0.019 C 
ATOM     25  C   UNL     1      34.096 -21.507 -18.655  0.00  0.00    +0.057 C 
ATOM     26  C   UNL     1      34.537 -22.975 -16.363  0.00  0.00    +0.044 C 
ATOM     27  C   UNL     1      35.393 -21.705 -18.231  0.00  0.00    +0.034 C 
ATOM     28  C   UNL     1      35.617 -22.448 -17.072  0.00  0.00    +0.142 C 
BRANCH  23  30
ATOM     29  O   UNL     1      29.960 -24.107 -14.546  0.00  0.00    -0.350 OA
ATOM     30  N   UNL     1      32.154 -23.289 -16.102  0.00  0.00    -0.303 N 
ATOM     31  C   UNL     1      32.364 -23.862 -14.767  0.00  0.00    +0.123 C 
ATOM     32  C   UNL     1      30.823 -22.709 -16.331  0.00  0.00    +0.123 C 
ATOM     33  C   UNL     1      31.206 -24.791 -14.418  0.00  0.00    +0.164 C 
ATOM     34  C   UNL     1      29.748 -23.699 -15.898  0.00  0.00    +0.164 C 
ENDBRANCH  23  30
ENDBRANCH   3  25
TORSDOF 6
ENDMDL
MODEL 3
REMARK VINA RESULT:     -11.4      4.679      8.954
REMARK  Name = 5326869
REMARK  6 active torsions:
REMARK  status: ('A' for Active; 'I' for Inactive)
REMARK    1  A    between atoms: N_2  and  C_11
REMARK    2  A    between atoms: C_3  and  C_25
REMARK    3  A    between atoms: N_5  and  C_14
REMARK    4  A    between atoms: C_14  and  C_15
REMARK    5  A    between atoms: C_15  and  C_17
REMARK    6  A    between atoms: C_23  and  N_30
REMARK                            x       y       z     vdW  Elec       q    Type
REMARK                         _______ _______ _______ _____ _____    ______ ____
ROOT
ATOM      1  O   UNL     1      37.321 -18.813 -20.185  0.00  0.00    -0.270 OA
ATOM      2  N   UNL     1      35.639 -20.450 -20.041  0.00  0.00    -0.280 N 
ATOM      3  C   UNL     1      36.333 -19.385 -20.632  0.00  0.00    +0.250 C 
ATOM      4  H   UNL     1      34.862 -20.789 -20.543  0.00  0.00    +0.155 HD
ENDROOT
BRANCH   2  11
ATOM      5  N   UNL     1      34.428 -23.169 -16.125  0.00  0.00    -0.286 N 
ATOM      6  C   UNL     1      35.214 -22.419 -16.970  0.00  0.00    +0.053 C 
ATOM      7  C   UNL     1      36.488 -22.361 -16.404  0.00  0.00    +0.015 C 
ATOM      8  C   UNL     1      35.161 -23.586 -15.046  0.00  0.00    +0.065 C 
ATOM      9  C   UNL     1      34.895 -21.793 -18.181  0.00  0.00    +0.029 C 
ATOM     10  C   UNL     1      36.441 -23.102 -15.190  0.00  0.00    +0.017 C 
ATOM     11  C   UNL     1      35.913 -21.087 -18.831  0.00  0.00    +0.052 C 
ATOM     12  C   UNL     1      37.498 -21.644 -17.077  0.00  0.00    +0.003 C 
ATOM     13  C   UNL     1      37.194 -21.013 -18.289  0.00  0.00    +0.015 C 
BRANCH   5  14
ATOM     14  C   UNL     1      33.031 -23.482 -16.331  0.00  0.00    +0.100 C 
BRANCH  14  15
ATOM     15  C   UNL     1      32.101 -22.838 -15.298  0.00  0.00    +0.048 C 
BRANCH  15  17
ATOM     16  N   UNL     1      27.977 -23.867 -15.847  0.00  0.00    -0.242 NA
ATOM     17  C   UNL     1      30.649 -23.200 -15.491  0.00  0.00    -0.017 C 
ATOM     18  C   UNL     1      29.854 -22.413 -16.302  0.00  0.00    +0.016 C 
ATOM     19  C   UNL     1      30.135 -24.314 -14.854  0.00  0.00    +0.016 C 
ATOM     20  C   UNL     1      28.528 -22.788 -16.447  0.00  0.00    +0.099 C 
ATOM     21  C   UNL     1      28.797 -24.604 -15.065  0.00  0.00    +0.099 C 
ENDBRANCH  15  17
ENDBRANCH  14  15
ENDBRANCH   5  14
ENDBRANCH   2  11
BRANCH   3  25
ATOM     22  F   UNL     1      34.880 -20.211 -25.170  0.00  0.00    -0.204 F 
ATOM     23  C   UNL     1      34.942 -17.112 -23.265  0.00  0.00    +0.050 C 
ATOM     24  C   UNL     1      35.465 -17.565 -22.054  0.00  0.00    +0.019 C 
ATOM     25  C   UNL     1      35.779 -18.901 -21.923  0.00  0.00    +0.057 C 
ATOM     26  C   UNL     1      34.746 -18.005 -24.317  0.00  0.00    +0.044 C 
ATOM     27  C   UNL     1      35.593 -19.806 -22.948  0.00  0.00    +0.034 C 
ATOM     28  C   UNL     1      35.071 -19.352 -24.160  0.00  0.00    +0.142 C 
BRANCH  23  30
ATOM     29  O   UNL     1      34.216 -13.010 -23.844  0.00  0.00    -0.350 OA
ATOM     30  N   UNL     1      34.616 -15.761 -23.424  0.00  0.00    -0.303 N 
ATOM     31  C   UNL     1      34.986 -14.791 -22.387  0.00  0.00    +0.123 C 
ATOM     32  C   UNL     1      34.544 -15.220 -24.789  0.00  0.00    +0.123 C 
ATOM     33  C   UNL     1      34.126 -13.540 -22.521  0.00  0.00    +0.164 C 
ATOM     34  C   UNL     1      33.708 -13.946 -24.795  0.00  0.00    +0.164 C 
ENDBRANCH  23  30
ENDBRANCH   3  25
TORSDOF 6
ENDMDL
MODEL 4
REMARK VINA RESULT:     -11.2      1.371      1.471
REMARK  Name = 5326869
REMARK  6 active torsions:
REMARK  status: ('A' for Active; 'I' for Inactive)
REMARK    1  A    between atoms: N_2  and  C_11
REMARK    2  A    between atoms: C_3  and  C_25
REMARK    3  A    between atoms: N_5  and  C_14
REMARK    4  A    between atoms: C_14  and  C_15
REMARK    5  A    between atoms: C_15  and  C_17
REMARK    6  A    between atoms: C_23  and  N_30
REMARK                            x       y       z     vdW  Elec       q    Type
REMARK                         _______ _______ _______ _____ _____    ______ ____
ROOT
ATOM      1  O   UNL     1      31.720 -12.772 -21.566  0.00  0.00    -0.270 OA
ATOM      2  N   UNL     1      33.581 -12.345 -22.938  0.00  0.00    -0.280 N 
ATOM      3  C   UNL     1      32.569 -12.017 -22.026  0.00  0.00    +0.250 C 
ATOM      4  H   UNL     1      34.179 -11.609 -23.202  0.00  0.00    +0.155 HD
ENDROOT
BRANCH   2  11
ATOM      5  N   UNL     1      35.292 -16.957 -22.883  0.00  0.00    -0.286 N 
ATOM      6  C   UNL     1      34.707 -15.813 -23.378  0.00  0.00    +0.053 C 
ATOM      7  C   UNL     1      34.359 -16.071 -24.705  0.00  0.00    +0.015 C 
ATOM      8  C   UNL     1      35.325 -17.926 -23.851  0.00  0.00    +0.065 C 
ATOM      9  C   UNL     1      34.464 -14.583 -22.757  0.00  0.00    +0.029 C 
ATOM     10  C   UNL     1      34.754 -17.408 -24.990  0.00  0.00    +0.017 C 
ATOM     11  C   UNL     1      33.844 -13.587 -23.519  0.00  0.00    +0.052 C 
ATOM     12  C   UNL     1      33.735 -15.051 -25.452  0.00  0.00    +0.003 C 
ATOM     13  C   UNL     1      33.485 -13.815 -24.845  0.00  0.00    +0.015 C 
BRANCH   5  14
ATOM     14  C   UNL     1      35.801 -17.129 -21.540  0.00  0.00    +0.100 C 
BRANCH  14  15
ATOM     15  C   UNL     1      36.579 -18.434 -21.343  0.00  0.00    +0.048 C 
BRANCH  15  17
ATOM     16  N   UNL     1      34.317 -21.484 -19.358  0.00  0.00    -0.242 NA
ATOM     17  C   UNL     1      35.783 -19.506 -20.644  0.00  0.00    -0.017 C 
ATOM     18  C   UNL     1      34.409 -19.536 -20.786  0.00  0.00    +0.016 C 
ATOM     19  C   UNL     1      36.439 -20.447 -19.871  0.00  0.00    +0.016 C 
ATOM     20  C   UNL     1      33.723 -20.542 -20.124  0.00  0.00    +0.099 C 
ATOM     21  C   UNL     1      35.662 -21.412 -19.251  0.00  0.00    +0.099 C 
ENDBRANCH  15  17
ENDBRANCH  14  15
ENDBRANCH   5  14
ENDBRANCH   2  11
BRANCH   3  25
ATOM     22  F   UNL     1      31.447  -8.608 -18.785  0.00  0.00    -0.204 F 
ATOM     23  C   UNL     1      32.986  -8.294 -22.066  0.00  0.00    +0.050 C 
ATOM     24  C   UNL     1      33.024  -9.631 -22.462  0.00  0.00    +0.019 C 
ATOM     25  C   UNL     1      32.527 -10.592 -21.607  0.00  0.00    +0.057 C 
ATOM     26  C   UNL     1      32.453  -7.948 -20.825  0.00  0.00    +0.044 C 
ATOM     27  C   UNL     1      31.995 -10.277 -20.373  0.00  0.00    +0.034 C 
ATOM     28  C   UNL     1      31.957  -8.939 -19.978  0.00  0.00    +0.142 C 
BRANCH  23  30
ATOM     29  O   UNL     1      34.597  -5.187 -24.398  0.00  0.00    -0.350 OA
ATOM     30  N   UNL     1      33.483  -7.300 -22.916  0.00  0.00    -0.303 N 
ATOM     31  C   UNL     1      32.751  -6.038 -23.073  0.00  0.00    +0.123 C 
ATOM     32  C   UNL     1      34.938  -7.205 -23.096  0.00  0.00    +0.123 C 
ATOM     33  C   UNL     1      33.180  -5.351 -24.366  0.00  0.00    +0.164 C 
ATOM     34  C   UNL     1      35.250  -6.457 -24.387  0.00  0.00    +0.164 C 
ENDBRANCH  23  30
ENDBRANCH   3  25
TORSDOF 6
ENDMDL
MODEL 5
REMARK VINA RESULT:     -10.8      2.259      2.993
REMARK  Name = 5326869
REMARK  6 active torsions:
REMARK  status: ('A' for Active; 'I' for Inactive)
REMARK    1  A    between atoms: N_2  and  C_11
REMARK    2  A    between atoms: C_3  and  C_25
REMARK    3  A    between atoms: N_5  and  C_14
REMARK    4  A    between atoms: C_14  and  C_15
REMARK    5  A    between atoms: C_15  and  C_17
REMARK    6  A    between atoms: C_23  and  N_30
REMARK                            x       y       z     vdW  Elec       q    Type
REMARK                         _______ _______ _______ _____ _____    ______ ____
ROOT
ATOM      1  O   UNL     1      32.692 -12.720 -22.620  0.00  0.00    -0.270 OA
ATOM      2  N   UNL     1      34.324 -13.269 -24.221  0.00  0.00    -0.280 N 
ATOM      3  C   UNL     1      33.583 -12.407 -23.402  0.00  0.00    +0.250 C 
ATOM      4  H   UNL     1      35.005 -12.843 -24.791  0.00  0.00    +0.155 HD
ENDROOT
BRANCH   2  11
ATOM      5  N   UNL     1      35.220 -17.882 -22.766  0.00  0.00    -0.286 N 
ATOM      6  C   UNL     1      34.714 -16.855 -23.531  0.00  0.00    +0.053 C 
ATOM      7  C   UNL     1      33.980 -17.437 -24.566  0.00  0.00    +0.015 C 
ATOM      8  C   UNL     1      34.831 -19.090 -23.282  0.00  0.00    +0.065 C 
ATOM      9  C   UNL     1      34.851 -15.469 -23.386  0.00  0.00    +0.029 C 
ATOM     10  C   UNL     1      34.062 -18.847 -24.396  0.00  0.00    +0.017 C 
ATOM     11  C   UNL     1      34.215 -14.656 -24.329  0.00  0.00    +0.052 C 
ATOM     12  C   UNL     1      33.348 -16.596 -25.504  0.00  0.00    +0.003 C 
ATOM     13  C   UNL     1      33.475 -15.208 -25.372  0.00  0.00    +0.015 C 
BRANCH   5  14
ATOM     14  C   UNL     1      36.043 -17.726 -21.587  0.00  0.00    +0.100 C 
BRANCH  14  15
ATOM     15  C   UNL     1      36.759 -19.014 -21.166  0.00  0.00    +0.048 C 
BRANCH  15  17
ATOM     16  N   UNL     1      34.267 -21.692 -18.933  0.00  0.00    -0.242 NA
ATOM     17  C   UNL     1      35.882 -19.957 -20.381  0.00  0.00    -0.017 C 
ATOM     18  C   UNL     1      36.464 -20.896 -19.551  0.00  0.00    +0.016 C 
ATOM     19  C   UNL     1      34.507 -19.868 -20.501  0.00  0.00    +0.016 C 
ATOM     20  C   UNL     1      35.615 -21.739 -18.851  0.00  0.00    +0.099 C 
ATOM     21  C   UNL     1      33.746 -20.756 -19.759  0.00  0.00    +0.099 C 
ENDBRANCH  15  17
ENDBRANCH  14  15
ENDBRANCH   5  14
ENDBRANCH   2  11
BRANCH   3  25
ATOM     22  F   UNL     1      36.191  -8.840 -25.367  0.00  0.00    -0.204 F 
ATOM     23  C   UNL     1      33.519  -8.694 -22.901  0.00  0.00    +0.050 C 
ATOM     24  C   UNL     1      33.209 -10.049 -22.778  0.00  0.00    +0.019 C 
ATOM     25  C   UNL     1      33.914 -10.964 -23.531  0.00  0.00    +0.057 C 
ATOM     26  C   UNL     1      34.526  -8.286 -23.775  0.00  0.00    +0.044 C 
ATOM     27  C   UNL     1      34.914 -10.586 -24.403  0.00  0.00    +0.034 C 
ATOM     28  C   UNL     1      35.224  -9.232 -24.526  0.00  0.00    +0.142 C 
BRANCH  23  30
ATOM     29  O   UNL     1      31.267  -6.050 -20.531  0.00  0.00    -0.350 OA
ATOM     30  N   UNL     1      32.820  -7.746 -22.149  0.00  0.00    -0.303 N 
ATOM     31  C   UNL     1      31.541  -7.218 -22.640  0.00  0.00    +0.123 C 
ATOM     32  C   UNL     1      32.962  -7.778 -20.687  0.00  0.00    +0.123 C 
ATOM     33  C   UNL     1      31.230  -5.895 -21.950  0.00  0.00    +0.164 C 
ATOM     34  C   UNL     1      32.575  -6.425 -20.101  0.00  0.00    +0.164 C 
ENDBRANCH  23  30
ENDBRANCH   3  25
TORSDOF 6
ENDMDL
MODEL 6
REMARK VINA RESULT:     -10.7      3.509     11.407
REMARK  Name = 5326869
REMARK  6 active torsions:
REMARK  status: ('A' for Active; 'I' for Inactive)
REMARK    1  A    between atoms: N_2  and  C_11
REMARK    2  A    between atoms: C_3  and  C_25
REMARK    3  A    between atoms: N_5  and  C_14
REMARK    4  A    between atoms: C_14  and  C_15
REMARK    5  A    between atoms: C_15  and  C_17
REMARK    6  A    between atoms: C_23  and  N_30
REMARK                            x       y       z     vdW  Elec       q    Type
REMARK                         _______ _______ _______ _____ _____    ______ ____
ROOT
ATOM      1  O   UNL     1      34.893  -9.632 -23.937  0.00  0.00    -0.270 OA
ATOM      2  N   UNL     1      32.734  -9.993 -23.081  0.00  0.00    -0.280 N 
ATOM      3  C   UNL     1      33.904 -10.337 -23.771  0.00  0.00    +0.250 C 
ATOM      4  H   UNL     1      32.035 -10.686 -23.046  0.00  0.00    +0.155 HD
ENDROOT
BRANCH   2  11
ATOM      5  N   UNL     1      31.441  -5.247 -22.998  0.00  0.00    -0.286 N 
ATOM      6  C   UNL     1      31.802  -6.486 -22.517  0.00  0.00    +0.053 C 
ATOM      7  C   UNL     1      31.844  -6.389 -21.125  0.00  0.00    +0.015 C 
ATOM      8  C   UNL     1      31.252  -4.375 -21.960  0.00  0.00    +0.065 C 
ATOM      9  C   UNL     1      32.094  -7.671 -23.202  0.00  0.00    +0.029 C 
ATOM     10  C   UNL     1      31.494  -5.052 -20.787  0.00  0.00    +0.017 C 
ATOM     11  C   UNL     1      32.437  -8.791 -22.439  0.00  0.00    +0.052 C 
ATOM     12  C   UNL     1      32.192  -7.532 -20.377  0.00  0.00    +0.003 C 
ATOM     13  C   UNL     1      32.486  -8.724 -21.048  0.00  0.00    +0.015 C 
BRANCH   5  14
ATOM     14  C   UNL     1      31.277  -4.902 -24.394  0.00  0.00    +0.100 C 
BRANCH  14  15
ATOM     15  C   UNL     1      32.193  -3.763 -24.853  0.00  0.00    +0.048 C 
BRANCH  15  17
ATOM     16  N   UNL     1      35.741  -5.122 -26.835  0.00  0.00    -0.242 NA
ATOM     17  C   UNL     1      33.441  -4.242 -25.551  0.00  0.00    -0.017 C 
ATOM     18  C   UNL     1      33.680  -3.861 -26.857  0.00  0.00    +0.016 C 
ATOM     19  C   UNL     1      34.331  -5.055 -24.873  0.00  0.00    +0.016 C 
ATOM     20  C   UNL     1      34.840  -4.327 -27.454  0.00  0.00    +0.099 C 
ATOM     21  C   UNL     1      35.462  -5.467 -25.558  0.00  0.00    +0.099 C 
ENDBRANCH  15  17
ENDBRANCH  14  15
ENDBRANCH   5  14
ENDBRANCH   2  11
BRANCH   3  25
ATOM     22  F   UNL     1      33.216 -13.266 -27.557  0.00  0.00    -0.204 F 
ATOM     23  C   UNL     1      34.288 -14.043 -24.168  0.00  0.00    +0.050 C 
ATOM     24  C   UNL     1      34.280 -12.770 -23.598  0.00  0.00    +0.019 C 
ATOM     25  C   UNL     1      33.911 -11.693 -24.377  0.00  0.00    +0.057 C 
ATOM     26  C   UNL     1      33.928 -14.210 -25.504  0.00  0.00    +0.044 C 
ATOM     27  C   UNL     1      33.552 -11.832 -25.702  0.00  0.00    +0.034 C 
ATOM     28  C   UNL     1      33.560 -13.105 -26.272  0.00  0.00    +0.142 C 
BRANCH  23  30
ATOM     29  O   UNL     1      35.657 -17.277 -21.855  0.00  0.00    -0.350 OA
ATOM     30  N   UNL     1      34.657 -15.151 -23.399  0.00  0.00    -0.303 N 
ATOM     31  C   UNL     1      35.214 -16.342 -24.050  0.00  0.00    +0.123 C 
ATOM     32  C   UNL     1      35.116 -14.918 -22.022  0.00  0.00    +0.123 C 
ATOM     33  C   UNL     1      35.071 -17.548 -23.128  0.00  0.00    +0.164 C 
ATOM     34  C   UNL     1      34.978 -16.199 -21.209  0.00  0.00    +0.164 C 
ENDBRANCH  23  30
ENDBRANCH   3  25
TORSDOF 6
ENDMDL
MODEL 7
REMARK VINA RESULT:     -10.6      3.018      5.258
REMARK  Name = 5326869
REMARK  6 active torsions:
REMARK  status: ('A' for Active; 'I' for Inactive)
REMARK    1  A    between atoms: N_2  and  C_11
REMARK    2  A    between atoms: C_3  and  C_25
REMARK    3  A    between atoms: N_5  and  C_14
REMARK    4  A    between atoms: C_14  and  C_15
REMARK    5  A    between atoms: C_15  and  C_17
REMARK    6  A    between atoms: C_23  and  N_30
REMARK                            x       y       z     vdW  Elec       q    Type
REMARK                         _______ _______ _______ _____ _____    ______ ____
ROOT
ATOM      1  O   UNL     1      34.945 -14.989 -21.149  0.00  0.00    -0.270 OA
ATOM      2  N   UNL     1      35.405 -16.626 -22.772  0.00  0.00    -0.280 N 
ATOM      3  C   UNL     1      34.969 -15.377 -22.312  0.00  0.00    +0.250 C 
ATOM      4  H   UNL     1      35.354 -16.769 -23.745  0.00  0.00    +0.155 HD
ENDROOT
BRANCH   2  11
ATOM      5  N   UNL     1      34.927 -20.545 -19.837  0.00  0.00    -0.286 N 
ATOM      6  C   UNL     1      35.552 -19.583 -20.598  0.00  0.00    +0.053 C 
ATOM      7  C   UNL     1      36.924 -19.828 -20.524  0.00  0.00    +0.015 C 
ATOM      8  C   UNL     1      35.856 -21.388 -19.287  0.00  0.00    +0.065 C 
ATOM      9  C   UNL     1      35.011 -18.524 -21.337  0.00  0.00    +0.029 C 
ATOM     10  C   UNL     1      37.102 -20.970 -19.695  0.00  0.00    +0.017 C 
ATOM     11  C   UNL     1      35.902 -17.693 -22.022  0.00  0.00    +0.052 C 
ATOM     12  C   UNL     1      37.803 -18.976 -21.224  0.00  0.00    +0.003 C 
ATOM     13  C   UNL     1      37.277 -17.913 -21.967  0.00  0.00    +0.015 C 
BRANCH   5  14
ATOM     14  C   UNL     1      33.499 -20.665 -19.638  0.00  0.00    +0.100 C 
BRANCH  14  15
ATOM     15  C   UNL     1      33.042 -22.095 -19.335  0.00  0.00    +0.048 C 
BRANCH  15  17
ATOM     16  N   UNL     1      32.867 -22.977 -15.144  0.00  0.00    -0.242 NA
ATOM     17  C   UNL     1      32.980 -22.404 -17.860  0.00  0.00    -0.017 C 
ATOM     18  C   UNL     1      31.764 -22.364 -17.206  0.00  0.00    +0.016 C 
ATOM     19  C   UNL     1      34.142 -22.726 -17.182  0.00  0.00    +0.016 C 
ATOM     20  C   UNL     1      31.760 -22.657 -15.851  0.00  0.00    +0.099 C 
ATOM     21  C   UNL     1      34.032 -23.002 -15.830  0.00  0.00    +0.099 C 
ENDBRANCH  15  17
ENDBRANCH  14  15
ENDBRANCH   5  14
ENDBRANCH   2  11
BRANCH   3  25
ATOM     22  F   UNL     1      32.813 -14.609 -26.571  0.00  0.00    -0.204 F 
ATOM     23  C   UNL     1      34.127 -12.226 -24.156  0.00  0.00    +0.050 C 
ATOM     24  C   UNL     1      34.603 -13.093 -23.173  0.00  0.00    +0.019 C 
ATOM     25  C   UNL     1      34.464 -14.452 -23.360  0.00  0.00    +0.057 C 
ATOM     26  C   UNL     1      33.523 -12.738 -25.304  0.00  0.00    +0.044 C 
ATOM     27  C   UNL     1      33.870 -14.984 -24.486  0.00  0.00    +0.034 C 
ATOM     28  C   UNL     1      33.394 -14.117 -25.469  0.00  0.00    +0.142 C 
BRANCH  23  30
ATOM     29  O   UNL     1      34.325  -8.036 -23.858  0.00  0.00    -0.350 OA
ATOM     30  N   UNL     1      34.256 -10.843 -23.991  0.00  0.00    -0.303 N 
ATOM     31  C   UNL     1      35.156 -10.082 -24.865  0.00  0.00    +0.123 C 
ATOM     32  C   UNL     1      33.099 -10.095 -23.479  0.00  0.00    +0.123 C 
ATOM     33  C   UNL     1      35.509  -8.752 -24.207  0.00  0.00    +0.164 C 
ATOM     34  C   UNL     1      33.563  -8.765 -22.896  0.00  0.00    +0.164 C 
ENDBRANCH  23  30
ENDBRANCH   3  25
TORSDOF 6
ENDMDL
MODEL 8
REMARK VINA RESULT:     -10.6      4.505     11.578
REMARK  Name = 5326869
REMARK  6 active torsions:
REMARK  status: ('A' for Active; 'I' for Inactive)
REMARK    1  A    between atoms: N_2  and  C_11
REMARK    2  A    between atoms: C_3  and  C_25
REMARK    3  A    between atoms: N_5  and  C_14
REMARK    4  A    between atoms: C_14  and  C_15
REMARK    5  A    between atoms: C_15  and  C_17
REMARK    6  A    between atoms: C_23  and  N_30
REMARK                            x       y       z     vdW  Elec       q    Type
REMARK                         _______ _______ _______ _____ _____    ______ ____
ROOT
ATOM      1  O   UNL     1      36.481 -21.208 -20.218  0.00  0.00    -0.270 OA
ATOM      2  N   UNL     1      34.552 -19.868 -20.330  0.00  0.00    -0.280 N 
ATOM      3  C   UNL     1      35.380 -20.867 -19.800  0.00  0.00    +0.250 C 
ATOM      4  H   UNL     1      33.696 -19.727 -19.866  0.00  0.00    +0.155 HD
ENDROOT
BRANCH   2  11
ATOM      5  N   UNL     1      35.102 -15.512 -22.548  0.00  0.00    -0.286 N 
ATOM      6  C   UNL     1      35.041 -16.880 -22.409  0.00  0.00    +0.053 C 
ATOM      7  C   UNL     1      35.278 -17.432 -23.669  0.00  0.00    +0.015 C 
ATOM      8  C   UNL     1      35.370 -15.181 -23.850  0.00  0.00    +0.065 C 
ATOM      9  C   UNL     1      34.794 -17.662 -21.274  0.00  0.00    +0.029 C 
ATOM     10  C   UNL     1      35.485 -16.349 -24.568  0.00  0.00    +0.017 C 
ATOM     11  C   UNL     1      34.792 -19.051 -21.436  0.00  0.00    +0.052 C 
ATOM     12  C   UNL     1      35.271 -18.835 -23.806  0.00  0.00    +0.003 C 
ATOM     13  C   UNL     1      35.027 -19.630 -22.681  0.00  0.00    +0.015 C 
BRANCH   5  14
ATOM     14  C   UNL     1      34.915 -14.548 -21.484  0.00  0.00    +0.100 C 
BRANCH  14  15
ATOM     15  C   UNL     1      33.461 -14.095 -21.319  0.00  0.00    +0.048 C 
BRANCH  15  17
ATOM     16  N   UNL     1      32.706 -10.190 -22.915  0.00  0.00    -0.242 NA
ATOM     17  C   UNL     1      33.195 -12.721 -21.882  0.00  0.00    -0.017 C 
ATOM     18  C   UNL     1      32.237 -11.918 -21.292  0.00  0.00    +0.016 C 
ATOM     19  C   UNL     1      33.914 -12.282 -22.978  0.00  0.00    +0.016 C 
ATOM     20  C   UNL     1      32.030 -10.665 -21.845  0.00  0.00    +0.099 C 
ATOM     21  C   UNL     1      33.633 -11.013 -23.455  0.00  0.00    +0.099 C 
ENDBRANCH  15  17
ENDBRANCH  14  15
ENDBRANCH   5  14
ENDBRANCH   2  11
BRANCH   3  25
ATOM     22  F   UNL     1      31.630 -22.618 -17.301  0.00  0.00    -0.204 F 
ATOM     23  C   UNL     1      35.191 -22.754 -16.569  0.00  0.00    +0.050 C 
ATOM     24  C   UNL     1      35.706 -22.073 -17.672  0.00  0.00    +0.019 C 
ATOM     25  C   UNL     1      34.832 -21.591 -18.624  0.00  0.00    +0.057 C 
ATOM     26  C   UNL     1      33.815 -22.937 -16.443  0.00  0.00    +0.044 C 
ATOM     27  C   UNL     1      33.467 -21.760 -18.524  0.00  0.00    +0.034 C 
ATOM     28  C   UNL     1      32.952 -22.441 -17.420  0.00  0.00    +0.142 C 
BRANCH  23  30
ATOM     29  O   UNL     1      37.750 -24.018 -13.481  0.00  0.00    -0.350 OA
ATOM     30  N   UNL     1      36.055 -23.252 -15.589  0.00  0.00    -0.303 N 
ATOM     31  C   UNL     1      37.474 -22.875 -15.603  0.00  0.00    +0.123 C 
ATOM     32  C   UNL     1      35.501 -23.550 -14.261  0.00  0.00    +0.123 C 
ATOM     33  C   UNL     1      38.283 -23.886 -14.798  0.00  0.00    +0.164 C 
ATOM     34  C   UNL     1      36.416 -24.524 -13.528  0.00  0.00    +0.164 C 
ENDBRANCH  23  30
ENDBRANCH   3  25
TORSDOF 6
ENDMDL
MODEL 9
REMARK VINA RESULT:     -10.5      5.695      9.887
REMARK  Name = 5326869
REMARK  6 active torsions:
REMARK  status: ('A' for Active; 'I' for Inactive)
REMARK    1  A    between atoms: N_2  and  C_11
REMARK    2  A    between atoms: C_3  and  C_25
REMARK    3  A    between atoms: N_5  and  C_14
REMARK    4  A    between atoms: C_14  and  C_15
REMARK    5  A    between atoms: C_15  and  C_17
REMARK    6  A    between atoms: C_23  and  N_30
REMARK                            x       y       z     vdW  Elec       q    Type
REMARK                         _______ _______ _______ _____ _____    ______ ____
ROOT
ATOM      1  O   UNL     1      33.304 -20.368 -20.194  0.00  0.00    -0.270 OA
ATOM      2  N   UNL     1      35.310 -20.953 -19.116  0.00  0.00    -0.280 N 
ATOM      3  C   UNL     1      34.521 -20.296 -20.070  0.00  0.00    +0.250 C 
ATOM      4  H   UNL     1      36.278 -20.779 -19.163  0.00  0.00    +0.155 HD
ENDROOT
BRANCH   2  11
ATOM      5  N   UNL     1      35.947 -23.511 -14.963  0.00  0.00    -0.286 N 
ATOM      6  C   UNL     1      35.312 -23.024 -16.083  0.00  0.00    +0.053 C 
ATOM      7  C   UNL     1      34.028 -23.573 -16.099  0.00  0.00    +0.015 C 
ATOM      8  C   UNL     1      35.110 -24.348 -14.272  0.00  0.00    +0.065 C 
ATOM      9  C   UNL     1      35.772 -22.148 -17.073  0.00  0.00    +0.029 C 
ATOM     10  C   UNL     1      33.915 -24.405 -14.951  0.00  0.00    +0.017 C 
ATOM     11  C   UNL     1      34.892 -21.824 -18.109  0.00  0.00    +0.052 C 
ATOM     12  C   UNL     1      33.158 -23.231 -17.154  0.00  0.00    +0.003 C 
ATOM     13  C   UNL     1      33.605 -22.356 -18.151  0.00  0.00    +0.015 C 
BRANCH   5  14
ATOM     14  C   UNL     1      37.300 -23.196 -14.558  0.00  0.00    +0.100 C 
BRANCH  14  15
ATOM     15  C   UNL     1      37.846 -24.129 -13.473  0.00  0.00    +0.048 C 
BRANCH  15  17
ATOM     16  N   UNL     1      40.382 -27.225 -15.005  0.00  0.00    -0.242 NA
ATOM     17  C   UNL     1      38.739 -25.218 -14.013  0.00  0.00    -0.017 C 
ATOM     18  C   UNL     1      40.084 -25.216 -13.695  0.00  0.00    +0.016 C 
ATOM     19  C   UNL     1      38.199 -26.205 -14.816  0.00  0.00    +0.016 C 
ATOM     20  C   UNL     1      40.861 -26.239 -14.215  0.00  0.00    +0.099 C 
ATOM     21  C   UNL     1      39.060 -27.183 -15.286  0.00  0.00    +0.099 C 
ENDBRANCH  15  17
ENDBRANCH  14  15
ENDBRANCH   5  14
ENDBRANCH   2  11
BRANCH   3  25
ATOM     22  F   UNL     1      38.681 -18.576 -21.836  0.00  0.00    -0.204 F 
ATOM     23  C   UNL     1      35.256 -17.926 -22.878  0.00  0.00    +0.050 C 
ATOM     24  C   UNL     1      34.556 -18.721 -21.969  0.00  0.00    +0.019 C 
ATOM     25  C   UNL     1      35.265 -19.447 -21.036  0.00  0.00    +0.057 C 
ATOM     26  C   UNL     1      36.649 -17.877 -22.832  0.00  0.00    +0.044 C 
ATOM     27  C   UNL     1      36.643 -19.416 -20.971  0.00  0.00    +0.034 C 
ATOM     28  C   UNL     1      37.343 -18.622 -21.879  0.00  0.00    +0.142 C 
BRANCH  23  30
ATOM     29  O   UNL     1      33.349 -15.765 -25.940  0.00  0.00    -0.350 OA
ATOM     30  N   UNL     1      34.560 -17.179 -23.834  0.00  0.00    -0.303 N 
ATOM     31  C   UNL     1      35.002 -15.819 -24.164  0.00  0.00    +0.123 C 
ATOM     32  C   UNL     1      33.888 -17.901 -24.923  0.00  0.00    +0.123 C 
ATOM     33  C   UNL     1      33.857 -15.050 -24.814  0.00  0.00    +0.164 C 
ATOM     34  C   UNL     1      32.804 -17.020 -25.532  0.00  0.00    +0.164 C 
ENDBRANCH  23  30
ENDBRANCH   3  25
TORSDOF 6
ENDMDL
