MODEL 1
REMARK VINA RESULT:     -12.6      0.000      0.000
REMARK  Name = 25023705
REMARK  6 active torsions:
REMARK  status: ('A' for Active; 'I' for Inactive)
REMARK    1  A    between atoms: C_1  and  C_8
REMARK    2  A    between atoms: C_1  and  C_20
REMARK    3  A    between atoms: C_20  and  N_22
REMARK    4  A    between atoms: C_23  and  C_25
REMARK    5  A    between atoms: C_30  and  O_31
REMARK    6  A    between atoms: O_31  and  C_32
REMARK                            x       y       z     vdW  Elec       q    Type
REMARK                         _______ _______ _______ _____ _____    ______ ____
ROOT
ATOM      1  C   UNL     1      32.586 -23.660 -14.954  0.00  0.00    +0.066 C 
ATOM      2  C   UNL     1      32.136 -22.186 -14.807  0.00  0.00    +0.009 C 
ATOM      3  C   UNL     1      31.449 -24.527 -14.362  0.00  0.00    +0.009 C 
ENDROOT
BRANCH   1   8
ATOM      4  N   UNL     1      35.027 -23.987 -15.036  0.00  0.00    -0.347 NA
ATOM      5  N   UNL     1      37.312 -24.292 -15.246  0.00  0.00    -0.266 NA
ATOM      6  N   UNL     1      38.741 -24.471 -13.316  0.00  0.00    -0.316 NA
ATOM      7  N   UNL     1      39.627 -24.603 -15.479  0.00  0.00    -0.283 N 
ATOM      8  C   UNL     1      33.941 -23.835 -14.240  0.00  0.00    +0.122 C 
ATOM      9  C   UNL     1      33.985 -23.832 -12.862  0.00  0.00    +0.026 C 
ATOM     10  C   UNL     1      35.225 -23.994 -12.271  0.00  0.00    +0.001 C 
ATOM     11  C   UNL     1      36.232 -24.143 -14.471  0.00  0.00    +0.137 C 
ATOM     12  C   UNL     1      36.361 -24.151 -13.078  0.00  0.00    +0.199 C 
ATOM     13  C   UNL     1      37.642 -24.319 -12.557  0.00  0.00    +0.187 C 
ATOM     14  C   UNL     1      38.506 -24.448 -14.636  0.00  0.00    +0.207 C 
ATOM     15  H   UNL     1      39.512 -24.595 -16.457  0.00  0.00    +0.156 HD
ATOM     16  H   UNL     1      40.524 -24.720 -15.089  0.00  0.00    +0.156 HD
ATOM     17  N   UNL     1      37.827 -24.334 -11.152  0.00  0.00    -0.334 N 
ATOM     18  H   UNL     1      38.729 -24.452 -10.776  0.00  0.00    +0.144 HD
ATOM     19  H   UNL     1      37.053 -24.227 -10.553  0.00  0.00    +0.144 HD
ENDBRANCH   1   8
BRANCH   1  20
ATOM     20  C   UNL     1      32.713 -23.979 -16.470  0.00  0.00    +0.096 C 
BRANCH  20  22
ATOM     21  O   UNL     1      33.852 -24.200 -19.096  0.00  0.00    -0.270 OA
ATOM     22  N   UNL     1      33.309 -22.918 -17.241  0.00  0.00    -0.300 N 
ATOM     23  C   UNL     1      33.837 -23.121 -18.509  0.00  0.00    +0.246 C 
ATOM     24  H   UNL     1      33.343 -22.014 -16.853  0.00  0.00    +0.150 HD
BRANCH  23  25
ATOM     25  C   UNL     1      34.440 -21.931 -19.162  0.00  0.00    +0.054 C 
ATOM     26  C   UNL     1      35.821 -21.746 -19.136  0.00  0.00    +0.008 C 
ATOM     27  C   UNL     1      33.622 -20.997 -19.801  0.00  0.00    +0.008 C 
ATOM     28  C   UNL     1      36.386 -20.627 -19.748  0.00  0.00    +0.038 C 
ATOM     29  C   UNL     1      34.188 -19.879 -20.413  0.00  0.00    +0.038 C 
ATOM     30  C   UNL     1      35.570 -19.693 -20.386  0.00  0.00    +0.145 C 
BRANCH  30  31
ATOM     31  O   UNL     1      36.121 -18.601 -20.981  0.00  0.00    -0.453 OA
BRANCH  31  32
ATOM     32  C   UNL     1      35.615 -18.213 -22.211  0.00  0.00    +0.145 C 
ATOM     33  C   UNL     1      35.471 -16.859 -22.509  0.00  0.00    +0.037 C 
ATOM     34  C   UNL     1      35.248 -19.178 -23.149  0.00  0.00    +0.037 C 
ATOM     35  C   UNL     1      34.960 -16.467 -23.747  0.00  0.00    +0.003 C 
ATOM     36  C   UNL     1      34.737 -18.787 -24.387  0.00  0.00    +0.003 C 
ATOM     37  C   UNL     1      34.592 -17.432 -24.686  0.00  0.00    +0.000 C 
ENDBRANCH  31  32
ENDBRANCH  30  31
ENDBRANCH  23  25
ENDBRANCH  20  22
ENDBRANCH   1  20
TORSDOF 6
ENDMDL
MODEL 2
REMARK VINA RESULT:     -11.9      5.084      8.559
REMARK  Name = 25023705
REMARK  6 active torsions:
REMARK  status: ('A' for Active; 'I' for Inactive)
REMARK    1  A    between atoms: C_1  and  C_8
REMARK    2  A    between atoms: C_1  and  C_20
REMARK    3  A    between atoms: C_20  and  N_22
REMARK    4  A    between atoms: C_23  and  C_25
REMARK    5  A    between atoms: C_30  and  O_31
REMARK    6  A    between atoms: O_31  and  C_32
REMARK                            x       y       z     vdW  Elec       q    Type
REMARK                         _______ _______ _______ _____ _____    ______ ____
ROOT
ATOM      1  C   UNL     1      35.587 -18.565 -22.361  0.00  0.00    +0.066 C 
ATOM      2  C   UNL     1      34.360 -18.183 -23.224  0.00  0.00    +0.009 C 
ATOM      3  C   UNL     1      36.624 -19.191 -23.326  0.00  0.00    +0.009 C 
ENDROOT
BRANCH   1   8
ATOM      4  N   UNL     1      36.083 -19.946 -20.383  0.00  0.00    -0.347 NA
ATOM      5  N   UNL     1      36.677 -21.207 -18.533  0.00  0.00    -0.266 NA
ATOM      6  N   UNL     1      35.048 -22.494 -17.313  0.00  0.00    -0.316 NA
ATOM      7  N   UNL     1      37.297 -22.480 -16.661  0.00  0.00    -0.283 N 
ATOM      8  C   UNL     1      35.126 -19.514 -21.239  0.00  0.00    +0.122 C 
ATOM      9  C   UNL     1      33.797 -19.872 -21.159  0.00  0.00    +0.026 C 
ATOM     10  C   UNL     1      33.435 -20.727 -20.133  0.00  0.00    +0.001 C 
ATOM     11  C   UNL     1      35.740 -20.774 -19.386  0.00  0.00    +0.137 C 
ATOM     12  C   UNL     1      34.411 -21.185 -19.237  0.00  0.00    +0.199 C 
ATOM     13  C   UNL     1      34.125 -22.046 -18.180  0.00  0.00    +0.187 C 
ATOM     14  C   UNL     1      36.288 -22.040 -17.545  0.00  0.00    +0.207 C 
ATOM     15  H   UNL     1      38.226 -22.178 -16.786  0.00  0.00    +0.156 HD
ATOM     16  H   UNL     1      37.071 -23.089 -15.921  0.00  0.00    +0.156 HD
ATOM     17  N   UNL     1      32.794 -22.491 -17.986  0.00  0.00    -0.334 N 
ATOM     18  H   UNL     1      32.582 -23.100 -17.242  0.00  0.00    +0.144 HD
ATOM     19  H   UNL     1      32.080 -22.192 -18.595  0.00  0.00    +0.144 HD
ENDBRANCH   1   8
BRANCH   1  20
ATOM     20  C   UNL     1      36.189 -17.259 -21.770  0.00  0.00    +0.096 C 
BRANCH  20  22
ATOM     21  O   UNL     1      35.749 -14.998 -23.484  0.00  0.00    -0.270 OA
ATOM     22  N   UNL     1      35.223 -16.208 -21.576  0.00  0.00    -0.300 N 
ATOM     23  C   UNL     1      35.082 -15.149 -22.464  0.00  0.00    +0.246 C 
ATOM     24  H   UNL     1      34.640 -16.241 -20.783  0.00  0.00    +0.150 HD
BRANCH  23  25
ATOM     25  C   UNL     1      34.059 -14.132 -22.108  0.00  0.00    +0.054 C 
ATOM     26  C   UNL     1      33.589 -14.045 -20.798  0.00  0.00    +0.008 C 
ATOM     27  C   UNL     1      33.568 -13.266 -23.085  0.00  0.00    +0.008 C 
ATOM     28  C   UNL     1      32.627 -13.092 -20.465  0.00  0.00    +0.038 C 
ATOM     29  C   UNL     1      32.607 -12.312 -22.751  0.00  0.00    +0.038 C 
ATOM     30  C   UNL     1      32.136 -12.225 -21.441  0.00  0.00    +0.145 C 
BRANCH  30  31
ATOM     31  O   UNL     1      31.196 -11.296 -21.117  0.00  0.00    -0.453 OA
BRANCH  31  32
ATOM     32  C   UNL     1      31.599  -9.973 -21.038  0.00  0.00    +0.145 C 
ATOM     33  C   UNL     1      31.617  -9.181 -22.185  0.00  0.00    +0.037 C 
ATOM     34  C   UNL     1      31.989  -9.434 -19.811  0.00  0.00    +0.037 C 
ATOM     35  C   UNL     1      32.024  -7.849 -22.107  0.00  0.00    +0.003 C 
ATOM     36  C   UNL     1      32.395  -8.102 -19.733  0.00  0.00    +0.003 C 
ATOM     37  C   UNL     1      32.413  -7.310 -20.881  0.00  0.00    +0.000 C 
ENDBRANCH  31  32
ENDBRANCH  30  31
ENDBRANCH  23  25
ENDBRANCH  20  22
ENDBRANCH   1  20
TORSDOF 6
ENDMDL
MODEL 3
REMARK VINA RESULT:     -11.3      5.273     11.235
REMARK  Name = 25023705
REMARK  6 active torsions:
REMARK  status: ('A' for Active; 'I' for Inactive)
REMARK    1  A    between atoms: C_1  and  C_8
REMARK    2  A    between atoms: C_1  and  C_20
REMARK    3  A    between atoms: C_20  and  N_22
REMARK    4  A    between atoms: C_23  and  C_25
REMARK    5  A    between atoms: C_30  and  O_31
REMARK    6  A    between atoms: O_31  and  C_32
REMARK                            x       y       z     vdW  Elec       q    Type
REMARK                         _______ _______ _______ _____ _____    ______ ____
ROOT
ATOM      1  C   UNL     1      35.105 -18.415 -23.399  0.00  0.00    +0.066 C 
ATOM      2  C   UNL     1      35.598 -18.987 -24.751  0.00  0.00    +0.009 C 
ATOM      3  C   UNL     1      33.824 -19.202 -23.031  0.00  0.00    +0.009 C 
ENDROOT
BRANCH   1   8
ATOM      4  N   UNL     1      34.286 -16.492 -24.703  0.00  0.00    -0.347 NA
ATOM      5  N   UNL     1      33.476 -14.770 -26.023  0.00  0.00    -0.266 NA
ATOM      6  N   UNL     1      33.605 -12.473 -25.312  0.00  0.00    -0.316 NA
ATOM      7  N   UNL     1      32.651 -13.037 -27.374  0.00  0.00    -0.283 N 
ATOM      8  C   UNL     1      34.883 -16.898 -23.557  0.00  0.00    +0.122 C 
ATOM      9  C   UNL     1      35.292 -16.047 -22.553  0.00  0.00    +0.026 C 
ATOM     10  C   UNL     1      35.070 -14.694 -22.743  0.00  0.00    +0.001 C 
ATOM     11  C   UNL     1      34.066 -15.184 -24.895  0.00  0.00    +0.137 C 
ATOM     12  C   UNL     1      34.452 -14.254 -23.923  0.00  0.00    +0.199 C 
ATOM     13  C   UNL     1      34.195 -12.911 -24.187  0.00  0.00    +0.187 C 
ATOM     14  C   UNL     1      33.275 -13.444 -26.175  0.00  0.00    +0.207 C 
ATOM     15  H   UNL     1      32.388 -13.709 -28.044  0.00  0.00    +0.156 HD
ATOM     16  H   UNL     1      32.479 -12.082 -27.540  0.00  0.00    +0.156 HD
ATOM     17  N   UNL     1      34.567 -11.930 -23.234  0.00  0.00    -0.334 N 
ATOM     18  H   UNL     1      34.389 -10.978 -23.413  0.00  0.00    +0.144 HD
ATOM     19  H   UNL     1      35.003 -12.200 -22.394  0.00  0.00    +0.144 HD
ENDBRANCH   1   8
BRANCH   1  20
ATOM     20  C   UNL     1      36.190 -18.708 -22.325  0.00  0.00    +0.096 C 
BRANCH  20  22
ATOM     21  O   UNL     1      37.596 -19.350 -19.906  0.00  0.00    -0.270 OA
ATOM     22  N   UNL     1      35.762 -19.623 -21.299  0.00  0.00    -0.300 N 
ATOM     23  C   UNL     1      36.513 -19.872 -20.157  0.00  0.00    +0.246 C 
ATOM     24  H   UNL     1      34.903 -20.092 -21.412  0.00  0.00    +0.150 HD
BRANCH  23  25
ATOM     25  C   UNL     1      35.945 -20.864 -19.208  0.00  0.00    +0.054 C 
ATOM     26  C   UNL     1      34.713 -21.458 -19.474  0.00  0.00    +0.008 C 
ATOM     27  C   UNL     1      36.647 -21.198 -18.048  0.00  0.00    +0.008 C 
ATOM     28  C   UNL     1      34.181 -22.389 -18.582  0.00  0.00    +0.038 C 
ATOM     29  C   UNL     1      36.114 -22.129 -17.156  0.00  0.00    +0.038 C 
ATOM     30  C   UNL     1      34.881 -22.723 -17.423  0.00  0.00    +0.145 C 
BRANCH  30  31
ATOM     31  O   UNL     1      34.360 -23.629 -16.551  0.00  0.00    -0.453 OA
BRANCH  31  32
ATOM     32  C   UNL     1      33.174 -23.303 -15.915  0.00  0.00    +0.145 C 
ATOM     33  C   UNL     1      32.015 -23.100 -16.664  0.00  0.00    +0.037 C 
ATOM     34  C   UNL     1      33.138 -23.176 -14.526  0.00  0.00    +0.037 C 
ATOM     35  C   UNL     1      30.820 -22.770 -16.025  0.00  0.00    +0.003 C 
ATOM     36  C   UNL     1      31.943 -22.846 -13.887  0.00  0.00    +0.003 C 
ATOM     37  C   UNL     1      30.784 -22.643 -14.636  0.00  0.00    +0.000 C 
ENDBRANCH  31  32
ENDBRANCH  30  31
ENDBRANCH  23  25
ENDBRANCH  20  22
ENDBRANCH   1  20
TORSDOF 6
ENDMDL
MODEL 4
REMARK VINA RESULT:     -11.3      2.378      4.734
REMARK  Name = 25023705
REMARK  6 active torsions:
REMARK  status: ('A' for Active; 'I' for Inactive)
REMARK    1  A    between atoms: C_1  and  C_8
REMARK    2  A    between atoms: C_1  and  C_20
REMARK    3  A    between atoms: C_20  and  N_22
REMARK    4  A    between atoms: C_23  and  C_25
REMARK    5  A    between atoms: C_30  and  O_31
REMARK    6  A    between atoms: O_31  and  C_32
REMARK                            x       y       z     vdW  Elec       q    Type
REMARK                         _______ _______ _______ _____ _____    ______ ____
ROOT
ATOM      1  C   UNL     1      34.191 -22.275 -18.698  0.00  0.00    +0.066 C 
ATOM      2  C   UNL     1      32.902 -21.454 -18.944  0.00  0.00    +0.009 C 
ATOM      3  C   UNL     1      34.125 -23.492 -19.653  0.00  0.00    +0.009 C 
ENDROOT
BRANCH   1   8
ATOM      4  N   UNL     1      33.138 -23.197 -16.672  0.00  0.00    -0.347 NA
ATOM      5  N   UNL     1      32.038 -24.086 -14.838  0.00  0.00    -0.266 NA
ATOM      6  N   UNL     1      33.119 -24.279 -12.695  0.00  0.00    -0.316 NA
ATOM      7  N   UNL     1      30.907 -24.989 -12.990  0.00  0.00    -0.283 N 
ATOM      8  C   UNL     1      34.259 -22.654 -17.207  0.00  0.00    +0.122 C 
ATOM      9  C   UNL     1      35.422 -22.430 -16.503  0.00  0.00    +0.026 C 
ATOM     10  C   UNL     1      35.431 -22.788 -15.166  0.00  0.00    +0.001 C 
ATOM     11  C   UNL     1      33.138 -23.548 -15.378  0.00  0.00    +0.137 C 
ATOM     12  C   UNL     1      34.281 -23.352 -14.595  0.00  0.00    +0.199 C 
ATOM     13  C   UNL     1      34.212 -23.737 -13.258  0.00  0.00    +0.187 C 
ATOM     14  C   UNL     1      32.082 -24.423 -13.532  0.00  0.00    +0.207 C 
ATOM     15  H   UNL     1      30.114 -25.116 -13.560  0.00  0.00    +0.156 HD
ATOM     16  H   UNL     1      30.881 -25.254 -12.042  0.00  0.00    +0.156 HD
ATOM     17  N   UNL     1      35.342 -23.560 -12.423  0.00  0.00    -0.334 N 
ATOM     18  H   UNL     1      35.302 -23.830 -11.477  0.00  0.00    +0.144 HD
ATOM     19  H   UNL     1      36.168 -23.167 -12.788  0.00  0.00    +0.144 HD
ENDBRANCH   1   8
BRANCH   1  20
ATOM     20  C   UNL     1      35.409 -21.396 -19.102  0.00  0.00    +0.096 C 
BRANCH  20  22
ATOM     21  O   UNL     1      37.174 -19.387 -20.147  0.00  0.00    -0.270 OA
ATOM     22  N   UNL     1      35.151 -20.520 -20.216  0.00  0.00    -0.300 N 
ATOM     23  C   UNL     1      36.070 -19.574 -20.652  0.00  0.00    +0.246 C 
ATOM     24  H   UNL     1      34.290 -20.594 -20.687  0.00  0.00    +0.150 HD
BRANCH  23  25
ATOM     25  C   UNL     1      35.642 -18.729 -21.796  0.00  0.00    +0.054 C 
ATOM     26  C   UNL     1      36.094 -17.414 -21.900  0.00  0.00    +0.008 C 
ATOM     27  C   UNL     1      34.787 -19.253 -22.767  0.00  0.00    +0.008 C 
ATOM     28  C   UNL     1      35.691 -16.621 -22.974  0.00  0.00    +0.038 C 
ATOM     29  C   UNL     1      34.384 -18.459 -23.842  0.00  0.00    +0.038 C 
ATOM     30  C   UNL     1      34.836 -17.143 -23.944  0.00  0.00    +0.145 C 
BRANCH  30  31
ATOM     31  O   UNL     1      34.440 -16.369 -24.992  0.00  0.00    -0.453 OA
BRANCH  31  32
ATOM     32  C   UNL     1      34.277 -15.013 -24.764  0.00  0.00    +0.145 C 
ATOM     33  C   UNL     1      34.635 -14.465 -23.532  0.00  0.00    +0.037 C 
ATOM     34  C   UNL     1      33.753 -14.195 -25.766  0.00  0.00    +0.037 C 
ATOM     35  C   UNL     1      34.469 -13.099 -23.301  0.00  0.00    +0.003 C 
ATOM     36  C   UNL     1      33.588 -12.829 -25.535  0.00  0.00    +0.003 C 
ATOM     37  C   UNL     1      33.945 -12.282 -24.303  0.00  0.00    +0.000 C 
ENDBRANCH  31  32
ENDBRANCH  30  31
ENDBRANCH  23  25
ENDBRANCH  20  22
ENDBRANCH   1  20
TORSDOF 6
ENDMDL
MODEL 5
REMARK VINA RESULT:     -11.3      5.260     11.310
REMARK  Name = 25023705
REMARK  6 active torsions:
REMARK  status: ('A' for Active; 'I' for Inactive)
REMARK    1  A    between atoms: C_1  and  C_8
REMARK    2  A    between atoms: C_1  and  C_20
REMARK    3  A    between atoms: C_20  and  N_22
REMARK    4  A    between atoms: C_23  and  C_25
REMARK    5  A    between atoms: C_30  and  O_31
REMARK    6  A    between atoms: O_31  and  C_32
REMARK                            x       y       z     vdW  Elec       q    Type
REMARK                         _______ _______ _______ _____ _____    ______ ____
ROOT
ATOM      1  C   UNL     1      35.185 -18.483 -23.245  0.00  0.00    +0.066 C 
ATOM      2  C   UNL     1      36.592 -18.689 -22.633  0.00  0.00    +0.009 C 
ATOM      3  C   UNL     1      35.163 -19.283 -24.571  0.00  0.00    +0.009 C 
ENDROOT
BRANCH   1   8
ATOM      4  N   UNL     1      34.364 -16.588 -24.587  0.00  0.00    -0.347 NA
ATOM      5  N   UNL     1      33.556 -14.893 -25.943  0.00  0.00    -0.266 NA
ATOM      6  N   UNL     1      33.630 -12.587 -25.254  0.00  0.00    -0.316 NA
ATOM      7  N   UNL     1      32.732 -13.189 -27.331  0.00  0.00    -0.283 N 
ATOM      8  C   UNL     1      34.942 -16.972 -23.424  0.00  0.00    +0.122 C 
ATOM      9  C   UNL     1      35.314 -16.104 -22.420  0.00  0.00    +0.026 C 
ATOM     10  C   UNL     1      35.073 -14.757 -22.630  0.00  0.00    +0.001 C 
ATOM     11  C   UNL     1      34.127 -15.286 -24.798  0.00  0.00    +0.137 C 
ATOM     12  C   UNL     1      34.475 -14.340 -23.827  0.00  0.00    +0.199 C 
ATOM     13  C   UNL     1      34.202 -13.003 -24.112  0.00  0.00    +0.187 C 
ATOM     14  C   UNL     1      33.337 -13.573 -26.114  0.00  0.00    +0.207 C 
ATOM     15  H   UNL     1      32.496 -13.872 -28.000  0.00  0.00    +0.156 HD
ATOM     16  H   UNL     1      32.549 -12.238 -27.511  0.00  0.00    +0.156 HD
ATOM     17  N   UNL     1      34.535 -12.007 -23.161  0.00  0.00    -0.334 N 
ATOM     18  H   UNL     1      34.346 -11.060 -23.354  0.00  0.00    +0.144 HD
ATOM     19  H   UNL     1      34.957 -12.261 -22.308  0.00  0.00    +0.144 HD
ENDBRANCH   1   8
BRANCH   1  20
ATOM     20  C   UNL     1      34.139 -19.103 -22.277  0.00  0.00    +0.096 C 
BRANCH  20  22
ATOM     21  O   UNL     1      32.727 -20.544 -20.235  0.00  0.00    -0.270 OA
ATOM     22  N   UNL     1      34.722 -19.823 -21.174  0.00  0.00    -0.300 N 
ATOM     23  C   UNL     1      33.954 -20.494 -20.230  0.00  0.00    +0.246 C 
ATOM     24  H   UNL     1      35.702 -19.840 -21.085  0.00  0.00    +0.150 HD
BRANCH  23  25
ATOM     25  C   UNL     1      34.705 -21.166 -19.138  0.00  0.00    +0.054 C 
ATOM     26  C   UNL     1      34.040 -22.015 -18.255  0.00  0.00    +0.008 C 
ATOM     27  C   UNL     1      36.076 -20.945 -18.998  0.00  0.00    +0.008 C 
ATOM     28  C   UNL     1      34.746 -22.644 -17.229  0.00  0.00    +0.038 C 
ATOM     29  C   UNL     1      36.781 -21.576 -17.973  0.00  0.00    +0.038 C 
ATOM     30  C   UNL     1      36.116 -22.424 -17.088  0.00  0.00    +0.145 C 
BRANCH  30  31
ATOM     31  O   UNL     1      36.804 -23.037 -16.086  0.00  0.00    -0.453 OA
BRANCH  31  32
ATOM     32  C   UNL     1      36.109 -23.365 -14.934  0.00  0.00    +0.145 C 
ATOM     33  C   UNL     1      34.826 -23.906 -15.025  0.00  0.00    +0.037 C 
ATOM     34  C   UNL     1      36.690 -23.153 -13.684  0.00  0.00    +0.037 C 
ATOM     35  C   UNL     1      34.124 -24.236 -13.865  0.00  0.00    +0.003 C 
ATOM     36  C   UNL     1      35.988 -23.483 -12.524  0.00  0.00    +0.003 C 
ATOM     37  C   UNL     1      34.706 -24.024 -12.615  0.00  0.00    +0.000 C 
ENDBRANCH  31  32
ENDBRANCH  30  31
ENDBRANCH  23  25
ENDBRANCH  20  22
ENDBRANCH   1  20
TORSDOF 6
ENDMDL
MODEL 6
REMARK VINA RESULT:     -11.2      4.931      8.873
REMARK  Name = 25023705
REMARK  6 active torsions:
REMARK  status: ('A' for Active; 'I' for Inactive)
REMARK    1  A    between atoms: C_1  and  C_8
REMARK    2  A    between atoms: C_1  and  C_20
REMARK    3  A    between atoms: C_20  and  N_22
REMARK    4  A    between atoms: C_23  and  C_25
REMARK    5  A    between atoms: C_30  and  O_31
REMARK    6  A    between atoms: O_31  and  C_32
REMARK                            x       y       z     vdW  Elec       q    Type
REMARK                         _______ _______ _______ _____ _____    ______ ____
ROOT
ATOM      1  C   UNL     1      35.789 -18.257 -22.435  0.00  0.00    +0.066 C 
ATOM      2  C   UNL     1      36.839 -18.968 -23.322  0.00  0.00    +0.009 C 
ATOM      3  C   UNL     1      36.489 -17.011 -21.840  0.00  0.00    +0.009 C 
ENDROOT
BRANCH   1   8
ATOM      4  N   UNL     1      36.197 -19.702 -20.482  0.00  0.00    -0.347 NA
ATOM      5  N   UNL     1      36.707 -21.020 -18.647  0.00  0.00    -0.266 NA
ATOM      6  N   UNL     1      35.035 -22.375 -17.568  0.00  0.00    -0.316 NA
ATOM      7  N   UNL     1      37.243 -22.350 -16.789  0.00  0.00    -0.283 N 
ATOM      8  C   UNL     1      35.281 -19.254 -21.374  0.00  0.00    +0.122 C 
ATOM      9  C   UNL     1      33.957 -19.634 -21.383  0.00  0.00    +0.026 C 
ATOM     10  C   UNL     1      33.552 -20.532 -20.410  0.00  0.00    +0.001 C 
ATOM     11  C   UNL     1      35.813 -20.570 -19.536  0.00  0.00    +0.137 C 
ATOM     12  C   UNL     1      34.484 -21.007 -19.477  0.00  0.00    +0.199 C 
ATOM     13  C   UNL     1      34.154 -21.910 -18.469  0.00  0.00    +0.187 C 
ATOM     14  C   UNL     1      36.277 -21.894 -17.713  0.00  0.00    +0.207 C 
ATOM     15  H   UNL     1      38.172 -22.030 -16.851  0.00  0.00    +0.156 HD
ATOM     16  H   UNL     1      36.987 -22.989 -16.085  0.00  0.00    +0.156 HD
ATOM     17  N   UNL     1      32.822 -22.382 -18.367  0.00  0.00    -0.334 N 
ATOM     18  H   UNL     1      32.580 -23.021 -17.658  0.00  0.00    +0.144 HD
ATOM     19  H   UNL     1      32.139 -22.072 -19.004  0.00  0.00    +0.144 HD
ENDBRANCH   1   8
BRANCH   1  20
ATOM     20  C   UNL     1      34.625 -17.780 -23.349  0.00  0.00    +0.096 C 
BRANCH  20  22
ATOM     21  O   UNL     1      33.466 -16.361 -25.559  0.00  0.00    -0.270 OA
ATOM     22  N   UNL     1      34.564 -16.351 -23.516  0.00  0.00    -0.300 N 
ATOM     23  C   UNL     1      33.980 -15.752 -24.625  0.00  0.00    +0.246 C 
ATOM     24  H   UNL     1      34.951 -15.776 -22.816  0.00  0.00    +0.150 HD
BRANCH  23  25
ATOM     25  C   UNL     1      34.022 -14.267 -24.660  0.00  0.00    +0.054 C 
ATOM     26  C   UNL     1      33.608 -13.585 -25.803  0.00  0.00    +0.008 C 
ATOM     27  C   UNL     1      34.476 -13.556 -23.548  0.00  0.00    +0.008 C 
ATOM     28  C   UNL     1      33.648 -12.191 -25.836  0.00  0.00    +0.038 C 
ATOM     29  C   UNL     1      34.516 -12.162 -23.581  0.00  0.00    +0.038 C 
ATOM     30  C   UNL     1      34.103 -11.480 -24.725  0.00  0.00    +0.145 C 
BRANCH  30  31
ATOM     31  O   UNL     1      34.144 -10.120 -24.758  0.00  0.00    -0.453 OA
BRANCH  31  32
ATOM     32  C   UNL     1      33.629  -9.434 -23.671  0.00  0.00    +0.145 C 
ATOM     33  C   UNL     1      32.589  -9.988 -22.926  0.00  0.00    +0.037 C 
ATOM     34  C   UNL     1      34.150  -8.187 -23.322  0.00  0.00    +0.037 C 
ATOM     35  C   UNL     1      32.069  -9.297 -21.832  0.00  0.00    +0.003 C 
ATOM     36  C   UNL     1      33.630  -7.496 -22.227  0.00  0.00    +0.003 C 
ATOM     37  C   UNL     1      32.590  -8.051 -21.483  0.00  0.00    +0.000 C 
ENDBRANCH  31  32
ENDBRANCH  30  31
ENDBRANCH  23  25
ENDBRANCH  20  22
ENDBRANCH   1  20
TORSDOF 6
ENDMDL
MODEL 7
REMARK VINA RESULT:     -11.1      4.973     10.920
REMARK  Name = 25023705
REMARK  6 active torsions:
REMARK  status: ('A' for Active; 'I' for Inactive)
REMARK    1  A    between atoms: C_1  and  C_8
REMARK    2  A    between atoms: C_1  and  C_20
REMARK    3  A    between atoms: C_20  and  N_22
REMARK    4  A    between atoms: C_23  and  C_25
REMARK    5  A    between atoms: C_30  and  O_31
REMARK    6  A    between atoms: O_31  and  C_32
REMARK                            x       y       z     vdW  Elec       q    Type
REMARK                         _______ _______ _______ _____ _____    ______ ____
ROOT
ATOM      1  C   UNL     1      35.782 -18.767 -22.238  0.00  0.00    +0.066 C 
ATOM      2  C   UNL     1      37.166 -18.764 -21.544  0.00  0.00    +0.009 C 
ATOM      3  C   UNL     1      35.959 -19.540 -23.567  0.00  0.00    +0.009 C 
ENDROOT
BRANCH   1   8
ATOM      4  N   UNL     1      34.903 -16.959 -23.662  0.00  0.00    -0.347 NA
ATOM      5  N   UNL     1      34.075 -15.346 -25.102  0.00  0.00    -0.266 NA
ATOM      6  N   UNL     1      33.624 -13.102 -24.353  0.00  0.00    -0.316 NA
ATOM      7  N   UNL     1      33.236 -13.724 -26.577  0.00  0.00    -0.283 N 
ATOM      8  C   UNL     1      35.317 -17.309 -22.420  0.00  0.00    +0.122 C 
ATOM      9  C   UNL     1      35.345 -16.450 -21.342  0.00  0.00    +0.026 C 
ATOM     10  C   UNL     1      34.919 -15.151 -21.559  0.00  0.00    +0.001 C 
ATOM     11  C   UNL     1      34.487 -15.704 -23.880  0.00  0.00    +0.137 C 
ATOM     12  C   UNL     1      34.486 -14.770 -22.837  0.00  0.00    +0.199 C 
ATOM     13  C   UNL     1      34.042 -13.484 -23.134  0.00  0.00    +0.187 C 
ATOM     14  C   UNL     1      33.666 -14.072 -25.278  0.00  0.00    +0.207 C 
ATOM     15  H   UNL     1      33.247 -14.397 -27.295  0.00  0.00    +0.156 HD
ATOM     16  H   UNL     1      32.927 -12.808 -26.764  0.00  0.00    +0.156 HD
ATOM     17  N   UNL     1      34.020 -12.502 -22.113  0.00  0.00    -0.334 N 
ATOM     18  H   UNL     1      33.709 -11.590 -22.314  0.00  0.00    +0.144 HD
ATOM     19  H   UNL     1      34.317 -12.731 -21.203  0.00  0.00    +0.144 HD
ENDBRANCH   1   8
BRANCH   1  20
ATOM     20  C   UNL     1      34.790 -19.556 -21.337  0.00  0.00    +0.096 C 
BRANCH  20  22
ATOM     21  O   UNL     1      33.779 -21.726 -19.753  0.00  0.00    -0.270 OA
ATOM     22  N   UNL     1      35.393 -20.109 -20.152  0.00  0.00    -0.300 N 
ATOM     23  C   UNL     1      34.828 -21.165 -19.448  0.00  0.00    +0.246 C 
ATOM     24  H   UNL     1      36.240 -19.724 -19.828  0.00  0.00    +0.150 HD
BRANCH  23  25
ATOM     25  C   UNL     1      35.559 -21.603 -18.232  0.00  0.00    +0.054 C 
ATOM     26  C   UNL     1      34.905 -22.354 -17.257  0.00  0.00    +0.008 C 
ATOM     27  C   UNL     1      36.902 -21.260 -18.065  0.00  0.00    +0.008 C 
ATOM     28  C   UNL     1      35.592 -22.764 -16.114  0.00  0.00    +0.038 C 
ATOM     29  C   UNL     1      37.589 -21.670 -16.923  0.00  0.00    +0.038 C 
ATOM     30  C   UNL     1      36.934 -22.421 -15.947  0.00  0.00    +0.145 C 
BRANCH  30  31
ATOM     31  O   UNL     1      37.604 -22.819 -14.831  0.00  0.00    -0.453 OA
BRANCH  31  32
ATOM     32  C   UNL     1      38.179 -24.079 -14.840  0.00  0.00    +0.145 C 
ATOM     33  C   UNL     1      37.390 -25.207 -14.621  0.00  0.00    +0.037 C 
ATOM     34  C   UNL     1      39.549 -24.219 -15.068  0.00  0.00    +0.037 C 
ATOM     35  C   UNL     1      37.969 -26.476 -14.628  0.00  0.00    +0.003 C 
ATOM     36  C   UNL     1      40.128 -25.488 -15.076  0.00  0.00    +0.003 C 
ATOM     37  C   UNL     1      39.338 -26.616 -14.856  0.00  0.00    +0.000 C 
ENDBRANCH  31  32
ENDBRANCH  30  31
ENDBRANCH  23  25
ENDBRANCH  20  22
ENDBRANCH   1  20
TORSDOF 6
ENDMDL
MODEL 8
REMARK VINA RESULT:     -11.1      9.023     13.898
REMARK  Name = 25023705
REMARK  6 active torsions:
REMARK  status: ('A' for Active; 'I' for Inactive)
REMARK    1  A    between atoms: C_1  and  C_8
REMARK    2  A    between atoms: C_1  and  C_20
REMARK    3  A    between atoms: C_20  and  N_22
REMARK    4  A    between atoms: C_23  and  C_25
REMARK    5  A    between atoms: C_30  and  O_31
REMARK    6  A    between atoms: O_31  and  C_32
REMARK                            x       y       z     vdW  Elec       q    Type
REMARK                         _______ _______ _______ _____ _____    ______ ____
ROOT
ATOM      1  C   UNL     1      31.994 -11.203 -21.290  0.00  0.00    +0.066 C 
ATOM      2  C   UNL     1      30.488 -11.560 -21.337  0.00  0.00    +0.009 C 
ATOM      3  C   UNL     1      32.568 -11.890 -20.027  0.00  0.00    +0.009 C 
ENDROOT
BRANCH   1   8
ATOM      4  N   UNL     1      32.051  -9.052 -22.489  0.00  0.00    -0.347 NA
ATOM      5  N   UNL     1      32.083  -7.097 -23.729  0.00  0.00    -0.266 NA
ATOM      6  N   UNL     1      32.412  -4.951 -22.687  0.00  0.00    -0.316 NA
ATOM      7  N   UNL     1      32.114  -5.125 -25.002  0.00  0.00    -0.283 N 
ATOM      8  C   UNL     1      32.138  -9.669 -21.286  0.00  0.00    +0.122 C 
ATOM      9  C   UNL     1      32.344  -9.012 -20.091  0.00  0.00    +0.026 C 
ATOM     10  C   UNL     1      32.467  -7.635 -20.142  0.00  0.00    +0.001 C 
ATOM     11  C   UNL     1      32.168  -7.718 -22.547  0.00  0.00    +0.137 C 
ATOM     12  C   UNL     1      32.380  -6.978 -21.378  0.00  0.00    +0.199 C 
ATOM     13  C   UNL     1      32.494  -5.596 -21.510  0.00  0.00    +0.187 C 
ATOM     14  C   UNL     1      32.208  -5.753 -23.741  0.00  0.00    +0.207 C 
ATOM     15  H   UNL     1      31.966  -5.666 -25.811  0.00  0.00    +0.156 HD
ATOM     16  H   UNL     1      32.197  -4.146 -25.072  0.00  0.00    +0.156 HD
ATOM     17  N   UNL     1      32.708  -4.801 -20.357  0.00  0.00    -0.334 N 
ATOM     18  H   UNL     1      32.789  -3.823 -20.442  0.00  0.00    +0.144 HD
ATOM     19  H   UNL     1      32.775  -5.226 -19.472  0.00  0.00    +0.144 HD
ENDBRANCH   1   8
BRANCH   1  20
ATOM     20  C   UNL     1      32.678 -11.821 -22.542  0.00  0.00    +0.096 C 
BRANCH  20  22
ATOM     21  O   UNL     1      34.524 -13.196 -24.258  0.00  0.00    -0.270 OA
ATOM     22  N   UNL     1      33.283 -13.106 -22.301  0.00  0.00    -0.300 N 
ATOM     23  C   UNL     1      34.169 -13.694 -23.194  0.00  0.00    +0.246 C 
ATOM     24  H   UNL     1      33.059 -13.585 -21.470  0.00  0.00    +0.150 HD
BRANCH  23  25
ATOM     25  C   UNL     1      34.684 -15.035 -22.812  0.00  0.00    +0.054 C 
ATOM     26  C   UNL     1      34.903 -15.341 -21.469  0.00  0.00    +0.008 C 
ATOM     27  C   UNL     1      34.950 -15.986 -23.798  0.00  0.00    +0.008 C 
ATOM     28  C   UNL     1      35.388 -16.599 -21.112  0.00  0.00    +0.038 C 
ATOM     29  C   UNL     1      35.434 -17.244 -23.439  0.00  0.00    +0.038 C 
ATOM     30  C   UNL     1      35.654 -17.550 -22.097  0.00  0.00    +0.145 C 
BRANCH  30  31
ATOM     31  O   UNL     1      36.129 -18.776 -21.748  0.00  0.00    -0.453 OA
BRANCH  31  32
ATOM     32  C   UNL     1      35.313 -19.588 -20.977  0.00  0.00    +0.145 C 
ATOM     33  C   UNL     1      35.878 -20.480 -20.066  0.00  0.00    +0.037 C 
ATOM     34  C   UNL     1      33.927 -19.514 -21.114  0.00  0.00    +0.037 C 
ATOM     35  C   UNL     1      35.057 -21.298 -19.290  0.00  0.00    +0.003 C 
ATOM     36  C   UNL     1      33.106 -20.333 -20.338  0.00  0.00    +0.003 C 
ATOM     37  C   UNL     1      33.671 -21.225 -19.427  0.00  0.00    +0.000 C 
ENDBRANCH  31  32
ENDBRANCH  30  31
ENDBRANCH  23  25
ENDBRANCH  20  22
ENDBRANCH   1  20
TORSDOF 6
ENDMDL
MODEL 9
REMARK VINA RESULT:     -10.9      1.296      2.206
REMARK  Name = 25023705
REMARK  6 active torsions:
REMARK  status: ('A' for Active; 'I' for Inactive)
REMARK    1  A    between atoms: C_1  and  C_8
REMARK    2  A    between atoms: C_1  and  C_20
REMARK    3  A    between atoms: C_20  and  N_22
REMARK    4  A    between atoms: C_23  and  C_25
REMARK    5  A    between atoms: C_30  and  O_31
REMARK    6  A    between atoms: O_31  and  C_32
REMARK                            x       y       z     vdW  Elec       q    Type
REMARK                         _______ _______ _______ _____ _____    ______ ____
ROOT
ATOM      1  C   UNL     1      32.031 -23.829 -14.581  0.00  0.00    +0.066 C 
ATOM      2  C   UNL     1      31.628 -22.355 -14.328  0.00  0.00    +0.009 C 
ATOM      3  C   UNL     1      31.045 -24.699 -13.763  0.00  0.00    +0.009 C 
ENDROOT
BRANCH   1   8
ATOM      4  N   UNL     1      33.798 -23.862 -12.866  0.00  0.00    -0.347 NA
ATOM      5  N   UNL     1      35.367 -23.867 -11.162  0.00  0.00    -0.266 NA
ATOM      6  N   UNL     1      37.693 -24.315 -11.595  0.00  0.00    -0.316 NA
ATOM      7  N   UNL     1      36.942 -23.866  -9.423  0.00  0.00    -0.283 N 
ATOM      8  C   UNL     1      33.507 -24.013 -14.180  0.00  0.00    +0.122 C 
ATOM      9  C   UNL     1      34.439 -24.312 -15.151  0.00  0.00    +0.026 C 
ATOM     10  C   UNL     1      35.751 -24.467 -14.739  0.00  0.00    +0.001 C 
ATOM     11  C   UNL     1      35.066 -24.012 -12.458  0.00  0.00    +0.137 C 
ATOM     12  C   UNL     1      36.072 -24.316 -13.382  0.00  0.00    +0.199 C 
ATOM     13  C   UNL     1      37.368 -24.456 -12.891  0.00  0.00    +0.187 C 
ATOM     14  C   UNL     1      36.656 -24.025 -10.796  0.00  0.00    +0.207 C 
ATOM     15  H   UNL     1      36.219 -23.651  -8.791  0.00  0.00    +0.156 HD
ATOM     16  H   UNL     1      37.866 -23.970  -9.098  0.00  0.00    +0.156 HD
ATOM     17  N   UNL     1      38.422 -24.765 -13.786  0.00  0.00    -0.334 N 
ATOM     18  H   UNL     1      39.341 -24.866 -13.447  0.00  0.00    +0.144 HD
ATOM     19  H   UNL     1      38.236 -24.878 -14.746  0.00  0.00    +0.144 HD
ENDBRANCH   1   8
BRANCH   1  20
ATOM     20  C   UNL     1      31.823 -24.135 -16.091  0.00  0.00    +0.096 C 
BRANCH  20  22
ATOM     21  O   UNL     1      31.190 -21.785 -17.612  0.00  0.00    -0.270 OA
ATOM     22  N   UNL     1      32.713 -23.409 -16.960  0.00  0.00    -0.300 N 
ATOM     23  C   UNL     1      32.315 -22.276 -17.659  0.00  0.00    +0.246 C 
ATOM     24  H   UNL     1      33.638 -23.728 -17.064  0.00  0.00    +0.150 HD
BRANCH  23  25
ATOM     25  C   UNL     1      33.343 -21.657 -18.535  0.00  0.00    +0.054 C 
ATOM     26  C   UNL     1      34.685 -22.004 -18.388  0.00  0.00    +0.008 C 
ATOM     27  C   UNL     1      32.963 -20.727 -19.504  0.00  0.00    +0.008 C 
ATOM     28  C   UNL     1      35.649 -21.422 -19.210  0.00  0.00    +0.038 C 
ATOM     29  C   UNL     1      33.928 -20.145 -20.327  0.00  0.00    +0.038 C 
ATOM     30  C   UNL     1      35.271 -20.492 -20.179  0.00  0.00    +0.145 C 
BRANCH  30  31
ATOM     31  O   UNL     1      36.212 -19.922 -20.980  0.00  0.00    -0.453 OA
BRANCH  31  32
ATOM     32  C   UNL     1      35.792 -18.964 -21.887  0.00  0.00    +0.145 C 
ATOM     33  C   UNL     1      35.868 -17.611 -21.557  0.00  0.00    +0.037 C 
ATOM     34  C   UNL     1      35.290 -19.352 -23.129  0.00  0.00    +0.037 C 
ATOM     35  C   UNL     1      35.443 -16.645 -22.469  0.00  0.00    +0.003 C 
ATOM     36  C   UNL     1      34.865 -18.386 -24.042  0.00  0.00    +0.003 C 
ATOM     37  C   UNL     1      34.941 -17.033 -23.712  0.00  0.00    +0.000 C 
ENDBRANCH  31  32
ENDBRANCH  30  31
ENDBRANCH  23  25
ENDBRANCH  20  22
ENDBRANCH   1  20
TORSDOF 6
ENDMDL
