MODEL 1
REMARK VINA RESULT:     -11.5      0.000      0.000
REMARK  Name = 11740318
REMARK  5 active torsions:
REMARK  status: ('A' for Active; 'I' for Inactive)
REMARK    1  A    between atoms: N_1  and  C_20
REMARK    2  A    between atoms: C_2  and  O_8
REMARK    3  A    between atoms: O_8  and  C_9
REMARK    4  A    between atoms: C_14  and  N_15
REMARK    5  A    between atoms: C_20  and  C_23
REMARK                            x       y       z     vdW  Elec       q    Type
REMARK                         _______ _______ _______ _____ _____    ______ ____
ROOT
ATOM      1  N   UNL     1      35.254 -18.723 -22.245  0.00  0.00    +0.392 N 
ATOM      2  C   UNL     1      34.996 -16.530 -23.365  0.00  0.00    +0.145 C 
ATOM      3  C   UNL     1      35.772 -17.352 -22.331  0.00  0.00    -0.032 C 
ATOM      4  C   UNL     1      35.011 -17.208 -24.731  0.00  0.00    +0.039 C 
ATOM      5  C   UNL     1      34.545 -18.653 -24.615  0.00  0.00    -0.019 C 
ATOM      6  C   UNL     1      35.336 -19.406 -23.543  0.00  0.00    -0.077 C 
ATOM      7  H   UNL     1      34.270 -18.669 -21.980  0.00  0.00    -0.079 HD
ENDROOT
BRANCH   2   8
ATOM      8  O   UNL     1      35.584 -15.240 -23.493  0.00  0.00    -0.481 OA
BRANCH   8   9
ATOM      9  C   UNL     1      34.810 -14.171 -23.130  0.00  0.00    +0.138 C 
ATOM     10  C   UNL     1      34.221 -14.144 -21.870  0.00  0.00    +0.038 C 
ATOM     11  C   UNL     1      34.620 -13.121 -24.022  0.00  0.00    +0.038 C 
ATOM     12  C   UNL     1      33.431 -13.054 -21.499  0.00  0.00    +0.018 C 
ATOM     13  C   UNL     1      33.832 -12.033 -23.652  0.00  0.00    +0.018 C 
ATOM     14  C   UNL     1      33.238 -11.999 -22.390  0.00  0.00    +0.057 C 
BRANCH  14  15
ATOM     15  N   UNL     1      32.456 -10.918 -22.023  0.00  0.00    -0.246 N 
ATOM     16  N   UNL     1      30.961  -9.706 -20.898  0.00  0.00    -0.224 NA
ATOM     17  C   UNL     1      32.447  -9.678 -22.609  0.00  0.00    +0.092 C 
ATOM     18  C   UNL     1      31.544 -10.880 -20.998  0.00  0.00    +0.172 C 
ATOM     19  C   UNL     1      31.520  -8.952 -21.900  0.00  0.00    +0.117 C 
ENDBRANCH  14  15
ENDBRANCH   8   9
ENDBRANCH   2   8
BRANCH   1  20
ATOM     20  C   UNL     1      35.974 -19.479 -21.221  0.00  0.00    -0.050 C 
BRANCH  20  23
ATOM     21  O   UNL     1      34.985 -22.820 -17.723  0.00  0.00    -0.435 OA
ATOM     22  O   UNL     1      32.607 -22.482 -17.910  0.00  0.00    -0.435 OA
ATOM     23  C   UNL     1      35.039 -20.270 -20.346  0.00  0.00    -0.040 C 
ATOM     24  C   UNL     1      35.565 -21.184 -19.440  0.00  0.00    +0.034 C 
ATOM     25  C   UNL     1      33.659 -20.066 -20.463  0.00  0.00    -0.003 C 
ATOM     26  C   UNL     1      34.668 -21.885 -18.660  0.00  0.00    +0.176 C 
ATOM     27  C   UNL     1      32.773 -20.788 -19.660  0.00  0.00    +0.040 C 
ATOM     28  C   UNL     1      33.310 -21.692 -18.767  0.00  0.00    +0.176 C 
ATOM     29  C   UNL     1      33.674 -23.193 -17.251  0.00  0.00    +0.429 C 
ENDBRANCH  20  23
ENDBRANCH   1  20
TORSDOF 5
ENDMDL
MODEL 2
REMARK VINA RESULT:     -11.1      5.477      8.897
REMARK  Name = 11740318
REMARK  5 active torsions:
REMARK  status: ('A' for Active; 'I' for Inactive)
REMARK    1  A    between atoms: N_1  and  C_20
REMARK    2  A    between atoms: C_2  and  O_8
REMARK    3  A    between atoms: O_8  and  C_9
REMARK    4  A    between atoms: C_14  and  N_15
REMARK    5  A    between atoms: C_20  and  C_23
REMARK                            x       y       z     vdW  Elec       q    Type
REMARK                         _______ _______ _______ _____ _____    ______ ____
ROOT
ATOM      1  N   UNL     1      33.370 -23.292 -14.405  0.00  0.00    +0.392 N 
ATOM      2  C   UNL     1      32.642 -22.494 -16.633  0.00  0.00    +0.145 C 
ATOM      3  C   UNL     1      33.504 -23.492 -15.854  0.00  0.00    -0.032 C 
ATOM      4  C   UNL     1      31.181 -22.574 -16.202  0.00  0.00    +0.039 C 
ATOM      5  C   UNL     1      31.063 -22.443 -14.689  0.00  0.00    -0.019 C 
ATOM      6  C   UNL     1      31.974 -23.443 -13.974  0.00  0.00    -0.077 C 
ATOM      7  H   UNL     1      33.663 -22.338 -14.192  0.00  0.00    -0.079 HD
ENDROOT
BRANCH   2   8
ATOM      8  O   UNL     1      32.719 -22.777 -18.026  0.00  0.00    -0.481 OA
BRANCH   8   9
ATOM      9  C   UNL     1      33.528 -21.965 -18.775  0.00  0.00    +0.138 C 
ATOM     10  C   UNL     1      32.963 -20.975 -19.572  0.00  0.00    +0.038 C 
ATOM     11  C   UNL     1      34.907 -22.138 -18.734  0.00  0.00    +0.038 C 
ATOM     12  C   UNL     1      33.787 -20.147 -20.336  0.00  0.00    +0.018 C 
ATOM     13  C   UNL     1      35.731 -21.311 -19.497  0.00  0.00    +0.018 C 
ATOM     14  C   UNL     1      35.170 -20.315 -20.298  0.00  0.00    +0.057 C 
BRANCH  14  15
ATOM     15  N   UNL     1      35.988 -19.495 -21.054  0.00  0.00    -0.246 N 
ATOM     16  N   UNL     1      37.787 -18.334 -21.673  0.00  0.00    -0.224 NA
ATOM     17  C   UNL     1      35.671 -18.904 -22.251  0.00  0.00    +0.092 C 
ATOM     18  C   UNL     1      37.273 -19.119 -20.752  0.00  0.00    +0.172 C 
ATOM     19  C   UNL     1      36.794 -18.196 -22.610  0.00  0.00    +0.117 C 
ENDBRANCH  14  15
ENDBRANCH   8   9
ENDBRANCH   2   8
BRANCH   1  20
ATOM     20  C   UNL     1      34.234 -24.221 -13.678  0.00  0.00    -0.050 C 
BRANCH  20  23
ATOM     21  O   UNL     1      38.800 -25.980 -14.342  0.00  0.00    -0.435 OA
ATOM     22  O   UNL     1      39.607 -23.882 -15.210  0.00  0.00    -0.435 OA
ATOM     23  C   UNL     1      35.674 -24.094 -14.100  0.00  0.00    -0.040 C 
ATOM     24  C   UNL     1      36.517 -25.194 -13.982  0.00  0.00    +0.034 C 
ATOM     25  C   UNL     1      36.133 -22.871 -14.603  0.00  0.00    -0.003 C 
ATOM     26  C   UNL     1      37.827 -25.029 -14.381  0.00  0.00    +0.176 C 
ATOM     27  C   UNL     1      37.464 -22.731 -15.000  0.00  0.00    +0.040 C 
ATOM     28  C   UNL     1      38.288 -23.831 -14.877  0.00  0.00    +0.176 C 
ATOM     29  C   UNL     1      39.924 -25.246 -14.869  0.00  0.00    +0.429 C 
ENDBRANCH  20  23
ENDBRANCH   1  20
TORSDOF 5
ENDMDL
MODEL 3
REMARK VINA RESULT:     -10.9      4.682      8.746
REMARK  Name = 11740318
REMARK  5 active torsions:
REMARK  status: ('A' for Active; 'I' for Inactive)
REMARK    1  A    between atoms: N_1  and  C_20
REMARK    2  A    between atoms: C_2  and  O_8
REMARK    3  A    between atoms: O_8  and  C_9
REMARK    4  A    between atoms: C_14  and  N_15
REMARK    5  A    between atoms: C_20  and  C_23
REMARK                            x       y       z     vdW  Elec       q    Type
REMARK                         _______ _______ _______ _____ _____    ______ ____
ROOT
ATOM      1  N   UNL     1      33.845 -23.278 -14.266  0.00  0.00    +0.392 N 
ATOM      2  C   UNL     1      33.400 -22.698 -16.631  0.00  0.00    +0.145 C 
ATOM      3  C   UNL     1      34.190 -23.580 -15.660  0.00  0.00    -0.032 C 
ATOM      4  C   UNL     1      31.898 -22.831 -16.398  0.00  0.00    +0.039 C 
ATOM      5  C   UNL     1      31.562 -22.591 -14.932  0.00  0.00    -0.019 C 
ATOM      6  C   UNL     1      32.410 -23.477 -14.018  0.00  0.00    -0.077 C 
ATOM      7  H   UNL     1      34.059 -22.295 -14.096  0.00  0.00    -0.079 HD
ENDROOT
BRANCH   2   8
ATOM      8  O   UNL     1      33.685 -23.082 -17.972  0.00  0.00    -0.481 OA
BRANCH   8   9
ATOM      9  C   UNL     1      34.022 -22.079 -18.841  0.00  0.00    +0.138 C 
ATOM     10  C   UNL     1      35.362 -21.827 -19.116  0.00  0.00    +0.038 C 
ATOM     11  C   UNL     1      33.022 -21.323 -19.442  0.00  0.00    +0.038 C 
ATOM     12  C   UNL     1      35.706 -20.805 -20.002  0.00  0.00    +0.018 C 
ATOM     13  C   UNL     1      33.365 -20.302 -20.328  0.00  0.00    +0.018 C 
ATOM     14  C   UNL     1      34.707 -20.043 -20.608  0.00  0.00    +0.057 C 
BRANCH  14  15
ATOM     15  N   UNL     1      35.047 -19.031 -21.487  0.00  0.00    -0.246 N 
ATOM     16  N   UNL     1      35.245 -17.901 -23.399  0.00  0.00    -0.224 NA
ATOM     17  C   UNL     1      35.691 -17.860 -21.177  0.00  0.00    +0.092 C 
ATOM     18  C   UNL     1      34.802 -19.004 -22.838  0.00  0.00    +0.172 C 
ATOM     19  C   UNL     1      35.800 -17.184 -22.369  0.00  0.00    +0.117 C 
ENDBRANCH  14  15
ENDBRANCH   8   9
ENDBRANCH   2   8
BRANCH   1  20
ATOM     20  C   UNL     1      34.641 -24.096 -13.352  0.00  0.00    -0.050 C 
BRANCH  20  23
ATOM     21  O   UNL     1      38.915 -26.511 -13.888  0.00  0.00    -0.435 OA
ATOM     22  O   UNL     1      39.968 -24.639 -14.980  0.00  0.00    -0.435 OA
ATOM     23  C   UNL     1      36.074 -24.207 -13.803  0.00  0.00    -0.040 C 
ATOM     24  C   UNL     1      36.766 -25.393 -13.583  0.00  0.00    +0.034 C 
ATOM     25  C   UNL     1      36.676 -23.114 -14.436  0.00  0.00    -0.003 C 
ATOM     26  C   UNL     1      38.075 -25.447 -14.014  0.00  0.00    +0.176 C 
ATOM     27  C   UNL     1      38.003 -23.195 -14.864  0.00  0.00    +0.040 C 
ATOM     28  C   UNL     1      38.677 -24.378 -14.637  0.00  0.00    +0.176 C 
ATOM     29  C   UNL     1      40.111 -25.993 -14.504  0.00  0.00    +0.429 C 
ENDBRANCH  20  23
ENDBRANCH   1  20
TORSDOF 5
ENDMDL
MODEL 4
REMARK VINA RESULT:     -10.3      3.722     10.323
REMARK  Name = 11740318
REMARK  5 active torsions:
REMARK  status: ('A' for Active; 'I' for Inactive)
REMARK    1  A    between atoms: N_1  and  C_20
REMARK    2  A    between atoms: C_2  and  O_8
REMARK    3  A    between atoms: O_8  and  C_9
REMARK    4  A    between atoms: C_14  and  N_15
REMARK    5  A    between atoms: C_20  and  C_23
REMARK                            x       y       z     vdW  Elec       q    Type
REMARK                         _______ _______ _______ _____ _____    ______ ____
ROOT
ATOM      1  N   UNL     1      35.457 -19.895 -21.087  0.00  0.00    +0.392 N 
ATOM      2  C   UNL     1      35.172 -21.698 -19.414  0.00  0.00    +0.145 C 
ATOM      3  C   UNL     1      36.058 -20.556 -19.922  0.00  0.00    -0.032 C 
ATOM      4  C   UNL     1      33.764 -21.204 -19.098  0.00  0.00    +0.039 C 
ATOM      5  C   UNL     1      33.182 -20.452 -20.287  0.00  0.00    -0.019 C 
ATOM      6  C   UNL     1      34.131 -19.351 -20.765  0.00  0.00    -0.077 C 
ATOM      7  H   UNL     1      35.339 -20.596 -21.819  0.00  0.00    -0.079 HD
ENDROOT
BRANCH   2   8
ATOM      8  O   UNL     1      35.734 -22.253 -18.230  0.00  0.00    -0.481 OA
BRANCH   8   9
ATOM      9  C   UNL     1      34.856 -22.626 -17.248  0.00  0.00    +0.138 C 
ATOM     10  C   UNL     1      33.609 -23.134 -17.595  0.00  0.00    +0.038 C 
ATOM     11  C   UNL     1      35.219 -22.494 -15.912  0.00  0.00    +0.038 C 
ATOM     12  C   UNL     1      32.714 -23.515 -16.594  0.00  0.00    +0.018 C 
ATOM     13  C   UNL     1      34.325 -22.875 -14.911  0.00  0.00    +0.018 C 
ATOM     14  C   UNL     1      33.072 -23.385 -15.253  0.00  0.00    +0.057 C 
BRANCH  14  15
ATOM     15  N   UNL     1      32.186 -23.763 -14.261  0.00  0.00    -0.246 N 
ATOM     16  N   UNL     1      31.048 -23.713 -12.344  0.00  0.00    -0.224 NA
ATOM     17  C   UNL     1      31.370 -24.866 -14.269  0.00  0.00    +0.092 C 
ATOM     18  C   UNL     1      31.952 -23.105 -13.079  0.00  0.00    +0.172 C 
ATOM     19  C   UNL     1      30.681 -24.812 -13.081  0.00  0.00    +0.117 C 
ENDBRANCH  14  15
ENDBRANCH   8   9
ENDBRANCH   2   8
BRANCH   1  20
ATOM     20  C   UNL     1      36.337 -18.839 -21.587  0.00  0.00    -0.050 C 
BRANCH  20  23
ATOM     21  O   UNL     1      34.784 -14.560 -23.500  0.00  0.00    -0.435 OA
ATOM     22  O   UNL     1      33.873 -15.632 -25.456  0.00  0.00    -0.435 OA
ATOM     23  C   UNL     1      35.667 -18.007 -22.648  0.00  0.00    -0.040 C 
ATOM     24  C   UNL     1      35.587 -16.629 -22.481  0.00  0.00    +0.034 C 
ATOM     25  C   UNL     1      35.141 -18.639 -23.780  0.00  0.00    -0.003 C 
ATOM     26  C   UNL     1      34.964 -15.909 -23.480  0.00  0.00    +0.176 C 
ATOM     27  C   UNL     1      34.516 -17.887 -24.777  0.00  0.00    +0.040 C 
ATOM     28  C   UNL     1      34.443 -16.521 -24.597  0.00  0.00    +0.176 C 
ATOM     29  C   UNL     1      34.094 -14.392 -24.755  0.00  0.00    +0.429 C 
ENDBRANCH  20  23
ENDBRANCH   1  20
TORSDOF 5
ENDMDL
MODEL 5
REMARK VINA RESULT:     -10.2      7.108     11.205
REMARK  Name = 11740318
REMARK  5 active torsions:
REMARK  status: ('A' for Active; 'I' for Inactive)
REMARK    1  A    between atoms: N_1  and  C_20
REMARK    2  A    between atoms: C_2  and  O_8
REMARK    3  A    between atoms: O_8  and  C_9
REMARK    4  A    between atoms: C_14  and  N_15
REMARK    5  A    between atoms: C_20  and  C_23
REMARK                            x       y       z     vdW  Elec       q    Type
REMARK                         _______ _______ _______ _____ _____    ______ ____
ROOT
ATOM      1  N   UNL     1      36.518 -22.937 -14.098  0.00  0.00    +0.392 N 
ATOM      2  C   UNL     1      34.538 -23.657 -12.798  0.00  0.00    +0.145 C 
ATOM      3  C   UNL     1      35.330 -23.800 -14.101  0.00  0.00    -0.032 C 
ATOM      4  C   UNL     1      35.418 -23.941 -11.584  0.00  0.00    +0.039 C 
ATOM      5  C   UNL     1      36.683 -23.096 -11.633  0.00  0.00    -0.019 C 
ATOM      6  C   UNL     1      37.406 -23.258 -12.972  0.00  0.00    -0.077 C 
ATOM      7  H   UNL     1      36.204 -21.973 -13.985  0.00  0.00    -0.079 HD
ENDROOT
BRANCH   2   8
ATOM      8  O   UNL     1      33.450 -24.575 -12.793  0.00  0.00    -0.481 OA
BRANCH   8   9
ATOM      9  C   UNL     1      32.340 -24.219 -13.511  0.00  0.00    +0.138 C 
ATOM     10  C   UNL     1      32.293 -22.978 -14.136  0.00  0.00    +0.038 C 
ATOM     11  C   UNL     1      31.270 -25.102 -13.609  0.00  0.00    +0.038 C 
ATOM     12  C   UNL     1      31.161 -22.615 -14.869  0.00  0.00    +0.018 C 
ATOM     13  C   UNL     1      30.140 -24.740 -14.341  0.00  0.00    +0.018 C 
ATOM     14  C   UNL     1      30.086 -23.496 -14.971  0.00  0.00    +0.057 C 
BRANCH  14  15
ATOM     15  N   UNL     1      28.965 -23.138 -15.697  0.00  0.00    -0.246 N 
ATOM     16  N   UNL     1      27.471 -23.096 -17.351  0.00  0.00    -0.224 NA
ATOM     17  C   UNL     1      28.013 -22.220 -15.333  0.00  0.00    +0.092 C 
ATOM     18  C   UNL     1      28.589 -23.635 -16.921  0.00  0.00    +0.172 C 
ATOM     19  C   UNL     1      27.106 -22.213 -16.366  0.00  0.00    +0.117 C 
ENDBRANCH  14  15
ENDBRANCH   8   9
ENDBRANCH   2   8
BRANCH   1  20
ATOM     20  C   UNL     1      37.236 -23.051 -15.366  0.00  0.00    -0.050 C 
BRANCH  20  23
ATOM     21  O   UNL     1      36.644 -20.436 -19.513  0.00  0.00    -0.435 OA
ATOM     22  O   UNL     1      34.321 -21.047 -19.703  0.00  0.00    -0.435 OA
ATOM     23  C   UNL     1      36.422 -22.530 -16.521  0.00  0.00    -0.040 C 
ATOM     24  C   UNL     1      37.027 -21.703 -17.461  0.00  0.00    +0.034 C 
ATOM     25  C   UNL     1      35.073 -22.891 -16.622  0.00  0.00    -0.003 C 
ATOM     26  C   UNL     1      36.240 -21.251 -18.501  0.00  0.00    +0.176 C 
ATOM     27  C   UNL     1      34.299 -22.420 -17.685  0.00  0.00    +0.040 C 
ATOM     28  C   UNL     1      34.913 -21.600 -18.609  0.00  0.00    +0.176 C 
ATOM     29  C   UNL     1      35.424 -20.313 -20.272  0.00  0.00    +0.429 C 
ENDBRANCH  20  23
ENDBRANCH   1  20
TORSDOF 5
ENDMDL
MODEL 6
REMARK VINA RESULT:     -10.2      3.321     10.045
REMARK  Name = 11740318
REMARK  5 active torsions:
REMARK  status: ('A' for Active; 'I' for Inactive)
REMARK    1  A    between atoms: N_1  and  C_20
REMARK    2  A    between atoms: C_2  and  O_8
REMARK    3  A    between atoms: O_8  and  C_9
REMARK    4  A    between atoms: C_14  and  N_15
REMARK    5  A    between atoms: C_20  and  C_23
REMARK                            x       y       z     vdW  Elec       q    Type
REMARK                         _______ _______ _______ _____ _____    ______ ____
ROOT
ATOM      1  N   UNL     1      35.593 -18.555 -21.955  0.00  0.00    +0.392 N 
ATOM      2  C   UNL     1      35.631 -20.325 -20.223  0.00  0.00    +0.145 C 
ATOM      3  C   UNL     1      35.230 -19.946 -21.652  0.00  0.00    -0.032 C 
ATOM      4  C   UNL     1      37.119 -20.083 -19.986  0.00  0.00    +0.039 C 
ATOM      5  C   UNL     1      37.497 -18.661 -20.377  0.00  0.00    -0.019 C 
ATOM      6  C   UNL     1      37.038 -18.337 -21.800  0.00  0.00    -0.077 C 
ATOM      7  H   UNL     1      35.111 -17.953 -21.287  0.00  0.00    -0.079 HD
ENDROOT
BRANCH   2   8
ATOM      8  O   UNL     1      35.354 -21.702 -19.996  0.00  0.00    -0.481 OA
BRANCH   8   9
ATOM      9  C   UNL     1      34.823 -22.030 -18.777  0.00  0.00    +0.138 C 
ATOM     10  C   UNL     1      33.451 -22.224 -18.654  0.00  0.00    +0.038 C 
ATOM     11  C   UNL     1      35.659 -22.168 -17.674  0.00  0.00    +0.038 C 
ATOM     12  C   UNL     1      32.909 -22.559 -17.412  0.00  0.00    +0.018 C 
ATOM     13  C   UNL     1      35.117 -22.502 -16.434  0.00  0.00    +0.018 C 
ATOM     14  C   UNL     1      33.742 -22.698 -16.303  0.00  0.00    +0.057 C 
BRANCH  14  15
ATOM     15  N   UNL     1      33.205 -23.031 -15.072  0.00  0.00    -0.246 N 
ATOM     16  N   UNL     1      33.024 -23.954 -13.051  0.00  0.00    -0.224 NA
ATOM     17  C   UNL     1      31.996 -22.622 -14.570  0.00  0.00    +0.092 C 
ATOM     18  C   UNL     1      33.783 -23.830 -14.117  0.00  0.00    +0.172 C 
ATOM     19  C   UNL     1      31.909 -23.203 -13.327  0.00  0.00    +0.117 C 
ENDBRANCH  14  15
ENDBRANCH   8   9
ENDBRANCH   2   8
BRANCH   1  20
ATOM     20  C   UNL     1      35.162 -18.196 -23.305  0.00  0.00    -0.050 C 
BRANCH  20  23
ATOM     21  O   UNL     1      33.820 -14.167 -25.824  0.00  0.00    -0.435 OA
ATOM     22  O   UNL     1      34.135 -12.728 -23.917  0.00  0.00    -0.435 OA
ATOM     23  C   UNL     1      34.895 -16.720 -23.434  0.00  0.00    -0.040 C 
ATOM     24  C   UNL     1      34.468 -16.210 -24.655  0.00  0.00    +0.034 C 
ATOM     25  C   UNL     1      35.081 -15.893 -22.320  0.00  0.00    -0.003 C 
ATOM     26  C   UNL     1      34.237 -14.851 -24.724  0.00  0.00    +0.176 C 
ATOM     27  C   UNL     1      34.838 -14.521 -22.417  0.00  0.00    +0.040 C 
ATOM     28  C   UNL     1      34.417 -14.030 -23.635  0.00  0.00    +0.176 C 
ATOM     29  C   UNL     1      33.757 -12.823 -25.305  0.00  0.00    +0.429 C 
ENDBRANCH  20  23
ENDBRANCH   1  20
TORSDOF 5
ENDMDL
MODEL 7
REMARK VINA RESULT:      -9.8      4.336      8.457
REMARK  Name = 11740318
REMARK  5 active torsions:
REMARK  status: ('A' for Active; 'I' for Inactive)
REMARK    1  A    between atoms: N_1  and  C_20
REMARK    2  A    between atoms: C_2  and  O_8
REMARK    3  A    between atoms: O_8  and  C_9
REMARK    4  A    between atoms: C_14  and  N_15
REMARK    5  A    between atoms: C_20  and  C_23
REMARK                            x       y       z     vdW  Elec       q    Type
REMARK                         _______ _______ _______ _____ _____    ______ ____
ROOT
ATOM      1  N   UNL     1      33.327 -23.620 -15.004  0.00  0.00    +0.392 N 
ATOM      2  C   UNL     1      33.701 -22.661 -17.256  0.00  0.00    +0.145 C 
ATOM      3  C   UNL     1      34.081 -23.758 -16.257  0.00  0.00    -0.032 C 
ATOM      4  C   UNL     1      32.198 -22.655 -17.520  0.00  0.00    +0.039 C 
ATOM      5  C   UNL     1      31.426 -22.591 -16.209  0.00  0.00    -0.019 C 
ATOM      6  C   UNL     1      31.879 -23.689 -15.245  0.00  0.00    -0.077 C 
ATOM      7  H   UNL     1      33.537 -22.703 -14.611  0.00  0.00    -0.079 HD
ENDROOT
BRANCH   2   8
ATOM      8  O   UNL     1      34.376 -22.880 -18.490  0.00  0.00    -0.481 OA
BRANCH   8   9
ATOM      9  C   UNL     1      34.553 -21.788 -19.297  0.00  0.00    +0.138 C 
ATOM     10  C   UNL     1      33.444 -21.099 -19.777  0.00  0.00    +0.038 C 
ATOM     11  C   UNL     1      35.839 -21.378 -19.630  0.00  0.00    +0.038 C 
ATOM     12  C   UNL     1      33.624 -19.986 -20.600  0.00  0.00    +0.018 C 
ATOM     13  C   UNL     1      36.019 -20.266 -20.452  0.00  0.00    +0.018 C 
ATOM     14  C   UNL     1      34.911 -19.570 -20.937  0.00  0.00    +0.057 C 
BRANCH  14  15
ATOM     15  N   UNL     1      35.090 -18.467 -21.751  0.00  0.00    -0.246 N 
ATOM     16  N   UNL     1      35.478 -16.357 -22.357  0.00  0.00    -0.224 NA
ATOM     17  C   UNL     1      35.037 -18.444 -23.122  0.00  0.00    +0.092 C 
ATOM     18  C   UNL     1      35.358 -17.184 -21.343  0.00  0.00    +0.172 C 
ATOM     19  C   UNL     1      35.279 -17.137 -23.469  0.00  0.00    +0.117 C 
ENDBRANCH  14  15
ENDBRANCH   8   9
ENDBRANCH   2   8
BRANCH   1  20
ATOM     20  C   UNL     1      33.736 -24.646 -14.045  0.00  0.00    -0.050 C 
BRANCH  20  23
ATOM     21  O   UNL     1      37.304 -22.594 -11.316  0.00  0.00    -0.435 OA
ATOM     22  O   UNL     1      39.025 -23.912 -12.368  0.00  0.00    -0.435 OA
ATOM     23  C   UNL     1      35.170 -24.474 -13.618  0.00  0.00    -0.040 C 
ATOM     24  C   UNL     1      35.477 -23.556 -12.620  0.00  0.00    +0.034 C 
ATOM     25  C   UNL     1      36.162 -25.245 -14.235  0.00  0.00    -0.003 C 
ATOM     26  C   UNL     1      36.804 -23.435 -12.264  0.00  0.00    +0.176 C 
ATOM     27  C   UNL     1      37.498 -25.103 -13.855  0.00  0.00    +0.040 C 
ATOM     28  C   UNL     1      37.788 -24.187 -12.864  0.00  0.00    +0.176 C 
ATOM     29  C   UNL     1      38.710 -22.903 -11.387  0.00  0.00    +0.429 C 
ENDBRANCH  20  23
ENDBRANCH   1  20
TORSDOF 5
ENDMDL
MODEL 8
REMARK VINA RESULT:      -9.7      4.142     11.697
REMARK  Name = 11740318
REMARK  5 active torsions:
REMARK  status: ('A' for Active; 'I' for Inactive)
REMARK    1  A    between atoms: N_1  and  C_20
REMARK    2  A    between atoms: C_2  and  O_8
REMARK    3  A    between atoms: O_8  and  C_9
REMARK    4  A    between atoms: C_14  and  N_15
REMARK    5  A    between atoms: C_20  and  C_23
REMARK                            x       y       z     vdW  Elec       q    Type
REMARK                         _______ _______ _______ _____ _____    ______ ____
ROOT
ATOM      1  N   UNL     1      33.220  -9.266 -22.746  0.00  0.00    +0.392 N 
ATOM      2  C   UNL     1      34.236 -11.180 -23.942  0.00  0.00    +0.145 C 
ATOM      3  C   UNL     1      32.942 -10.514 -23.466  0.00  0.00    -0.032 C 
ATOM      4  C   UNL     1      35.063 -10.226 -24.799  0.00  0.00    +0.039 C 
ATOM      5  C   UNL     1      35.279  -8.906 -24.071  0.00  0.00    -0.019 C 
ATOM      6  C   UNL     1      33.951  -8.314 -23.593  0.00  0.00    -0.077 C 
ATOM      7  H   UNL     1      33.810  -9.491 -21.945  0.00  0.00    -0.079 HD
ENDROOT
BRANCH   2   8
ATOM      8  O   UNL     1      33.927 -12.333 -24.718  0.00  0.00    -0.481 OA
BRANCH   8   9
ATOM      9  C   UNL     1      34.238 -13.547 -24.168  0.00  0.00    +0.138 C 
ATOM     10  C   UNL     1      34.168 -14.696 -24.949  0.00  0.00    +0.038 C 
ATOM     11  C   UNL     1      34.621 -13.621 -22.833  0.00  0.00    +0.038 C 
ATOM     12  C   UNL     1      34.485 -15.934 -24.388  0.00  0.00    +0.018 C 
ATOM     13  C   UNL     1      34.937 -14.858 -22.272  0.00  0.00    +0.018 C 
ATOM     14  C   UNL     1      34.869 -16.015 -23.050  0.00  0.00    +0.057 C 
BRANCH  14  15
ATOM     15  N   UNL     1      35.184 -17.241 -22.493  0.00  0.00    -0.246 N 
ATOM     16  N   UNL     1      36.033 -18.737 -21.076  0.00  0.00    -0.224 NA
ATOM     17  C   UNL     1      34.833 -18.474 -22.980  0.00  0.00    +0.092 C 
ATOM     18  C   UNL     1      35.905 -17.457 -21.345  0.00  0.00    +0.172 C 
ATOM     19  C   UNL     1      35.367 -19.377 -22.091  0.00  0.00    +0.117 C 
ENDBRANCH  14  15
ENDBRANCH   8   9
ENDBRANCH   2   8
BRANCH   1  20
ATOM     20  C   UNL     1      31.977  -8.668 -22.258  0.00  0.00    -0.050 C 
BRANCH  20  23
ATOM     21  O   UNL     1      31.027  -4.273 -24.297  0.00  0.00    -0.435 OA
ATOM     22  O   UNL     1      32.098  -3.078 -22.500  0.00  0.00    -0.435 OA
ATOM     23  C   UNL     1      32.028  -7.163 -22.291  0.00  0.00    -0.040 C 
ATOM     24  C   UNL     1      31.453  -6.487 -23.360  0.00  0.00    +0.034 C 
ATOM     25  C   UNL     1      32.653  -6.479 -21.242  0.00  0.00    -0.003 C 
ATOM     26  C   UNL     1      31.525  -5.109 -23.346  0.00  0.00    +0.176 C 
ATOM     27  C   UNL     1      32.711  -5.084 -21.251  0.00  0.00    +0.040 C 
ATOM     28  C   UNL     1      32.137  -4.426 -22.319  0.00  0.00    +0.176 C 
ATOM     29  C   UNL     1      31.392  -2.988 -23.754  0.00  0.00    +0.429 C 
ENDBRANCH  20  23
ENDBRANCH   1  20
TORSDOF 5
ENDMDL
MODEL 9
REMARK VINA RESULT:      -9.7      2.293      3.796
REMARK  Name = 11740318
REMARK  5 active torsions:
REMARK  status: ('A' for Active; 'I' for Inactive)
REMARK    1  A    between atoms: N_1  and  C_20
REMARK    2  A    between atoms: C_2  and  O_8
REMARK    3  A    between atoms: O_8  and  C_9
REMARK    4  A    between atoms: C_14  and  N_15
REMARK    5  A    between atoms: C_20  and  C_23
REMARK                            x       y       z     vdW  Elec       q    Type
REMARK                         _______ _______ _______ _____ _____    ______ ____
ROOT
ATOM      1  N   UNL     1      35.458 -15.986 -22.754  0.00  0.00    +0.392 N 
ATOM      2  C   UNL     1      34.687 -13.681 -23.225  0.00  0.00    +0.145 C 
ATOM      3  C   UNL     1      34.733 -15.135 -23.705  0.00  0.00    -0.032 C 
ATOM      4  C   UNL     1      34.081 -13.581 -21.829  0.00  0.00    +0.039 C 
ATOM      5  C   UNL     1      34.791 -14.526 -20.870  0.00  0.00    -0.019 C 
ATOM      6  C   UNL     1      34.832 -15.952 -21.425  0.00  0.00    -0.077 C 
ATOM      7  H   UNL     1      36.406 -15.619 -22.664  0.00  0.00    -0.079 HD
ENDROOT
BRANCH   2   8
ATOM      8  O   UNL     1      33.897 -12.904 -24.118  0.00  0.00    -0.481 OA
BRANCH   8   9
ATOM      9  C   UNL     1      33.804 -11.564 -23.852  0.00  0.00    +0.138 C 
ATOM     10  C   UNL     1      34.757 -10.692 -24.365  0.00  0.00    +0.038 C 
ATOM     11  C   UNL     1      32.756 -11.088 -23.071  0.00  0.00    +0.038 C 
ATOM     12  C   UNL     1      34.662  -9.326 -24.094  0.00  0.00    +0.018 C 
ATOM     13  C   UNL     1      32.661  -9.723 -22.800  0.00  0.00    +0.018 C 
ATOM     14  C   UNL     1      33.614  -8.842 -23.312  0.00  0.00    +0.057 C 
BRANCH  14  15
ATOM     15  N   UNL     1      33.519  -7.489 -23.044  0.00  0.00    -0.246 N 
ATOM     16  N   UNL     1      33.673  -5.284 -23.336  0.00  0.00    -0.224 NA
ATOM     17  C   UNL     1      33.033  -6.914 -21.897  0.00  0.00    +0.092 C 
ATOM     18  C   UNL     1      33.890  -6.462 -23.876  0.00  0.00    +0.172 C 
ATOM     19  C   UNL     1      33.138  -5.559 -22.102  0.00  0.00    +0.117 C 
ENDBRANCH  14  15
ENDBRANCH   8   9
ENDBRANCH   2   8
BRANCH   1  20
ATOM     20  C   UNL     1      35.533 -17.360 -23.250  0.00  0.00    -0.050 C 
BRANCH  20  23
ATOM     21  O   UNL     1      34.160 -20.888 -20.081  0.00  0.00    -0.435 OA
ATOM     22  O   UNL     1      36.368 -21.055 -19.131  0.00  0.00    -0.435 OA
ATOM     23  C   UNL     1      35.793 -18.343 -22.140  0.00  0.00    -0.040 C 
ATOM     24  C   UNL     1      34.752 -19.143 -21.682  0.00  0.00    +0.034 C 
ATOM     25  C   UNL     1      37.080 -18.432 -21.595  0.00  0.00    -0.003 C 
ATOM     26  C   UNL     1      35.040 -20.028 -20.664  0.00  0.00    +0.176 C 
ATOM     27  C   UNL     1      37.344 -19.338 -20.565  0.00  0.00    +0.040 C 
ATOM     28  C   UNL     1      36.301 -20.123 -20.120  0.00  0.00    +0.176 C 
ATOM     29  C   UNL     1      35.009 -21.537 -19.112  0.00  0.00    +0.429 C 
ENDBRANCH  20  23
ENDBRANCH   1  20
TORSDOF 5
ENDMDL
