MODEL 1
REMARK VINA RESULT:     -12.1      0.000      0.000
REMARK  Name = 6914657
REMARK  8 active torsions:
REMARK  status: ('A' for Active; 'I' for Inactive)
REMARK    1  A    between atoms: C_1  and  C_4
REMARK    2  A    between atoms: C_1  and  C_16
REMARK    3  A    between atoms: C_9  and  C_10
REMARK    4  A    between atoms: C_16  and  C_17
REMARK    5  A    between atoms: C_17  and  C_18
REMARK    6  A    between atoms: C_18  and  N_20
REMARK    7  A    between atoms: C_21  and  C_23
REMARK    8  A    between atoms: C_24  and  C_26
REMARK                            x       y       z     vdW  Elec       q    Type
REMARK                         _______ _______ _______ _____ _____    ______ ____
ROOT
ATOM      1  C   UNL     1      32.330 -12.917 -20.852  0.00  0.00    +0.000 C 
ENDROOT
BRANCH   1   4
ATOM      2  O   UNL     1      33.290  -6.881 -19.667  0.00  0.00    -0.270 OA
ATOM      3  N   UNL     1      32.279  -8.623 -20.855  0.00  0.00    -0.276 N 
ATOM      4  C   UNL     1      31.814 -11.481 -20.894  0.00  0.00    +0.003 C 
ATOM      5  C   UNL     1      32.374 -10.734 -22.115  0.00  0.00    +0.022 C 
ATOM      6  C   UNL     1      32.173 -10.734 -19.599  0.00  0.00    +0.022 C 
ATOM      7  C   UNL     1      31.924  -9.275 -22.122  0.00  0.00    +0.094 C 
ATOM      8  C   UNL     1      31.736  -9.271 -19.662  0.00  0.00    +0.094 C 
ATOM      9  C   UNL     1      33.028  -7.451 -20.725  0.00  0.00    +0.249 C 
BRANCH   9  10
ATOM     10  C   UNL     1      33.568  -6.834 -21.943  0.00  0.00    +0.054 C 
ATOM     11  C   UNL     1      34.730  -7.342 -22.525  0.00  0.00    +0.005 C 
ATOM     12  C   UNL     1      32.921  -5.741 -22.518  0.00  0.00    +0.005 C 
ATOM     13  C   UNL     1      35.243  -6.757 -23.682  0.00  0.00    +0.000 C 
ATOM     14  C   UNL     1      33.434  -5.156 -23.676  0.00  0.00    +0.000 C 
ATOM     15  C   UNL     1      34.596  -5.664 -24.257  0.00  0.00    +0.000 C 
ENDBRANCH   9  10
ENDBRANCH   1   4
BRANCH   1  16
ATOM     16  C   UNL     1      33.195 -13.229 -22.070  0.00  0.00    +0.002 C 
BRANCH  16  17
ATOM     17  C   UNL     1      34.486 -13.938 -21.661  0.00  0.00    +0.021 C 
BRANCH  17  18
ATOM     18  C   UNL     1      34.984 -14.865 -22.764  0.00  0.00    +0.090 C 
BRANCH  18  20
ATOM     19  O   UNL     1      35.424 -17.218 -24.397  0.00  0.00    -0.270 OA
ATOM     20  N   UNL     1      35.015 -16.235 -22.329  0.00  0.00    -0.301 N 
ATOM     21  C   UNL     1      35.235 -17.304 -23.188  0.00  0.00    +0.246 C 
ATOM     22  H   UNL     1      34.875 -16.424 -21.373  0.00  0.00    +0.150 HD
BRANCH  21  23
ATOM     23  C   UNL     1      35.217 -18.612 -22.471  0.00  0.00    +0.058 C 
ATOM     24  C   UNL     1      34.574 -18.725 -21.301  0.00  0.00    +0.006 C 
BRANCH  24  26
ATOM     25  N   UNL     1      33.101 -21.646 -19.457  0.00  0.00    -0.242 NA
ATOM     26  C   UNL     1      34.484 -19.966 -20.512  0.00  0.00    +0.019 C 
ATOM     27  C   UNL     1      35.628 -20.628 -20.081  0.00  0.00    +0.003 C 
ATOM     28  C   UNL     1      33.255 -20.512 -20.177  0.00  0.00    +0.099 C 
ATOM     29  C   UNL     1      35.511 -21.797 -19.338  0.00  0.00    +0.021 C 
ATOM     30  C   UNL     1      34.237 -22.260 -19.055  0.00  0.00    +0.099 C 
ENDBRANCH  24  26
ENDBRANCH  21  23
ENDBRANCH  18  20
ENDBRANCH  17  18
ENDBRANCH  16  17
ENDBRANCH   1  16
TORSDOF 8
ENDMDL
MODEL 2
REMARK VINA RESULT:     -12.1      0.654      1.310
REMARK  Name = 6914657
REMARK  8 active torsions:
REMARK  status: ('A' for Active; 'I' for Inactive)
REMARK    1  A    between atoms: C_1  and  C_4
REMARK    2  A    between atoms: C_1  and  C_16
REMARK    3  A    between atoms: C_9  and  C_10
REMARK    4  A    between atoms: C_16  and  C_17
REMARK    5  A    between atoms: C_17  and  C_18
REMARK    6  A    between atoms: C_18  and  N_20
REMARK    7  A    between atoms: C_21  and  C_23
REMARK    8  A    between atoms: C_24  and  C_26
REMARK                            x       y       z     vdW  Elec       q    Type
REMARK                         _______ _______ _______ _____ _____    ______ ____
ROOT
ATOM      1  C   UNL     1      32.491 -13.014 -21.028  0.00  0.00    +0.000 C 
ENDROOT
BRANCH   1   4
ATOM      2  O   UNL     1      33.235  -6.997 -19.613  0.00  0.00    -0.270 OA
ATOM      3  N   UNL     1      32.273  -8.728 -20.856  0.00  0.00    -0.276 N 
ATOM      4  C   UNL     1      31.919 -11.599 -21.004  0.00  0.00    +0.003 C 
ATOM      5  C   UNL     1      32.430 -10.782 -22.202  0.00  0.00    +0.022 C 
ATOM      6  C   UNL     1      32.270 -10.890 -19.685  0.00  0.00    +0.022 C 
ATOM      7  C   UNL     1      31.923  -9.343 -22.143  0.00  0.00    +0.094 C 
ATOM      8  C   UNL     1      31.775  -9.445 -19.683  0.00  0.00    +0.094 C 
ATOM      9  C   UNL     1      32.978  -7.534 -20.689  0.00  0.00    +0.249 C 
BRANCH   9  10
ATOM     10  C   UNL     1      33.474  -6.848 -21.889  0.00  0.00    +0.054 C 
ATOM     11  C   UNL     1      32.788  -5.744 -22.396  0.00  0.00    +0.005 C 
ATOM     12  C   UNL     1      34.631  -7.300 -22.523  0.00  0.00    +0.005 C 
ATOM     13  C   UNL     1      33.259  -5.093 -23.535  0.00  0.00    +0.000 C 
ATOM     14  C   UNL     1      35.103  -6.649 -23.662  0.00  0.00    +0.000 C 
ATOM     15  C   UNL     1      34.416  -5.545 -24.169  0.00  0.00    +0.000 C 
ENDBRANCH   9  10
ENDBRANCH   1   4
BRANCH   1  16
ATOM     16  C   UNL     1      33.189 -13.306 -22.353  0.00  0.00    +0.002 C 
BRANCH  16  17
ATOM     17  C   UNL     1      34.604 -13.837 -22.125  0.00  0.00    +0.021 C 
BRANCH  17  18
ATOM     18  C   UNL     1      35.010 -14.820 -23.216  0.00  0.00    +0.090 C 
BRANCH  18  20
ATOM     19  O   UNL     1      35.040 -17.229 -24.827  0.00  0.00    -0.270 OA
ATOM     20  N   UNL     1      34.946 -16.180 -22.753  0.00  0.00    -0.301 N 
ATOM     21  C   UNL     1      34.967 -17.278 -23.603  0.00  0.00    +0.246 C 
ATOM     22  H   UNL     1      34.886 -16.340 -21.784  0.00  0.00    +0.150 HD
BRANCH  21  23
ATOM     23  C   UNL     1      34.890 -18.567 -22.857  0.00  0.00    +0.058 C 
ATOM     24  C   UNL     1      34.881 -18.564 -21.516  0.00  0.00    +0.006 C 
BRANCH  24  26
ATOM     25  N   UNL     1      35.939 -21.549 -19.498  0.00  0.00    -0.242 NA
ATOM     26  C   UNL     1      34.799 -19.773 -20.678  0.00  0.00    +0.019 C 
ATOM     27  C   UNL     1      33.570 -20.284 -20.274  0.00  0.00    +0.003 C 
ATOM     28  C   UNL     1      35.944 -20.436 -20.266  0.00  0.00    +0.099 C 
ATOM     29  C   UNL     1      33.524 -21.427 -19.484  0.00  0.00    +0.021 C 
ATOM     30  C   UNL     1      34.726 -22.016 -19.126  0.00  0.00    +0.099 C 
ENDBRANCH  24  26
ENDBRANCH  21  23
ENDBRANCH  18  20
ENDBRANCH  17  18
ENDBRANCH  16  17
ENDBRANCH   1  16
TORSDOF 8
ENDMDL
MODEL 3
REMARK VINA RESULT:     -11.0      4.193      7.675
REMARK  Name = 6914657
REMARK  8 active torsions:
REMARK  status: ('A' for Active; 'I' for Inactive)
REMARK    1  A    between atoms: C_1  and  C_4
REMARK    2  A    between atoms: C_1  and  C_16
REMARK    3  A    between atoms: C_9  and  C_10
REMARK    4  A    between atoms: C_16  and  C_17
REMARK    5  A    between atoms: C_17  and  C_18
REMARK    6  A    between atoms: C_18  and  N_20
REMARK    7  A    between atoms: C_21  and  C_23
REMARK    8  A    between atoms: C_24  and  C_26
REMARK                            x       y       z     vdW  Elec       q    Type
REMARK                         _______ _______ _______ _____ _____    ______ ____
ROOT
ATOM      1  C   UNL     1      35.435 -19.198 -21.230  0.00  0.00    +0.000 C 
ENDROOT
BRANCH   1   4
ATOM      2  O   UNL     1      32.941 -15.869 -25.863  0.00  0.00    -0.270 OA
ATOM      3  N   UNL     1      34.693 -16.409 -24.412  0.00  0.00    -0.276 N 
ATOM      4  C   UNL     1      35.636 -18.362 -22.492  0.00  0.00    +0.003 C 
ATOM      5  C   UNL     1      35.592 -16.860 -22.166  0.00  0.00    +0.022 C 
ATOM      6  C   UNL     1      34.579 -18.710 -23.553  0.00  0.00    +0.022 C 
ATOM      7  C   UNL     1      35.716 -16.018 -23.434  0.00  0.00    +0.094 C 
ATOM      8  C   UNL     1      34.718 -17.822 -24.788  0.00  0.00    +0.094 C 
ATOM      9  C   UNL     1      33.770 -15.550 -25.013  0.00  0.00    +0.249 C 
BRANCH   9  10
ATOM     10  C   UNL     1      33.765 -14.141 -24.602  0.00  0.00    +0.054 C 
ATOM     11  C   UNL     1      33.503 -13.803 -23.274  0.00  0.00    +0.005 C 
ATOM     12  C   UNL     1      34.024 -13.140 -25.537  0.00  0.00    +0.005 C 
ATOM     13  C   UNL     1      33.498 -12.465 -22.883  0.00  0.00    +0.000 C 
ATOM     14  C   UNL     1      34.020 -11.801 -25.146  0.00  0.00    +0.000 C 
ATOM     15  C   UNL     1      33.756 -11.463 -23.818  0.00  0.00    +0.000 C 
ENDBRANCH   9  10
ENDBRANCH   1   4
BRANCH   1  16
ATOM     16  C   UNL     1      36.760 -19.448 -20.516  0.00  0.00    +0.002 C 
BRANCH  16  17
ATOM     17  C   UNL     1      36.664 -20.657 -19.585  0.00  0.00    +0.021 C 
BRANCH  17  18
ATOM     18  C   UNL     1      35.448 -21.515 -19.914  0.00  0.00    +0.090 C 
BRANCH  18  20
ATOM     19  O   UNL     1      32.659 -21.574 -19.131  0.00  0.00    -0.270 OA
ATOM     20  N   UNL     1      34.886 -22.112 -18.733  0.00  0.00    -0.301 N 
ATOM     21  C   UNL     1      33.529 -22.092 -18.438  0.00  0.00    +0.246 C 
ATOM     22  H   UNL     1      35.496 -22.559 -18.102  0.00  0.00    +0.150 HD
BRANCH  21  23
ATOM     23  C   UNL     1      33.224 -22.785 -17.154  0.00  0.00    +0.058 C 
ATOM     24  C   UNL     1      31.976 -22.771 -16.666  0.00  0.00    +0.006 C 
BRANCH  24  26
ATOM     25  N   UNL     1      31.858 -23.709 -13.032  0.00  0.00    -0.242 NA
ATOM     26  C   UNL     1      31.559 -23.428 -15.415  0.00  0.00    +0.019 C 
ATOM     27  C   UNL     1      30.521 -24.353 -15.401  0.00  0.00    +0.003 C 
ATOM     28  C   UNL     1      32.190 -23.143 -14.214  0.00  0.00    +0.099 C 
ATOM     29  C   UNL     1      30.151 -24.957 -14.205  0.00  0.00    +0.021 C 
ATOM     30  C   UNL     1      30.844 -24.604 -13.059  0.00  0.00    +0.099 C 
ENDBRANCH  24  26
ENDBRANCH  21  23
ENDBRANCH  18  20
ENDBRANCH  17  18
ENDBRANCH  16  17
ENDBRANCH   1  16
TORSDOF 8
ENDMDL
MODEL 4
REMARK VINA RESULT:     -10.7      7.643     11.253
REMARK  Name = 6914657
REMARK  8 active torsions:
REMARK  status: ('A' for Active; 'I' for Inactive)
REMARK    1  A    between atoms: C_1  and  C_4
REMARK    2  A    between atoms: C_1  and  C_16
REMARK    3  A    between atoms: C_9  and  C_10
REMARK    4  A    between atoms: C_16  and  C_17
REMARK    5  A    between atoms: C_17  and  C_18
REMARK    6  A    between atoms: C_18  and  N_20
REMARK    7  A    between atoms: C_21  and  C_23
REMARK    8  A    between atoms: C_24  and  C_26
REMARK                            x       y       z     vdW  Elec       q    Type
REMARK                         _______ _______ _______ _____ _____    ______ ____
ROOT
ATOM      1  C   UNL     1      36.986 -21.694 -16.160  0.00  0.00    +0.000 C 
ENDROOT
BRANCH   1   4
ATOM      2  O   UNL     1      32.742 -20.309 -20.500  0.00  0.00    -0.270 OA
ATOM      3  N   UNL     1      34.830 -21.121 -19.831  0.00  0.00    -0.276 N 
ATOM      4  C   UNL     1      36.405 -21.956 -17.547  0.00  0.00    +0.003 C 
ATOM      5  C   UNL     1      36.931 -20.929 -18.564  0.00  0.00    +0.022 C 
ATOM      6  C   UNL     1      34.868 -21.931 -17.510  0.00  0.00    +0.022 C 
ATOM      7  C   UNL     1      36.295 -21.137 -19.936  0.00  0.00    +0.094 C 
ATOM      8  C   UNL     1      34.275 -22.108 -18.906  0.00  0.00    +0.094 C 
ATOM      9  C   UNL     1      33.971 -20.294 -20.558  0.00  0.00    +0.249 C 
BRANCH   9  10
ATOM     10  C   UNL     1      34.564 -19.306 -21.466  0.00  0.00    +0.054 C 
ATOM     11  C   UNL     1      35.254 -18.208 -20.950  0.00  0.00    +0.005 C 
ATOM     12  C   UNL     1      34.439 -19.463 -22.846  0.00  0.00    +0.005 C 
ATOM     13  C   UNL     1      35.818 -17.269 -21.813  0.00  0.00    +0.000 C 
ATOM     14  C   UNL     1      35.004 -18.524 -23.710  0.00  0.00    +0.000 C 
ATOM     15  C   UNL     1      35.693 -17.427 -23.193  0.00  0.00    +0.000 C 
ENDBRANCH   9  10
ENDBRANCH   1   4
BRANCH   1  16
ATOM     16  C   UNL     1      38.008 -22.762 -15.778  0.00  0.00    +0.002 C 
BRANCH  16  17
ATOM     17  C   UNL     1      37.394 -23.799 -14.838  0.00  0.00    +0.021 C 
BRANCH  17  18
ATOM     18  C   UNL     1      36.549 -23.136 -13.757  0.00  0.00    +0.090 C 
BRANCH  18  20
ATOM     19  O   UNL     1      34.643 -24.403 -11.980  0.00  0.00    -0.270 OA
ATOM     20  N   UNL     1      35.144 -23.337 -13.986  0.00  0.00    -0.301 N 
ATOM     21  C   UNL     1      34.303 -23.958 -13.072  0.00  0.00    +0.246 C 
ATOM     22  H   UNL     1      34.760 -23.018 -14.833  0.00  0.00    +0.150 HD
BRANCH  21  23
ATOM     23  C   UNL     1      32.897 -24.032 -13.564  0.00  0.00    +0.058 C 
ATOM     24  C   UNL     1      32.552 -23.411 -14.701  0.00  0.00    +0.006 C 
BRANCH  24  26
ATOM     25  N   UNL     1      29.601 -22.446 -16.812  0.00  0.00    -0.242 NA
ATOM     26  C   UNL     1      31.200 -23.424 -15.285  0.00  0.00    +0.019 C 
ATOM     27  C   UNL     1      30.261 -24.374 -14.898  0.00  0.00    +0.003 C 
ATOM     28  C   UNL     1      30.824 -22.491 -16.237  0.00  0.00    +0.099 C 
ATOM     29  C   UNL     1      28.992 -24.361 -15.467  0.00  0.00    +0.021 C 
ATOM     30  C   UNL     1      28.714 -23.385 -16.410  0.00  0.00    +0.099 C 
ENDBRANCH  24  26
ENDBRANCH  21  23
ENDBRANCH  18  20
ENDBRANCH  17  18
ENDBRANCH  16  17
ENDBRANCH   1  16
TORSDOF 8
ENDMDL
MODEL 5
REMARK VINA RESULT:     -10.7      6.376     14.521
REMARK  Name = 6914657
REMARK  8 active torsions:
REMARK  status: ('A' for Active; 'I' for Inactive)
REMARK    1  A    between atoms: C_1  and  C_4
REMARK    2  A    between atoms: C_1  and  C_16
REMARK    3  A    between atoms: C_9  and  C_10
REMARK    4  A    between atoms: C_16  and  C_17
REMARK    5  A    between atoms: C_17  and  C_18
REMARK    6  A    between atoms: C_18  and  N_20
REMARK    7  A    between atoms: C_21  and  C_23
REMARK    8  A    between atoms: C_24  and  C_26
REMARK                            x       y       z     vdW  Elec       q    Type
REMARK                         _______ _______ _______ _____ _____    ______ ____
ROOT
ATOM      1  C   UNL     1      32.736 -23.248 -15.456  0.00  0.00    +0.000 C 
ENDROOT
BRANCH   1   4
ATOM      2  O   UNL     1      36.869 -25.981 -11.685  0.00  0.00    -0.270 OA
ATOM      3  N   UNL     1      36.228 -24.312 -13.192  0.00  0.00    -0.276 N 
ATOM      4  C   UNL     1      33.970 -23.126 -14.565  0.00  0.00    +0.003 C 
ATOM      5  C   UNL     1      35.235 -23.569 -15.317  0.00  0.00    +0.022 C 
ATOM      6  C   UNL     1      33.798 -23.950 -13.278  0.00  0.00    +0.022 C 
ATOM      7  C   UNL     1      36.461 -23.523 -14.408  0.00  0.00    +0.094 C 
ATOM      8  C   UNL     1      35.058 -23.903 -12.416  0.00  0.00    +0.094 C 
ATOM      9  C   UNL     1      37.040 -25.348 -12.725  0.00  0.00    +0.249 C 
BRANCH   9  10
ATOM     10  C   UNL     1      38.199 -25.740 -13.537  0.00  0.00    +0.054 C 
ATOM     11  C   UNL     1      38.041 -26.647 -14.585  0.00  0.00    +0.005 C 
ATOM     12  C   UNL     1      39.457 -25.205 -13.262  0.00  0.00    +0.005 C 
ATOM     13  C   UNL     1      39.141 -27.020 -15.357  0.00  0.00    +0.000 C 
ATOM     14  C   UNL     1      40.558 -25.577 -14.034  0.00  0.00    +0.000 C 
ATOM     15  C   UNL     1      40.400 -26.485 -15.082  0.00  0.00    +0.000 C 
ENDBRANCH   9  10
ENDBRANCH   1   4
BRANCH   1  16
ATOM     16  C   UNL     1      33.126 -23.560 -16.899  0.00  0.00    +0.002 C 
BRANCH  16  17
ATOM     17  C   UNL     1      33.041 -22.309 -17.774  0.00  0.00    +0.021 C 
BRANCH  17  18
ATOM     18  C   UNL     1      34.264 -22.177 -18.673  0.00  0.00    +0.090 C 
BRANCH  18  20
ATOM     19  O   UNL     1      36.386 -20.731 -20.016  0.00  0.00    -0.270 OA
ATOM     20  N   UNL     1      34.125 -21.087 -19.599  0.00  0.00    -0.301 N 
ATOM     21  C   UNL     1      35.205 -20.450 -20.197  0.00  0.00    +0.246 C 
ATOM     22  H   UNL     1      33.218 -20.776 -19.820  0.00  0.00    +0.150 HD
BRANCH  21  23
ATOM     23  C   UNL     1      34.774 -19.356 -21.113  0.00  0.00    +0.058 C 
ATOM     24  C   UNL     1      35.677 -18.729 -21.879  0.00  0.00    +0.006 C 
BRANCH  24  26
ATOM     25  N   UNL     1      34.698 -16.971 -25.050  0.00  0.00    -0.242 NA
ATOM     26  C   UNL     1      35.364 -17.643 -22.824  0.00  0.00    +0.019 C 
ATOM     27  C   UNL     1      35.425 -16.310 -22.432  0.00  0.00    +0.003 C 
ATOM     28  C   UNL     1      34.998 -17.918 -24.132  0.00  0.00    +0.099 C 
ATOM     29  C   UNL     1      35.124 -15.308 -23.347  0.00  0.00    +0.021 C 
ATOM     30  C   UNL     1      34.770 -15.686 -24.632  0.00  0.00    +0.099 C 
ENDBRANCH  24  26
ENDBRANCH  21  23
ENDBRANCH  18  20
ENDBRANCH  17  18
ENDBRANCH  16  17
ENDBRANCH   1  16
TORSDOF 8
ENDMDL
MODEL 6
REMARK VINA RESULT:     -10.6      2.285      3.111
REMARK  Name = 6914657
REMARK  8 active torsions:
REMARK  status: ('A' for Active; 'I' for Inactive)
REMARK    1  A    between atoms: C_1  and  C_4
REMARK    2  A    between atoms: C_1  and  C_16
REMARK    3  A    between atoms: C_9  and  C_10
REMARK    4  A    between atoms: C_16  and  C_17
REMARK    5  A    between atoms: C_17  and  C_18
REMARK    6  A    between atoms: C_18  and  N_20
REMARK    7  A    between atoms: C_21  and  C_23
REMARK    8  A    between atoms: C_24  and  C_26
REMARK                            x       y       z     vdW  Elec       q    Type
REMARK                         _______ _______ _______ _____ _____    ______ ____
ROOT
ATOM      1  C   UNL     1      33.890 -12.062 -24.999  0.00  0.00    +0.000 C 
ENDROOT
BRANCH   1   4
ATOM      2  O   UNL     1      35.425  -6.031 -24.821  0.00  0.00    -0.270 OA
ATOM      3  N   UNL     1      34.718  -8.018 -23.812  0.00  0.00    -0.276 N 
ATOM      4  C   UNL     1      34.417 -10.873 -24.200  0.00  0.00    +0.003 C 
ATOM      5  C   UNL     1      33.258  -9.996 -23.697  0.00  0.00    +0.022 C 
ATOM      6  C   UNL     1      35.393 -10.036 -25.044  0.00  0.00    +0.022 C 
ATOM      7  C   UNL     1      33.780  -8.763 -22.963  0.00  0.00    +0.094 C 
ATOM      8  C   UNL     1      35.862  -8.797 -24.285  0.00  0.00    +0.094 C 
ATOM      9  C   UNL     1      34.617  -6.665 -24.145  0.00  0.00    +0.249 C 
BRANCH   9  10
ATOM     10  C   UNL     1      33.449  -5.918 -23.664  0.00  0.00    +0.054 C 
ATOM     11  C   UNL     1      33.301  -5.655 -22.302  0.00  0.00    +0.005 C 
ATOM     12  C   UNL     1      32.485  -5.472 -24.568  0.00  0.00    +0.005 C 
ATOM     13  C   UNL     1      32.191  -4.946 -21.845  0.00  0.00    +0.000 C 
ATOM     14  C   UNL     1      31.375  -4.762 -24.111  0.00  0.00    +0.000 C 
ATOM     15  C   UNL     1      31.227  -4.499 -22.749  0.00  0.00    +0.000 C 
ENDBRANCH   9  10
ENDBRANCH   1   4
BRANCH   1  16
ATOM     16  C   UNL     1      33.483 -13.210 -24.078  0.00  0.00    +0.002 C 
BRANCH  16  17
ATOM     17  C   UNL     1      33.929 -14.556 -24.647  0.00  0.00    +0.021 C 
BRANCH  17  18
ATOM     18  C   UNL     1      35.180 -15.070 -23.943  0.00  0.00    +0.090 C 
BRANCH  18  20
ATOM     19  O   UNL     1      34.911 -17.659 -25.215  0.00  0.00    -0.270 OA
ATOM     20  N   UNL     1      34.944 -16.335 -23.303  0.00  0.00    -0.301 N 
ATOM     21  C   UNL     1      34.830 -17.533 -23.998  0.00  0.00    +0.246 C 
ATOM     22  H   UNL     1      34.862 -16.353 -22.323  0.00  0.00    +0.150 HD
BRANCH  21  23
ATOM     23  C   UNL     1      34.589 -18.688 -23.087  0.00  0.00    +0.058 C 
ATOM     24  C   UNL     1      35.053 -18.658 -21.830  0.00  0.00    +0.006 C 
BRANCH  24  26
ATOM     25  N   UNL     1      35.855 -21.391 -19.383  0.00  0.00    -0.242 NA
ATOM     26  C   UNL     1      34.868 -19.735 -20.843  0.00  0.00    +0.019 C 
ATOM     27  C   UNL     1      33.596 -20.124 -20.434  0.00  0.00    +0.003 C 
ATOM     28  C   UNL     1      35.955 -20.394 -20.291  0.00  0.00    +0.099 C 
ATOM     29  C   UNL     1      33.453 -21.145 -19.502  0.00  0.00    +0.021 C 
ATOM     30  C   UNL     1      34.603 -21.741 -19.011  0.00  0.00    +0.099 C 
ENDBRANCH  24  26
ENDBRANCH  21  23
ENDBRANCH  18  20
ENDBRANCH  17  18
ENDBRANCH  16  17
ENDBRANCH   1  16
TORSDOF 8
ENDMDL
MODEL 7
REMARK VINA RESULT:     -10.6      6.646     13.284
REMARK  Name = 6914657
REMARK  8 active torsions:
REMARK  status: ('A' for Active; 'I' for Inactive)
REMARK    1  A    between atoms: C_1  and  C_4
REMARK    2  A    between atoms: C_1  and  C_16
REMARK    3  A    between atoms: C_9  and  C_10
REMARK    4  A    between atoms: C_16  and  C_17
REMARK    5  A    between atoms: C_17  and  C_18
REMARK    6  A    between atoms: C_18  and  N_20
REMARK    7  A    between atoms: C_21  and  C_23
REMARK    8  A    between atoms: C_24  and  C_26
REMARK                            x       y       z     vdW  Elec       q    Type
REMARK                         _______ _______ _______ _____ _____    ______ ____
ROOT
ATOM      1  C   UNL     1      36.599 -21.853 -15.427  0.00  0.00    +0.000 C 
ENDROOT
BRANCH   1   4
ATOM      2  O   UNL     1      31.787 -24.726 -12.715  0.00  0.00    -0.270 OA
ATOM      3  N   UNL     1      33.146 -24.256 -14.559  0.00  0.00    -0.276 N 
ATOM      4  C   UNL     1      35.640 -23.041 -15.390  0.00  0.00    +0.003 C 
ATOM      5  C   UNL     1      34.303 -22.686 -16.059  0.00  0.00    +0.022 C 
ATOM      6  C   UNL     1      35.406 -23.510 -13.944  0.00  0.00    +0.022 C 
ATOM      7  C   UNL     1      33.312 -23.844 -15.958  0.00  0.00    +0.094 C 
ATOM      8  C   UNL     1      34.385 -24.644 -13.886  0.00  0.00    +0.094 C 
ATOM      9  C   UNL     1      31.931 -24.341 -13.874  0.00  0.00    +0.249 C 
BRANCH   9  10
ATOM     10  C   UNL     1      30.709 -23.931 -14.577  0.00  0.00    +0.054 C 
ATOM     11  C   UNL     1      30.272 -22.608 -14.502  0.00  0.00    +0.005 C 
ATOM     12  C   UNL     1      29.985 -24.863 -15.319  0.00  0.00    +0.005 C 
ATOM     13  C   UNL     1      29.112 -22.218 -15.169  0.00  0.00    +0.000 C 
ATOM     14  C   UNL     1      28.824 -24.473 -15.987  0.00  0.00    +0.000 C 
ATOM     15  C   UNL     1      28.387 -23.150 -15.911  0.00  0.00    +0.000 C 
ENDBRANCH   9  10
ENDBRANCH   1   4
BRANCH   1  16
ATOM     16  C   UNL     1      37.567 -21.961 -16.601  0.00  0.00    +0.002 C 
BRANCH  16  17
ATOM     17  C   UNL     1      37.206 -20.967 -17.705  0.00  0.00    +0.021 C 
BRANCH  17  18
ATOM     18  C   UNL     1      36.335 -21.616 -18.773  0.00  0.00    +0.090 C 
BRANCH  18  20
ATOM     19  O   UNL     1      33.592 -21.194 -19.607  0.00  0.00    -0.270 OA
ATOM     20  N   UNL     1      35.851 -20.650 -19.721  0.00  0.00    -0.301 N 
ATOM     21  C   UNL     1      34.511 -20.518 -20.061  0.00  0.00    +0.246 C 
ATOM     22  H   UNL     1      36.503 -20.050 -20.150  0.00  0.00    +0.150 HD
BRANCH  21  23
ATOM     23  C   UNL     1      34.290 -19.438 -21.065  0.00  0.00    +0.058 C 
ATOM     24  C   UNL     1      35.327 -18.946 -21.758  0.00  0.00    +0.006 C 
BRANCH  24  26
ATOM     25  N   UNL     1      34.750 -17.264 -25.065  0.00  0.00    -0.242 NA
ATOM     26  C   UNL     1      35.225 -17.888 -22.777  0.00  0.00    +0.019 C 
ATOM     27  C   UNL     1      35.489 -16.560 -22.463  0.00  0.00    +0.003 C 
ATOM     28  C   UNL     1      34.861 -18.186 -24.081  0.00  0.00    +0.099 C 
ATOM     29  C   UNL     1      35.386 -15.584 -23.447  0.00  0.00    +0.021 C 
ATOM     30  C   UNL     1      35.016 -15.984 -24.721  0.00  0.00    +0.099 C 
ENDBRANCH  24  26
ENDBRANCH  21  23
ENDBRANCH  18  20
ENDBRANCH  17  18
ENDBRANCH  16  17
ENDBRANCH   1  16
TORSDOF 8
ENDMDL
MODEL 8
REMARK VINA RESULT:     -10.5      4.293      8.099
REMARK  Name = 6914657
REMARK  8 active torsions:
REMARK  status: ('A' for Active; 'I' for Inactive)
REMARK    1  A    between atoms: C_1  and  C_4
REMARK    2  A    between atoms: C_1  and  C_16
REMARK    3  A    between atoms: C_9  and  C_10
REMARK    4  A    between atoms: C_16  and  C_17
REMARK    5  A    between atoms: C_17  and  C_18
REMARK    6  A    between atoms: C_18  and  N_20
REMARK    7  A    between atoms: C_21  and  C_23
REMARK    8  A    between atoms: C_24  and  C_26
REMARK                            x       y       z     vdW  Elec       q    Type
REMARK                         _______ _______ _______ _____ _____    ______ ____
ROOT
ATOM      1  C   UNL     1      35.335 -19.549 -21.140  0.00  0.00    +0.000 C 
ENDROOT
BRANCH   1   4
ATOM      2  O   UNL     1      33.064 -16.106 -25.804  0.00  0.00    -0.270 OA
ATOM      3  N   UNL     1      34.751 -16.695 -24.297  0.00  0.00    -0.276 N 
ATOM      4  C   UNL     1      35.596 -18.694 -22.378  0.00  0.00    +0.003 C 
ATOM      5  C   UNL     1      35.557 -17.198 -22.027  0.00  0.00    +0.022 C 
ATOM      6  C   UNL     1      34.576 -19.009 -23.485  0.00  0.00    +0.022 C 
ATOM      7  C   UNL     1      35.741 -16.335 -23.273  0.00  0.00    +0.094 C 
ATOM      8  C   UNL     1      34.773 -18.101 -24.697  0.00  0.00    +0.094 C 
ATOM      9  C   UNL     1      33.864 -15.813 -24.917  0.00  0.00    +0.249 C 
BRANCH   9  10
ATOM     10  C   UNL     1      33.861 -14.412 -24.481  0.00  0.00    +0.054 C 
ATOM     11  C   UNL     1      33.804 -14.105 -23.121  0.00  0.00    +0.005 C 
ATOM     12  C   UNL     1      33.915 -13.386 -25.424  0.00  0.00    +0.005 C 
ATOM     13  C   UNL     1      33.801 -12.774 -22.705  0.00  0.00    +0.000 C 
ATOM     14  C   UNL     1      33.913 -12.054 -25.009  0.00  0.00    +0.000 C 
ATOM     15  C   UNL     1      33.855 -11.748 -23.649  0.00  0.00    +0.000 C 
ENDBRANCH   9  10
ENDBRANCH   1   4
BRANCH   1  16
ATOM     16  C   UNL     1      33.841 -19.785 -20.937  0.00  0.00    +0.002 C 
BRANCH  16  17
ATOM     17  C   UNL     1      33.585 -20.679 -19.724  0.00  0.00    +0.021 C 
BRANCH  17  18
ATOM     18  C   UNL     1      34.767 -21.603 -19.457  0.00  0.00    +0.090 C 
BRANCH  18  20
ATOM     19  O   UNL     1      33.227 -23.500 -17.899  0.00  0.00    -0.270 OA
ATOM     20  N   UNL     1      34.904 -21.896 -18.056  0.00  0.00    -0.301 N 
ATOM     21  C   UNL     1      34.117 -22.827 -17.390  0.00  0.00    +0.246 C 
ATOM     22  H   UNL     1      35.592 -21.412 -17.544  0.00  0.00    +0.150 HD
BRANCH  21  23
ATOM     23  C   UNL     1      34.473 -22.931 -15.945  0.00  0.00    +0.058 C 
ATOM     24  C   UNL     1      34.893 -24.100 -15.442  0.00  0.00    +0.006 C 
BRANCH  24  26
ATOM     25  N   UNL     1      34.720 -24.134 -11.691  0.00  0.00    -0.242 NA
ATOM     26  C   UNL     1      35.279 -24.315 -14.036  0.00  0.00    +0.019 C 
ATOM     27  C   UNL     1      36.507 -24.877 -13.707  0.00  0.00    +0.003 C 
ATOM     28  C   UNL     1      34.428 -23.965 -13.000  0.00  0.00    +0.099 C 
ATOM     29  C   UNL     1      36.844 -25.067 -12.372  0.00  0.00    +0.021 C 
ATOM     30  C   UNL     1      35.924 -24.683 -11.410  0.00  0.00    +0.099 C 
ENDBRANCH  24  26
ENDBRANCH  21  23
ENDBRANCH  18  20
ENDBRANCH  17  18
ENDBRANCH  16  17
ENDBRANCH   1  16
TORSDOF 8
ENDMDL
MODEL 9
REMARK VINA RESULT:     -10.0      1.452      1.971
REMARK  Name = 6914657
REMARK  8 active torsions:
REMARK  status: ('A' for Active; 'I' for Inactive)
REMARK    1  A    between atoms: C_1  and  C_4
REMARK    2  A    between atoms: C_1  and  C_16
REMARK    3  A    between atoms: C_9  and  C_10
REMARK    4  A    between atoms: C_16  and  C_17
REMARK    5  A    between atoms: C_17  and  C_18
REMARK    6  A    between atoms: C_18  and  N_20
REMARK    7  A    between atoms: C_21  and  C_23
REMARK    8  A    between atoms: C_24  and  C_26
REMARK                            x       y       z     vdW  Elec       q    Type
REMARK                         _______ _______ _______ _____ _____    ______ ____
ROOT
ATOM      1  C   UNL     1      33.883 -13.713 -22.160  0.00  0.00    +0.000 C 
ENDROOT
BRANCH   1   4
ATOM      2  O   UNL     1      32.025  -7.917 -20.849  0.00  0.00    -0.270 OA
ATOM      3  N   UNL     1      32.369  -9.696 -22.326  0.00  0.00    -0.276 N 
ATOM      4  C   UNL     1      32.992 -12.520 -22.499  0.00  0.00    +0.003 C 
ATOM      5  C   UNL     1      33.771 -11.467 -23.304  0.00  0.00    +0.022 C 
ATOM      6  C   UNL     1      32.410 -11.892 -21.221  0.00  0.00    +0.022 C 
ATOM      7  C   UNL     1      32.909 -10.237 -23.580  0.00  0.00    +0.094 C 
ATOM      8  C   UNL     1      31.584 -10.647 -21.540  0.00  0.00    +0.094 C 
ATOM      9  C   UNL     1      32.511  -8.381 -21.879  0.00  0.00    +0.249 C 
BRANCH   9  10
ATOM     10  C   UNL     1      33.317  -7.457 -22.687  0.00  0.00    +0.054 C 
ATOM     11  C   UNL     1      34.587  -7.837 -23.122  0.00  0.00    +0.005 C 
ATOM     12  C   UNL     1      32.814  -6.200 -23.020  0.00  0.00    +0.005 C 
ATOM     13  C   UNL     1      35.353  -6.961 -23.890  0.00  0.00    +0.000 C 
ATOM     14  C   UNL     1      33.579  -5.323 -23.788  0.00  0.00    +0.000 C 
ATOM     15  C   UNL     1      34.849  -5.703 -24.223  0.00  0.00    +0.000 C 
ENDBRANCH   9  10
ENDBRANCH   1   4
BRANCH   1  16
ATOM     16  C   UNL     1      34.190 -14.543 -23.403  0.00  0.00    +0.002 C 
BRANCH  16  17
ATOM     17  C   UNL     1      35.469 -15.360 -23.217  0.00  0.00    +0.021 C 
BRANCH  17  18
ATOM     18  C   UNL     1      35.238 -16.832 -23.533  0.00  0.00    +0.090 C 
BRANCH  18  20
ATOM     19  O   UNL     1      34.605 -19.636 -23.168  0.00  0.00    -0.270 OA
ATOM     20  N   UNL     1      35.617 -17.676 -22.432  0.00  0.00    -0.301 N 
ATOM     21  C   UNL     1      35.266 -19.017 -22.341  0.00  0.00    +0.246 C 
ATOM     22  H   UNL     1      36.152 -17.282 -21.706  0.00  0.00    +0.150 HD
BRANCH  21  23
ATOM     23  C   UNL     1      35.791 -19.650 -21.098  0.00  0.00    +0.058 C 
ATOM     24  C   UNL     1      35.001 -20.451 -20.370  0.00  0.00    +0.006 C 
BRANCH  24  26
ATOM     25  N   UNL     1      34.858 -22.627 -17.312  0.00  0.00    -0.242 NA
ATOM     26  C   UNL     1      35.415 -21.136 -19.133  0.00  0.00    +0.019 C 
ATOM     27  C   UNL     1      36.693 -20.966 -18.611  0.00  0.00    +0.003 C 
ATOM     28  C   UNL     1      34.543 -21.970 -18.451  0.00  0.00    +0.099 C 
ATOM     29  C   UNL     1      37.054 -21.624 -17.442  0.00  0.00    +0.021 C 
ATOM     30  C   UNL     1      36.109 -22.436 -16.836  0.00  0.00    +0.099 C 
ENDBRANCH  24  26
ENDBRANCH  21  23
ENDBRANCH  18  20
ENDBRANCH  17  18
ENDBRANCH  16  17
ENDBRANCH   1  16
TORSDOF 8
ENDMDL
