MODEL 1
REMARK VINA RESULT:     -11.4      0.000      0.000
REMARK  Name = 4261
REMARK  8 active torsions:
REMARK  status: ('A' for Active; 'I' for Inactive)
REMARK    1  A    between atoms: C_1  and  C_20
REMARK    2  A    between atoms: C_2  and  C_9
REMARK    3  A    between atoms: N_8  and  C_11
REMARK    4  A    between atoms: C_12  and  N_17
REMARK    5  A    between atoms: C_20  and  N_22
REMARK    6  A    between atoms: C_23  and  O_25
REMARK    7  A    between atoms: O_25  and  C_26
REMARK    8  A    between atoms: C_26  and  C_28
REMARK                            x       y       z     vdW  Elec       q    Type
REMARK                         _______ _______ _______ _____ _____    ______ ____
ROOT
ATOM      1  C   UNL     1      35.465 -19.877 -20.611  0.00  0.00    -0.002 C 
ATOM      2  C   UNL     1      34.113 -21.722 -19.028  0.00  0.00    +0.054 C 
ATOM      3  C   UNL     1      36.186 -20.764 -19.819  0.00  0.00    -0.002 C 
ATOM      4  C   UNL     1      34.075 -19.904 -20.619  0.00  0.00    -0.002 C 
ATOM      5  C   UNL     1      35.508 -21.689 -19.026  0.00  0.00    +0.004 C 
ATOM      6  C   UNL     1      33.397 -20.829 -19.826  0.00  0.00    +0.004 C 
ENDROOT
BRANCH   2   9
ATOM      7  O   UNL     1      33.656 -23.894 -18.335  0.00  0.00    -0.270 OA
ATOM      8  N   UNL     1      32.497 -22.148 -17.278  0.00  0.00    -0.279 N 
ATOM      9  C   UNL     1      33.407 -22.685 -18.200  0.00  0.00    +0.250 C 
ATOM     10  H   UNL     1      32.407 -21.168 -17.288  0.00  0.00    +0.155 HD
BRANCH   8  11
ATOM     11  C   UNL     1      31.693 -22.831 -16.333  0.00  0.00    +0.064 C 
ATOM     12  C   UNL     1      32.279 -23.552 -15.305  0.00  0.00    +0.055 C 
ATOM     13  C   UNL     1      30.315 -22.758 -16.467  0.00  0.00    +0.016 C 
ATOM     14  C   UNL     1      31.466 -24.217 -14.387  0.00  0.00    +0.015 C 
ATOM     15  C   UNL     1      29.503 -23.422 -15.549  0.00  0.00    +0.001 C 
ATOM     16  C   UNL     1      30.078 -24.152 -14.509  0.00  0.00    +0.001 C 
BRANCH  12  17
ATOM     17  N   UNL     1      33.683 -23.631 -15.162  0.00  0.00    -0.356 N 
ATOM     18  H   UNL     1      34.137 -24.500 -15.245  0.00  0.00    +0.142 HD
ATOM     19  H   UNL     1      34.205 -22.817 -14.979  0.00  0.00    +0.142 HD
ENDBRANCH  12  17
ENDBRANCH   8  11
ENDBRANCH   2   9
BRANCH   1  20
ATOM     20  C   UNL     1      36.194 -18.883 -21.466  0.00  0.00    +0.119 C 
BRANCH  20  22
ATOM     21  O   UNL     1      35.353 -16.914 -23.429  0.00  0.00    -0.226 OA
ATOM     22  N   UNL     1      35.742 -17.531 -21.227  0.00  0.00    -0.267 N 
ATOM     23  C   UNL     1      35.361 -16.664 -22.229  0.00  0.00    +0.402 C 
ATOM     24  H   UNL     1      35.704 -17.212 -20.297  0.00  0.00    +0.153 HD
BRANCH  23  25
ATOM     25  O   UNL     1      34.987 -15.467 -21.684  0.00  0.00    -0.430 OA
BRANCH  25  26
ATOM     26  C   UNL     1      34.818 -14.386 -22.608  0.00  0.00    +0.238 C 
BRANCH  26  28
ATOM     27  N   UNL     1      32.499 -11.427 -22.358  0.00  0.00    -0.243 NA
ATOM     28  C   UNL     1      33.792 -13.434 -22.066  0.00  0.00    +0.040 C 
ATOM     29  C   UNL     1      33.209 -13.657 -20.831  0.00  0.00    +0.002 C 
ATOM     30  C   UNL     1      33.415 -12.323 -22.788  0.00  0.00    +0.098 C 
ATOM     31  C   UNL     1      32.262 -12.759 -20.355  0.00  0.00    +0.020 C 
ATOM     32  C   UNL     1      31.944 -11.669 -21.149  0.00  0.00    +0.099 C 
ENDBRANCH  26  28
ENDBRANCH  25  26
ENDBRANCH  23  25
ENDBRANCH  20  22
ENDBRANCH   1  20
TORSDOF 8
ENDMDL
MODEL 2
REMARK VINA RESULT:     -11.2      1.567      2.459
REMARK  Name = 4261
REMARK  8 active torsions:
REMARK  status: ('A' for Active; 'I' for Inactive)
REMARK    1  A    between atoms: C_1  and  C_20
REMARK    2  A    between atoms: C_2  and  C_9
REMARK    3  A    between atoms: N_8  and  C_11
REMARK    4  A    between atoms: C_12  and  N_17
REMARK    5  A    between atoms: C_20  and  N_22
REMARK    6  A    between atoms: C_23  and  O_25
REMARK    7  A    between atoms: O_25  and  C_26
REMARK    8  A    between atoms: C_26  and  C_28
REMARK                            x       y       z     vdW  Elec       q    Type
REMARK                         _______ _______ _______ _____ _____    ______ ____
ROOT
ATOM      1  C   UNL     1      35.636 -20.074 -20.338  0.00  0.00    -0.002 C 
ATOM      2  C   UNL     1      34.295 -21.942 -18.773  0.00  0.00    +0.054 C 
ATOM      3  C   UNL     1      34.248 -20.146 -20.389  0.00  0.00    -0.002 C 
ATOM      4  C   UNL     1      36.360 -20.927 -19.512  0.00  0.00    -0.002 C 
ATOM      5  C   UNL     1      33.576 -21.082 -19.605  0.00  0.00    +0.004 C 
ATOM      6  C   UNL     1      35.688 -21.863 -18.728  0.00  0.00    +0.004 C 
ENDROOT
BRANCH   2   9
ATOM      7  O   UNL     1      33.580 -24.107 -18.316  0.00  0.00    -0.270 OA
ATOM      8  N   UNL     1      32.999 -22.424 -16.787  0.00  0.00    -0.279 N 
ATOM      9  C   UNL     1      33.595 -22.918 -17.957  0.00  0.00    +0.250 C 
ATOM     10  H   UNL     1      33.095 -21.456 -16.635  0.00  0.00    +0.155 HD
BRANCH   8  11
ATOM     11  C   UNL     1      32.280 -23.134 -15.796  0.00  0.00    +0.064 C 
ATOM     12  C   UNL     1      30.894 -23.154 -15.815  0.00  0.00    +0.055 C 
ATOM     13  C   UNL     1      32.996 -23.804 -14.816  0.00  0.00    +0.016 C 
ATOM     14  C   UNL     1      30.208 -23.861 -14.827  0.00  0.00    +0.015 C 
ATOM     15  C   UNL     1      32.310 -24.511 -13.829  0.00  0.00    +0.001 C 
ATOM     16  C   UNL     1      30.915 -24.539 -13.835  0.00  0.00    +0.001 C 
BRANCH  12  17
ATOM     17  N   UNL     1      30.157 -22.475 -16.811  0.00  0.00    -0.356 N 
ATOM     18  H   UNL     1      29.818 -22.968 -17.592  0.00  0.00    +0.142 HD
ATOM     19  H   UNL     1      29.984 -21.510 -16.723  0.00  0.00    +0.142 HD
ENDBRANCH  12  17
ENDBRANCH   8  11
ENDBRANCH   2   9
BRANCH   1  20
ATOM     20  C   UNL     1      36.359 -19.065 -21.182  0.00  0.00    +0.119 C 
BRANCH  20  22
ATOM     21  O   UNL     1      35.525 -19.712 -23.888  0.00  0.00    -0.226 OA
ATOM     22  N   UNL     1      35.456 -18.324 -22.031  0.00  0.00    -0.267 N 
ATOM     23  C   UNL     1      35.117 -18.711 -23.310  0.00  0.00    +0.402 C 
ATOM     24  H   UNL     1      35.059 -17.495 -21.676  0.00  0.00    +0.153 HD
BRANCH  23  25
ATOM     25  O   UNL     1      34.247 -17.805 -23.850  0.00  0.00    -0.430 OA
BRANCH  25  26
ATOM     26  C   UNL     1      34.819 -16.850 -24.752  0.00  0.00    +0.238 C 
BRANCH  26  28
ATOM     27  N   UNL     1      33.430 -13.350 -24.633  0.00  0.00    -0.243 NA
ATOM     28  C   UNL     1      34.511 -15.466 -24.260  0.00  0.00    +0.040 C 
ATOM     29  C   UNL     1      34.993 -15.030 -23.038  0.00  0.00    +0.002 C 
ATOM     30  C   UNL     1      33.744 -14.607 -25.017  0.00  0.00    +0.098 C 
ATOM     31  C   UNL     1      34.692 -13.743 -22.609  0.00  0.00    +0.020 C 
ATOM     32  C   UNL     1      33.914 -12.949 -23.436  0.00  0.00    +0.099 C 
ENDBRANCH  26  28
ENDBRANCH  25  26
ENDBRANCH  23  25
ENDBRANCH  20  22
ENDBRANCH   1  20
TORSDOF 8
ENDMDL
MODEL 3
REMARK VINA RESULT:     -11.1      1.355      1.776
REMARK  Name = 4261
REMARK  8 active torsions:
REMARK  status: ('A' for Active; 'I' for Inactive)
REMARK    1  A    between atoms: C_1  and  C_20
REMARK    2  A    between atoms: C_2  and  C_9
REMARK    3  A    between atoms: N_8  and  C_11
REMARK    4  A    between atoms: C_12  and  N_17
REMARK    5  A    between atoms: C_20  and  N_22
REMARK    6  A    between atoms: C_23  and  O_25
REMARK    7  A    between atoms: O_25  and  C_26
REMARK    8  A    between atoms: C_26  and  C_28
REMARK                            x       y       z     vdW  Elec       q    Type
REMARK                         _______ _______ _______ _____ _____    ______ ____
ROOT
ATOM      1  C   UNL     1      35.584 -19.981 -20.471  0.00  0.00    -0.002 C 
ATOM      2  C   UNL     1      34.123 -21.785 -18.939  0.00  0.00    +0.054 C 
ATOM      3  C   UNL     1      36.250 -20.893 -19.660  0.00  0.00    -0.002 C 
ATOM      4  C   UNL     1      34.195 -19.962 -20.523  0.00  0.00    -0.002 C 
ATOM      5  C   UNL     1      35.518 -21.798 -18.892  0.00  0.00    +0.004 C 
ATOM      6  C   UNL     1      33.462 -20.867 -19.756  0.00  0.00    +0.004 C 
ENDROOT
BRANCH   2   9
ATOM      7  O   UNL     1      33.571 -23.943 -18.271  0.00  0.00    -0.270 OA
ATOM      8  N   UNL     1      32.442 -22.163 -17.240  0.00  0.00    -0.279 N 
ATOM      9  C   UNL     1      33.360 -22.727 -18.138  0.00  0.00    +0.250 C 
ATOM     10  H   UNL     1      32.385 -21.181 -17.247  0.00  0.00    +0.155 HD
BRANCH   8  11
ATOM     11  C   UNL     1      31.587 -22.822 -16.324  0.00  0.00    +0.064 C 
ATOM     12  C   UNL     1      32.116 -23.558 -15.276  0.00  0.00    +0.055 C 
ATOM     13  C   UNL     1      30.217 -22.710 -16.505  0.00  0.00    +0.016 C 
ATOM     14  C   UNL     1      31.253 -24.199 -14.386  0.00  0.00    +0.015 C 
ATOM     15  C   UNL     1      29.355 -23.351 -15.615  0.00  0.00    +0.001 C 
ATOM     16  C   UNL     1      29.873 -24.095 -14.556  0.00  0.00    +0.001 C 
BRANCH  12  17
ATOM     17  N   UNL     1      33.511 -23.676 -15.084  0.00  0.00    -0.356 N 
ATOM     18  H   UNL     1      34.109 -23.759 -15.862  0.00  0.00    +0.142 HD
ATOM     19  H   UNL     1      33.885 -23.674 -14.174  0.00  0.00    +0.142 HD
ENDBRANCH  12  17
ENDBRANCH   8  11
ENDBRANCH   2   9
BRANCH   1  20
ATOM     20  C   UNL     1      36.372 -19.009 -21.298  0.00  0.00    +0.119 C 
BRANCH  20  22
ATOM     21  O   UNL     1      35.411 -19.663 -23.960  0.00  0.00    -0.226 OA
ATOM     22  N   UNL     1      35.521 -18.213 -22.153  0.00  0.00    -0.267 N 
ATOM     23  C   UNL     1      35.115 -18.609 -23.409  0.00  0.00    +0.402 C 
ATOM     24  H   UNL     1      35.215 -17.339 -21.819  0.00  0.00    +0.153 HD
BRANCH  23  25
ATOM     25  O   UNL     1      34.321 -17.643 -23.962  0.00  0.00    -0.430 OA
BRANCH  25  26
ATOM     26  C   UNL     1      35.004 -16.610 -24.684  0.00  0.00    +0.238 C 
BRANCH  26  28
ATOM     27  N   UNL     1      33.426 -13.194 -24.490  0.00  0.00    -0.243 NA
ATOM     28  C   UNL     1      34.583 -15.275 -24.143  0.00  0.00    +0.040 C 
ATOM     29  C   UNL     1      34.937 -14.890 -22.862  0.00  0.00    +0.002 C 
ATOM     30  C   UNL     1      33.837 -14.410 -24.914  0.00  0.00    +0.098 C 
ATOM     31  C   UNL     1      34.534 -13.648 -22.390  0.00  0.00    +0.020 C 
ATOM     32  C   UNL     1      33.786 -12.843 -23.234  0.00  0.00    +0.099 C 
ENDBRANCH  26  28
ENDBRANCH  25  26
ENDBRANCH  23  25
ENDBRANCH  20  22
ENDBRANCH   1  20
TORSDOF 8
ENDMDL
MODEL 4
REMARK VINA RESULT:     -11.0      3.068     11.662
REMARK  Name = 4261
REMARK  8 active torsions:
REMARK  status: ('A' for Active; 'I' for Inactive)
REMARK    1  A    between atoms: C_1  and  C_20
REMARK    2  A    between atoms: C_2  and  C_9
REMARK    3  A    between atoms: N_8  and  C_11
REMARK    4  A    between atoms: C_12  and  N_17
REMARK    5  A    between atoms: C_20  and  N_22
REMARK    6  A    between atoms: C_23  and  O_25
REMARK    7  A    between atoms: O_25  and  C_26
REMARK    8  A    between atoms: C_26  and  C_28
REMARK                            x       y       z     vdW  Elec       q    Type
REMARK                         _______ _______ _______ _____ _____    ______ ____
ROOT
ATOM      1  C   UNL     1      34.351 -13.858 -22.924  0.00  0.00    -0.002 C 
ATOM      2  C   UNL     1      32.866 -11.607 -22.245  0.00  0.00    +0.054 C 
ATOM      3  C   UNL     1      33.624 -13.845 -21.739  0.00  0.00    -0.002 C 
ATOM      4  C   UNL     1      34.342 -12.757 -23.773  0.00  0.00    -0.002 C 
ATOM      5  C   UNL     1      32.880 -12.716 -21.398  0.00  0.00    +0.004 C 
ATOM      6  C   UNL     1      33.598 -11.628 -23.433  0.00  0.00    +0.004 C 
ENDROOT
BRANCH   2   9
ATOM      7  O   UNL     1      30.975 -10.578 -21.366  0.00  0.00    -0.270 OA
ATOM      8  N   UNL     1      32.700  -9.194 -22.151  0.00  0.00    -0.279 N 
ATOM      9  C   UNL     1      32.092 -10.430 -21.889  0.00  0.00    +0.250 C 
ATOM     10  H   UNL     1      33.590  -9.236 -22.570  0.00  0.00    +0.155 HD
BRANCH   8  11
ATOM     11  C   UNL     1      32.203  -7.894 -21.892  0.00  0.00    +0.064 C 
ATOM     12  C   UNL     1      32.430  -7.288 -20.667  0.00  0.00    +0.055 C 
ATOM     13  C   UNL     1      31.489  -7.252 -22.892  0.00  0.00    +0.016 C 
ATOM     14  C   UNL     1      31.930  -6.006 -20.435  0.00  0.00    +0.015 C 
ATOM     15  C   UNL     1      30.989  -5.970 -22.660  0.00  0.00    +0.001 C 
ATOM     16  C   UNL     1      31.210  -5.348 -21.431  0.00  0.00    +0.001 C 
BRANCH  12  17
ATOM     17  N   UNL     1      33.158  -7.936 -19.644  0.00  0.00    -0.356 N 
ATOM     18  H   UNL     1      33.138  -7.580 -18.726  0.00  0.00    +0.142 HD
ATOM     19  H   UNL     1      33.683  -8.742 -19.848  0.00  0.00    +0.142 HD
ENDBRANCH  12  17
ENDBRANCH   8  11
ENDBRANCH   2   9
BRANCH   1  20
ATOM     20  C   UNL     1      35.151 -15.073 -23.292  0.00  0.00    +0.119 C 
BRANCH  20  22
ATOM     21  O   UNL     1      35.926 -17.871 -23.392  0.00  0.00    -0.226 OA
ATOM     22  N   UNL     1      35.259 -16.003 -22.190  0.00  0.00    -0.267 N 
ATOM     23  C   UNL     1      35.637 -17.320 -22.335  0.00  0.00    +0.402 C 
ATOM     24  H   UNL     1      35.052 -15.675 -21.285  0.00  0.00    +0.153 HD
BRANCH  23  25
ATOM     25  O   UNL     1      35.644 -17.934 -21.114  0.00  0.00    -0.430 OA
BRANCH  25  26
ATOM     26  C   UNL     1      36.293 -19.210 -21.060  0.00  0.00    +0.238 C 
BRANCH  26  28
ATOM     27  N   UNL     1      35.204 -22.116 -18.923  0.00  0.00    -0.243 NA
ATOM     28  C   UNL     1      35.405 -20.181 -20.338  0.00  0.00    +0.040 C 
ATOM     29  C   UNL     1      34.028 -20.060 -20.406  0.00  0.00    +0.002 C 
ATOM     30  C   UNL     1      35.946 -21.208 -19.596  0.00  0.00    +0.098 C 
ATOM     31  C   UNL     1      33.232 -20.974 -19.727  0.00  0.00    +0.020 C 
ATOM     32  C   UNL     1      33.862 -21.975 -19.006  0.00  0.00    +0.099 C 
ENDBRANCH  26  28
ENDBRANCH  25  26
ENDBRANCH  23  25
ENDBRANCH  20  22
ENDBRANCH   1  20
TORSDOF 8
ENDMDL
MODEL 5
REMARK VINA RESULT:     -10.8      3.161      9.854
REMARK  Name = 4261
REMARK  8 active torsions:
REMARK  status: ('A' for Active; 'I' for Inactive)
REMARK    1  A    between atoms: C_1  and  C_20
REMARK    2  A    between atoms: C_2  and  C_9
REMARK    3  A    between atoms: N_8  and  C_11
REMARK    4  A    between atoms: C_12  and  N_17
REMARK    5  A    between atoms: C_20  and  N_22
REMARK    6  A    between atoms: C_23  and  O_25
REMARK    7  A    between atoms: O_25  and  C_26
REMARK    8  A    between atoms: C_26  and  C_28
REMARK                            x       y       z     vdW  Elec       q    Type
REMARK                         _______ _______ _______ _____ _____    ______ ____
ROOT
ATOM      1  C   UNL     1      34.613 -22.637 -17.156  0.00  0.00    -0.002 C 
ATOM      2  C   UNL     1      34.118 -21.062 -19.394  0.00  0.00    +0.054 C 
ATOM      3  C   UNL     1      33.304 -22.442 -17.585  0.00  0.00    -0.002 C 
ATOM      4  C   UNL     1      35.676 -22.052 -17.835  0.00  0.00    -0.002 C 
ATOM      5  C   UNL     1      33.057 -21.652 -18.707  0.00  0.00    +0.004 C 
ATOM      6  C   UNL     1      35.428 -21.263 -18.957  0.00  0.00    +0.004 C 
ENDROOT
BRANCH   2   9
ATOM      7  O   UNL     1      32.689 -20.091 -20.951  0.00  0.00    -0.270 OA
ATOM      8  N   UNL     1      34.984 -19.642 -21.153  0.00  0.00    -0.279 N 
ATOM      9  C   UNL     1      33.859 -20.237 -20.562  0.00  0.00    +0.250 C 
ATOM     10  H   UNL     1      35.849 -19.852 -20.732  0.00  0.00    +0.155 HD
BRANCH   8  11
ATOM     11  C   UNL     1      35.038 -18.779 -22.273  0.00  0.00    +0.064 C 
ATOM     12  C   UNL     1      35.306 -17.429 -22.106  0.00  0.00    +0.055 C 
ATOM     13  C   UNL     1      34.817 -19.319 -23.531  0.00  0.00    +0.016 C 
ATOM     14  C   UNL     1      35.354 -16.598 -23.226  0.00  0.00    +0.015 C 
ATOM     15  C   UNL     1      34.865 -18.488 -24.650  0.00  0.00    +0.001 C 
ATOM     16  C   UNL     1      35.133 -17.127 -24.497  0.00  0.00    +0.001 C 
BRANCH  12  17
ATOM     17  N   UNL     1      35.533 -16.872 -20.827  0.00  0.00    -0.356 N 
ATOM     18  H   UNL     1      34.972 -17.144 -20.066  0.00  0.00    +0.142 HD
ATOM     19  H   UNL     1      36.252 -16.213 -20.699  0.00  0.00    +0.142 HD
ENDBRANCH  12  17
ENDBRANCH   8  11
ENDBRANCH   2   9
BRANCH   1  20
ATOM     20  C   UNL     1      34.880 -23.488 -15.949  0.00  0.00    +0.119 C 
BRANCH  20  22
ATOM     21  O   UNL     1      34.814 -24.215 -13.138  0.00  0.00    -0.226 OA
ATOM     22  N   UNL     1      33.726 -23.575 -15.083  0.00  0.00    -0.267 N 
ATOM     23  C   UNL     1      33.793 -23.931 -13.753  0.00  0.00    +0.402 C 
ATOM     24  H   UNL     1      32.842 -23.369 -15.465  0.00  0.00    +0.153 HD
BRANCH  23  25
ATOM     25  O   UNL     1      32.539 -23.921 -13.211  0.00  0.00    -0.430 OA
BRANCH  25  26
ATOM     26  C   UNL     1      31.620 -24.883 -13.743  0.00  0.00    +0.238 C 
BRANCH  26  28
ATOM     27  N   UNL     1      29.344 -22.109 -14.896  0.00  0.00    -0.243 NA
ATOM     28  C   UNL     1      30.528 -24.162 -14.478  0.00  0.00    +0.040 C 
ATOM     29  C   UNL     1      29.722 -24.836 -15.379  0.00  0.00    +0.002 C 
ATOM     30  C   UNL     1      30.310 -22.818 -14.268  0.00  0.00    +0.098 C 
ATOM     31  C   UNL     1      28.719 -24.142 -16.045  0.00  0.00    +0.020 C 
ATOM     32  C   UNL     1      28.572 -22.792 -15.771  0.00  0.00    +0.099 C 
ENDBRANCH  26  28
ENDBRANCH  25  26
ENDBRANCH  23  25
ENDBRANCH  20  22
ENDBRANCH   1  20
TORSDOF 8
ENDMDL
MODEL 6
REMARK VINA RESULT:     -10.5      2.818     11.425
REMARK  Name = 4261
REMARK  8 active torsions:
REMARK  status: ('A' for Active; 'I' for Inactive)
REMARK    1  A    between atoms: C_1  and  C_20
REMARK    2  A    between atoms: C_2  and  C_9
REMARK    3  A    between atoms: N_8  and  C_11
REMARK    4  A    between atoms: C_12  and  N_17
REMARK    5  A    between atoms: C_20  and  N_22
REMARK    6  A    between atoms: C_23  and  O_25
REMARK    7  A    between atoms: O_25  and  C_26
REMARK    8  A    between atoms: C_26  and  C_28
REMARK                            x       y       z     vdW  Elec       q    Type
REMARK                         _______ _______ _______ _____ _____    ______ ____
ROOT
ATOM      1  C   UNL     1      34.613 -15.965 -24.167  0.00  0.00    -0.002 C 
ATOM      2  C   UNL     1      33.913 -13.363 -23.480  0.00  0.00    +0.054 C 
ATOM      3  C   UNL     1      33.795 -15.226 -25.015  0.00  0.00    -0.002 C 
ATOM      4  C   UNL     1      35.084 -15.416 -22.980  0.00  0.00    -0.002 C 
ATOM      5  C   UNL     1      33.444 -13.921 -24.670  0.00  0.00    +0.004 C 
ATOM      6  C   UNL     1      34.734 -14.112 -22.635  0.00  0.00    +0.004 C 
ENDROOT
BRANCH   2   9
ATOM      7  O   UNL     1      32.779 -11.819 -22.162  0.00  0.00    -0.270 OA
ATOM      8  N   UNL     1      34.127 -10.988 -23.894  0.00  0.00    -0.279 N 
ATOM      9  C   UNL     1      33.546 -12.004 -23.120  0.00  0.00    +0.250 C 
ATOM     10  H   UNL     1      34.716 -11.290 -24.622  0.00  0.00    +0.155 HD
BRANCH   8  11
ATOM     11  C   UNL     1      33.977  -9.586 -23.764  0.00  0.00    +0.064 C 
ATOM     12  C   UNL     1      35.040  -8.740 -24.035  0.00  0.00    +0.055 C 
ATOM     13  C   UNL     1      32.746  -9.091 -23.362  0.00  0.00    +0.016 C 
ATOM     14  C   UNL     1      34.868  -7.362 -23.899  0.00  0.00    +0.015 C 
ATOM     15  C   UNL     1      32.574  -7.713 -23.227  0.00  0.00    +0.001 C 
ATOM     16  C   UNL     1      33.635  -6.849 -23.495  0.00  0.00    +0.001 C 
BRANCH  12  17
ATOM     17  N   UNL     1      36.297  -9.237 -24.447  0.00  0.00    -0.356 N 
ATOM     18  H   UNL     1      36.665 -10.048 -24.028  0.00  0.00    +0.142 HD
ATOM     19  H   UNL     1      36.803  -8.773 -25.151  0.00  0.00    +0.142 HD
ENDBRANCH  12  17
ENDBRANCH   8  11
ENDBRANCH   2   9
BRANCH   1  20
ATOM     20  C   UNL     1      34.992 -17.369 -24.539  0.00  0.00    +0.119 C 
BRANCH  20  22
ATOM     21  O   UNL     1      36.802 -18.535 -22.590  0.00  0.00    -0.226 OA
ATOM     22  N   UNL     1      34.676 -18.310 -23.489  0.00  0.00    -0.267 N 
ATOM     23  C   UNL     1      35.608 -18.811 -22.605  0.00  0.00    +0.402 C 
ATOM     24  H   UNL     1      33.742 -18.609 -23.399  0.00  0.00    +0.153 HD
BRANCH  23  25
ATOM     25  O   UNL     1      35.001 -19.674 -21.736  0.00  0.00    -0.430 OA
BRANCH  25  26
ATOM     26  C   UNL     1      35.797 -20.105 -20.626  0.00  0.00    +0.238 C 
BRANCH  26  28
ATOM     27  N   UNL     1      32.740 -21.603 -19.010  0.00  0.00    -0.243 NA
ATOM     28  C   UNL     1      34.940 -20.913 -19.694  0.00  0.00    +0.040 C 
ATOM     29  C   UNL     1      35.516 -21.683 -18.699  0.00  0.00    +0.002 C 
ATOM     30  C   UNL     1      33.568 -20.900 -19.815  0.00  0.00    +0.098 C 
ATOM     31  C   UNL     1      34.698 -22.419 -17.851  0.00  0.00    +0.020 C 
ATOM     32  C   UNL     1      33.328 -22.347 -18.046  0.00  0.00    +0.099 C 
ENDBRANCH  26  28
ENDBRANCH  25  26
ENDBRANCH  23  25
ENDBRANCH  20  22
ENDBRANCH   1  20
TORSDOF 8
ENDMDL
MODEL 7
REMARK VINA RESULT:     -10.5      3.547      6.027
REMARK  Name = 4261
REMARK  8 active torsions:
REMARK  status: ('A' for Active; 'I' for Inactive)
REMARK    1  A    between atoms: C_1  and  C_20
REMARK    2  A    between atoms: C_2  and  C_9
REMARK    3  A    between atoms: N_8  and  C_11
REMARK    4  A    between atoms: C_12  and  N_17
REMARK    5  A    between atoms: C_20  and  N_22
REMARK    6  A    between atoms: C_23  and  O_25
REMARK    7  A    between atoms: O_25  and  C_26
REMARK    8  A    between atoms: C_26  and  C_28
REMARK                            x       y       z     vdW  Elec       q    Type
REMARK                         _______ _______ _______ _____ _____    ______ ____
ROOT
ATOM      1  C   UNL     1      34.262 -14.664 -24.337  0.00  0.00    -0.002 C 
ATOM      2  C   UNL     1      35.179 -16.933 -23.018  0.00  0.00    +0.054 C 
ATOM      3  C   UNL     1      34.799 -14.547 -23.059  0.00  0.00    -0.002 C 
ATOM      4  C   UNL     1      34.179 -15.903 -24.961  0.00  0.00    -0.002 C 
ATOM      5  C   UNL     1      35.259 -15.686 -22.398  0.00  0.00    +0.004 C 
ATOM      6  C   UNL     1      34.639 -17.041 -24.300  0.00  0.00    +0.004 C 
ENDROOT
BRANCH   2   9
ATOM      7  O   UNL     1      36.790 -18.554 -22.589  0.00  0.00    -0.270 OA
ATOM      8  N   UNL     1      34.781 -18.672 -21.381  0.00  0.00    -0.279 N 
ATOM      9  C   UNL     1      35.657 -18.120 -22.327  0.00  0.00    +0.250 C 
ATOM     10  H   UNL     1      33.914 -18.216 -21.284  0.00  0.00    +0.155 HD
BRANCH   8  11
ATOM     11  C   UNL     1      34.980 -19.799 -20.548  0.00  0.00    +0.064 C 
ATOM     12  C   UNL     1      33.898 -20.533 -20.091  0.00  0.00    +0.055 C 
ATOM     13  C   UNL     1      36.279 -20.143 -20.206  0.00  0.00    +0.016 C 
ATOM     14  C   UNL     1      34.120 -21.639 -19.270  0.00  0.00    +0.015 C 
ATOM     15  C   UNL     1      36.501 -21.249 -19.386  0.00  0.00    +0.001 C 
ATOM     16  C   UNL     1      35.421 -21.997 -18.918  0.00  0.00    +0.001 C 
BRANCH  12  17
ATOM     17  N   UNL     1      32.571 -20.190 -20.435  0.00  0.00    -0.356 N 
ATOM     18  H   UNL     1      32.331 -20.044 -21.379  0.00  0.00    +0.142 HD
ATOM     19  H   UNL     1      31.889 -20.096 -19.733  0.00  0.00    +0.142 HD
ENDBRANCH  12  17
ENDBRANCH   8  11
ENDBRANCH   2   9
BRANCH   1  20
ATOM     20  C   UNL     1      33.768 -13.439 -25.049  0.00  0.00    +0.119 C 
BRANCH  20  22
ATOM     21  O   UNL     1      34.807 -10.801 -25.684  0.00  0.00    -0.226 OA
ATOM     22  N   UNL     1      33.798 -12.270 -24.199  0.00  0.00    -0.267 N 
ATOM     23  C   UNL     1      34.315 -11.053 -24.590  0.00  0.00    +0.402 C 
ATOM     24  H   UNL     1      33.428 -12.348 -23.290  0.00  0.00    +0.153 HD
BRANCH  23  25
ATOM     25  O   UNL     1      34.197 -10.154 -23.567  0.00  0.00    -0.430 OA
BRANCH  25  26
ATOM     26  C   UNL     1      32.951  -9.452 -23.492  0.00  0.00    +0.238 C 
BRANCH  26  28
ATOM     27  N   UNL     1      32.048  -8.467 -19.969  0.00  0.00    -0.243 NA
ATOM     28  C   UNL     1      32.424  -9.540 -22.089  0.00  0.00    +0.040 C 
ATOM     29  C   UNL     1      31.851 -10.710 -21.624  0.00  0.00    +0.002 C 
ATOM     30  C   UNL     1      32.502  -8.456 -21.242  0.00  0.00    +0.098 C 
ATOM     31  C   UNL     1      31.372 -10.762 -20.321  0.00  0.00    +0.020 C 
ATOM     32  C   UNL     1      31.493  -9.623 -19.540  0.00  0.00    +0.099 C 
ENDBRANCH  26  28
ENDBRANCH  25  26
ENDBRANCH  23  25
ENDBRANCH  20  22
ENDBRANCH   1  20
TORSDOF 8
ENDMDL
MODEL 8
REMARK VINA RESULT:     -10.5      3.546      5.963
REMARK  Name = 4261
REMARK  8 active torsions:
REMARK  status: ('A' for Active; 'I' for Inactive)
REMARK    1  A    between atoms: C_1  and  C_20
REMARK    2  A    between atoms: C_2  and  C_9
REMARK    3  A    between atoms: N_8  and  C_11
REMARK    4  A    between atoms: C_12  and  N_17
REMARK    5  A    between atoms: C_20  and  N_22
REMARK    6  A    between atoms: C_23  and  O_25
REMARK    7  A    between atoms: O_25  and  C_26
REMARK    8  A    between atoms: C_26  and  C_28
REMARK                            x       y       z     vdW  Elec       q    Type
REMARK                         _______ _______ _______ _____ _____    ______ ____
ROOT
ATOM      1  C   UNL     1      34.269 -15.622 -24.586  0.00  0.00    -0.002 C 
ATOM      2  C   UNL     1      35.180 -17.306 -22.569  0.00  0.00    +0.054 C 
ATOM      3  C   UNL     1      34.198 -17.001 -24.756  0.00  0.00    -0.002 C 
ATOM      4  C   UNL     1      34.791 -15.078 -23.418  0.00  0.00    -0.002 C 
ATOM      5  C   UNL     1      34.655 -17.845 -23.745  0.00  0.00    +0.004 C 
ATOM      6  C   UNL     1      35.247 -15.922 -22.407  0.00  0.00    +0.004 C 
ENDROOT
BRANCH   2   9
ATOM      7  O   UNL     1      36.738 -17.932 -20.960  0.00  0.00    -0.270 OA
ATOM      8  N   UNL     1      34.820 -19.265 -21.193  0.00  0.00    -0.279 N 
ATOM      9  C   UNL     1      35.657 -18.187 -21.516  0.00  0.00    +0.250 C 
ATOM     10  H   UNL     1      33.993 -19.337 -21.722  0.00  0.00    +0.155 HD
BRANCH   8  11
ATOM     11  C   UNL     1      35.008 -20.262 -20.206  0.00  0.00    +0.064 C 
ATOM     12  C   UNL     1      33.919 -20.929 -19.668  0.00  0.00    +0.055 C 
ATOM     13  C   UNL     1      36.302 -20.547 -19.797  0.00  0.00    +0.016 C 
ATOM     14  C   UNL     1      34.130 -21.908 -18.696  0.00  0.00    +0.015 C 
ATOM     15  C   UNL     1      36.512 -21.525 -18.825  0.00  0.00    +0.001 C 
ATOM     16  C   UNL     1      35.426 -22.205 -18.274  0.00  0.00    +0.001 C 
BRANCH  12  17
ATOM     17  N   UNL     1      32.598 -20.645 -20.080  0.00  0.00    -0.356 N 
ATOM     18  H   UNL     1      32.194 -19.773 -19.868  0.00  0.00    +0.142 HD
ATOM     19  H   UNL     1      32.083 -21.318 -20.580  0.00  0.00    +0.142 HD
ENDBRANCH  12  17
ENDBRANCH   8  11
ENDBRANCH   2   9
BRANCH   1  20
ATOM     20  C   UNL     1      33.776 -14.713 -25.674  0.00  0.00    +0.119 C 
BRANCH  20  22
ATOM     21  O   UNL     1      34.063 -12.325 -27.301  0.00  0.00    -0.226 OA
ATOM     22  N   UNL     1      33.719 -13.335 -25.242  0.00  0.00    -0.267 N 
ATOM     23  C   UNL     1      33.867 -12.261 -26.092  0.00  0.00    +0.402 C 
ATOM     24  H   UNL     1      33.566 -13.154 -24.286  0.00  0.00    +0.153 HD
BRANCH  23  25
ATOM     25  O   UNL     1      33.764 -11.096 -25.385  0.00  0.00    -0.430 OA
BRANCH  25  26
ATOM     26  C   UNL     1      35.001 -10.506 -24.969  0.00  0.00    +0.238 C 
BRANCH  26  28
ATOM     27  N   UNL     1      33.260  -8.170 -22.578  0.00  0.00    -0.243 NA
ATOM     28  C   UNL     1      34.709  -9.289 -24.140  0.00  0.00    +0.040 C 
ATOM     29  C   UNL     1      35.565  -8.202 -24.158  0.00  0.00    +0.002 C 
ATOM     30  C   UNL     1      33.582  -9.234 -23.348  0.00  0.00    +0.098 C 
ATOM     31  C   UNL     1      35.268  -7.090 -23.381  0.00  0.00    +0.020 C 
ATOM     32  C   UNL     1      34.114  -7.122 -22.615  0.00  0.00    +0.099 C 
ENDBRANCH  26  28
ENDBRANCH  25  26
ENDBRANCH  23  25
ENDBRANCH  20  22
ENDBRANCH   1  20
TORSDOF 8
ENDMDL
MODEL 9
REMARK VINA RESULT:     -10.3      4.252     11.985
REMARK  Name = 4261
REMARK  8 active torsions:
REMARK  status: ('A' for Active; 'I' for Inactive)
REMARK    1  A    between atoms: C_1  and  C_20
REMARK    2  A    between atoms: C_2  and  C_9
REMARK    3  A    between atoms: N_8  and  C_11
REMARK    4  A    between atoms: C_12  and  N_17
REMARK    5  A    between atoms: C_20  and  N_22
REMARK    6  A    between atoms: C_23  and  O_25
REMARK    7  A    between atoms: O_25  and  C_26
REMARK    8  A    between atoms: C_26  and  C_28
REMARK                            x       y       z     vdW  Elec       q    Type
REMARK                         _______ _______ _______ _____ _____    ______ ____
ROOT
ATOM      1  C   UNL     1      33.781 -13.814 -24.812  0.00  0.00    -0.002 C 
ATOM      2  C   UNL     1      33.788 -11.120 -24.122  0.00  0.00    +0.054 C 
ATOM      3  C   UNL     1      33.827 -12.848 -25.811  0.00  0.00    -0.002 C 
ATOM      4  C   UNL     1      33.738 -13.446 -23.472  0.00  0.00    -0.002 C 
ATOM      5  C   UNL     1      33.831 -11.497 -25.465  0.00  0.00    +0.004 C 
ATOM      6  C   UNL     1      33.742 -12.096 -23.125  0.00  0.00    +0.004 C 
ENDROOT
BRANCH   2   9
ATOM      7  O   UNL     1      34.843  -9.063 -23.871  0.00  0.00    -0.270 OA
ATOM      8  N   UNL     1      32.562  -9.188 -23.332  0.00  0.00    -0.279 N 
ATOM      9  C   UNL     1      33.790  -9.712 -23.762  0.00  0.00    +0.250 C 
ATOM     10  H   UNL     1      31.814  -9.827 -23.297  0.00  0.00    +0.155 HD
BRANCH   8  11
ATOM     11  C   UNL     1      32.257  -7.861 -22.944  0.00  0.00    +0.064 C 
ATOM     12  C   UNL     1      32.190  -7.522 -21.602  0.00  0.00    +0.055 C 
ATOM     13  C   UNL     1      32.031  -6.921 -23.937  0.00  0.00    +0.016 C 
ATOM     14  C   UNL     1      31.887  -6.207 -21.245  0.00  0.00    +0.015 C 
ATOM     15  C   UNL     1      31.729  -5.607 -23.579  0.00  0.00    +0.001 C 
ATOM     16  C   UNL     1      31.657  -5.251 -22.233  0.00  0.00    +0.001 C 
BRANCH  12  17
ATOM     17  N   UNL     1      32.420  -8.474 -20.584  0.00  0.00    -0.356 N 
ATOM     18  H   UNL     1      31.690  -8.726 -19.973  0.00  0.00    +0.142 HD
ATOM     19  H   UNL     1      33.309  -8.885 -20.487  0.00  0.00    +0.142 HD
ENDBRANCH  12  17
ENDBRANCH   8  11
ENDBRANCH   2   9
BRANCH   1  20
ATOM     20  C   UNL     1      33.779 -15.268 -25.184  0.00  0.00    +0.119 C 
BRANCH  20  22
ATOM     21  O   UNL     1      34.025 -18.155 -24.984  0.00  0.00    -0.226 OA
ATOM     22  N   UNL     1      34.743 -16.023 -24.417  0.00  0.00    -0.267 N 
ATOM     23  C   UNL     1      34.783 -17.401 -24.383  0.00  0.00    +0.402 C 
ATOM     24  H   UNL     1      35.409 -15.526 -23.889  0.00  0.00    +0.153 HD
BRANCH  23  25
ATOM     25  O   UNL     1      35.803 -17.812 -23.573  0.00  0.00    -0.430 OA
BRANCH  25  26
ATOM     26  C   UNL     1      35.718 -17.401 -22.203  0.00  0.00    +0.238 C 
BRANCH  26  28
ATOM     27  N   UNL     1      36.829 -20.167 -19.898  0.00  0.00    -0.243 NA
ATOM     28  C   UNL     1      35.668 -18.620 -21.328  0.00  0.00    +0.040 C 
ATOM     29  C   UNL     1      34.480 -19.304 -21.142  0.00  0.00    +0.002 C 
ATOM     30  C   UNL     1      36.804 -19.077 -20.697  0.00  0.00    +0.098 C 
ATOM     31  C   UNL     1      34.464 -20.430 -20.328  0.00  0.00    +0.020 C 
ATOM     32  C   UNL     1      35.655 -20.817 -19.733  0.00  0.00    +0.099 C 
ENDBRANCH  26  28
ENDBRANCH  25  26
ENDBRANCH  23  25
ENDBRANCH  20  22
ENDBRANCH   1  20
TORSDOF 8
ENDMDL
