MODEL 1
REMARK VINA RESULT:     -11.5      0.000      0.000
REMARK  Name = 447546
REMARK  10 active torsions:
REMARK  status: ('A' for Active; 'I' for Inactive)
REMARK    1  A    between atoms: N_1  and  C_23
REMARK    2  A    between atoms: C_8  and  N_11
REMARK    3  A    between atoms: N_12  and  C_16
REMARK    4  A    between atoms: C_16  and  C_17
REMARK    5  A    between atoms: C_23  and  C_24
REMARK    6  A    between atoms: C_24  and  C_25
REMARK    7  A    between atoms: C_25  and  N_26
REMARK    8  A    between atoms: C_25  and  C_36
REMARK    9  A    between atoms: C_30  and  C_33
REMARK   10  A    between atoms: C_36  and  O_37
REMARK                            x       y       z     vdW  Elec       q    Type
REMARK                         _______ _______ _______ _____ _____    ______ ____
ROOT
ATOM      1  N   UNL     1      34.154 -22.423 -17.289  0.00  0.00    -0.286 N 
ATOM      2  C   UNL     1      34.762 -21.695 -18.287  0.00  0.00    +0.053 C 
ATOM      3  C   UNL     1      36.123 -21.633 -17.977  0.00  0.00    +0.015 C 
ATOM      4  C   UNL     1      35.080 -22.822 -16.363  0.00  0.00    +0.065 C 
ATOM      5  C   UNL     1      36.308 -22.348 -16.762  0.00  0.00    +0.017 C 
ATOM      6  C   UNL     1      34.218 -21.094 -19.428  0.00  0.00    +0.030 C 
ATOM      7  C   UNL     1      36.985 -20.936 -18.847  0.00  0.00    +0.003 C 
ATOM      8  C   UNL     1      35.094 -20.408 -20.276  0.00  0.00    +0.053 C 
ATOM      9  C   UNL     1      36.456 -20.330 -19.992  0.00  0.00    +0.015 C 
ENDROOT
BRANCH   8  11
ATOM     10  O   UNL     1      36.472 -18.714 -22.333  0.00  0.00    -0.252 OA
ATOM     11  N   UNL     1      34.592 -19.796 -21.426  0.00  0.00    -0.268 N 
ATOM     12  N   UNL     1      34.416 -18.577 -23.383  0.00  0.00    -0.285 N 
ATOM     13  C   UNL     1      35.280 -19.006 -22.368  0.00  0.00    +0.305 C 
ATOM     14  H   UNL     1      33.634 -19.936 -21.601  0.00  0.00    +0.156 HD
ATOM     15  H   UNL     1      33.473 -18.852 -23.343  0.00  0.00    +0.151 HD
BRANCH  12  16
ATOM     16  C   UNL     1      34.847 -17.750 -24.486  0.00  0.00    +0.118 C 
BRANCH  16  17
ATOM     17  C   UNL     1      34.560 -16.296 -24.245  0.00  0.00    -0.003 C 
ATOM     18  C   UNL     1      35.130 -15.645 -23.152  0.00  0.00    -0.003 C 
ATOM     19  C   UNL     1      33.723 -15.597 -25.115  0.00  0.00    -0.003 C 
ATOM     20  C   UNL     1      34.863 -14.294 -22.928  0.00  0.00    -0.000 C 
ATOM     21  C   UNL     1      33.456 -14.246 -24.891  0.00  0.00    -0.000 C 
ATOM     22  C   UNL     1      34.026 -13.595 -23.797  0.00  0.00    -0.000 C 
ENDBRANCH  16  17
ENDBRANCH  12  16
ENDBRANCH   8  11
BRANCH   1  23
ATOM     23  C   UNL     1      32.741 -22.730 -17.214  0.00  0.00    +0.097 C 
BRANCH  23  24
ATOM     24  C   UNL     1      32.350 -23.619 -16.026  0.00  0.00    +0.040 C 
BRANCH  24  25
ATOM     25  C   UNL     1      31.286 -23.020 -15.080  0.00  0.00    +0.091 C 
BRANCH  25  26
ATOM     26  N   UNL     1      29.912 -23.117 -15.602  0.00  0.00    -0.246 NA
ATOM     27  N   UNL     1      28.051 -23.838 -16.574  0.00  0.00    -0.251 NA
ATOM     28  C   UNL     1      28.932 -22.160 -15.512  0.00  0.00    +0.125 C 
ATOM     29  C   UNL     1      29.349 -24.114 -16.247  0.00  0.00    +0.201 C 
ATOM     30  C   UNL     1      27.767 -22.586 -16.108  0.00  0.00    +0.124 C 
BRANCH  30  33
ATOM     31  O   UNL     1      25.613 -21.949 -15.370  0.00  0.00    -0.269 OA
ATOM     32  N   UNL     1      26.295 -21.158 -17.395  0.00  0.00    -0.324 N 
ATOM     33  C   UNL     1      26.517 -21.915 -16.239  0.00  0.00    +0.257 C 
ATOM     34  H   UNL     1      25.442 -20.683 -17.517  0.00  0.00    +0.145 HD
ATOM     35  H   UNL     1      26.993 -21.100 -18.088  0.00  0.00    +0.145 HD
ENDBRANCH  30  33
ENDBRANCH  25  26
BRANCH  25  36
ATOM     36  C   UNL     1      31.377 -23.664 -13.686  0.00  0.00    +0.153 C 
BRANCH  36  37
ATOM     37  O   UNL     1      32.186 -22.857 -12.838  0.00  0.00    -0.381 OA
ATOM     38  H   UNL     1      32.432 -23.365 -12.049  0.00  0.00    +0.210 HD
ENDBRANCH  36  37
ENDBRANCH  25  36
ENDBRANCH  24  25
ENDBRANCH  23  24
ENDBRANCH   1  23
TORSDOF 10
ENDMDL
MODEL 2
REMARK VINA RESULT:     -11.4      3.730      7.554
REMARK  Name = 447546
REMARK  10 active torsions:
REMARK  status: ('A' for Active; 'I' for Inactive)
REMARK    1  A    between atoms: N_1  and  C_23
REMARK    2  A    between atoms: C_8  and  N_11
REMARK    3  A    between atoms: N_12  and  C_16
REMARK    4  A    between atoms: C_16  and  C_17
REMARK    5  A    between atoms: C_23  and  C_24
REMARK    6  A    between atoms: C_24  and  C_25
REMARK    7  A    between atoms: C_25  and  N_26
REMARK    8  A    between atoms: C_25  and  C_36
REMARK    9  A    between atoms: C_30  and  C_33
REMARK   10  A    between atoms: C_36  and  O_37
REMARK                            x       y       z     vdW  Elec       q    Type
REMARK                         _______ _______ _______ _____ _____    ______ ____
ROOT
ATOM      1  N   UNL     1      32.589 -24.583 -13.873  0.00  0.00    -0.286 N 
ATOM      2  C   UNL     1      32.145 -23.839 -14.943  0.00  0.00    +0.053 C 
ATOM      3  C   UNL     1      30.756 -23.741 -14.826  0.00  0.00    +0.015 C 
ATOM      4  C   UNL     1      31.532 -24.957 -13.086  0.00  0.00    +0.065 C 
ATOM      5  C   UNL     1      30.385 -24.450 -13.650  0.00  0.00    +0.017 C 
ATOM      6  C   UNL     1      32.858 -23.252 -15.994  0.00  0.00    +0.030 C 
ATOM      7  C   UNL     1      30.042 -23.021 -15.806  0.00  0.00    +0.003 C 
ATOM      8  C   UNL     1      32.128 -22.543 -16.953  0.00  0.00    +0.053 C 
ATOM      9  C   UNL     1      30.743 -22.428 -16.862  0.00  0.00    +0.015 C 
ENDROOT
BRANCH   8  11
ATOM     10  O   UNL     1      35.059 -22.440 -17.591  0.00  0.00    -0.252 OA
ATOM     11  N   UNL     1      32.801 -21.940 -18.017  0.00  0.00    -0.268 N 
ATOM     12  N   UNL     1      34.460 -21.204 -19.451  0.00  0.00    -0.285 N 
ATOM     13  C   UNL     1      34.186 -21.917 -18.278  0.00  0.00    +0.305 C 
ATOM     14  H   UNL     1      32.234 -21.469 -18.671  0.00  0.00    +0.156 HD
ATOM     15  H   UNL     1      33.707 -20.813 -19.949  0.00  0.00    +0.151 HD
BRANCH  12  16
ATOM     16  C   UNL     1      35.797 -21.017 -19.965  0.00  0.00    +0.118 C 
BRANCH  16  17
ATOM     17  C   UNL     1      35.870 -19.878 -20.940  0.00  0.00    -0.003 C 
ATOM     18  C   UNL     1      34.774 -19.579 -21.748  0.00  0.00    -0.003 C 
ATOM     19  C   UNL     1      37.035 -19.116 -21.037  0.00  0.00    -0.003 C 
ATOM     20  C   UNL     1      34.842 -18.521 -22.654  0.00  0.00    -0.000 C 
ATOM     21  C   UNL     1      37.104 -18.058 -21.942  0.00  0.00    -0.000 C 
ATOM     22  C   UNL     1      36.007 -17.760 -22.751  0.00  0.00    -0.000 C 
ENDBRANCH  16  17
ENDBRANCH  12  16
ENDBRANCH   8  11
BRANCH   1  23
ATOM     23  C   UNL     1      33.968 -24.931 -13.605  0.00  0.00    +0.097 C 
BRANCH  23  24
ATOM     24  C   UNL     1      34.618 -24.112 -12.481  0.00  0.00    +0.040 C 
BRANCH  24  25
ATOM     25  C   UNL     1      36.003 -24.617 -12.019  0.00  0.00    +0.091 C 
BRANCH  25  26
ATOM     26  N   UNL     1      37.069 -24.407 -13.013  0.00  0.00    -0.246 NA
ATOM     27  N   UNL     1      38.337 -23.560 -14.627  0.00  0.00    -0.251 NA
ATOM     28  C   UNL     1      38.137 -25.234 -13.256  0.00  0.00    +0.125 C 
ATOM     29  C   UNL     1      37.219 -23.409 -13.855  0.00  0.00    +0.201 C 
ATOM     30  C   UNL     1      38.939 -24.729 -14.254  0.00  0.00    +0.124 C 
BRANCH  30  33
ATOM     31  O   UNL     1      41.283 -24.828 -14.544  0.00  0.00    -0.269 OA
ATOM     32  N   UNL     1      40.027 -26.342 -15.695  0.00  0.00    -0.324 N 
ATOM     33  C   UNL     1      40.136 -25.260 -14.813  0.00  0.00    +0.257 C 
ATOM     34  H   UNL     1      40.836 -26.732 -16.098  0.00  0.00    +0.145 HD
ATOM     35  H   UNL     1      39.141 -26.713 -15.912  0.00  0.00    +0.145 HD
ENDBRANCH  30  33
ENDBRANCH  25  26
BRANCH  25  36
ATOM     36  C   UNL     1      36.390 -23.979 -10.674  0.00  0.00    +0.153 C 
BRANCH  36  37
ATOM     37  O   UNL     1      35.609 -24.549  -9.630  0.00  0.00    -0.381 OA
ATOM     38  H   UNL     1      34.898 -23.935  -9.387  0.00  0.00    +0.210 HD
ENDBRANCH  36  37
ENDBRANCH  25  36
ENDBRANCH  24  25
ENDBRANCH  23  24
ENDBRANCH   1  23
TORSDOF 10
ENDMDL
MODEL 3
REMARK VINA RESULT:     -11.3      1.857      2.906
REMARK  Name = 447546
REMARK  10 active torsions:
REMARK  status: ('A' for Active; 'I' for Inactive)
REMARK    1  A    between atoms: N_1  and  C_23
REMARK    2  A    between atoms: C_8  and  N_11
REMARK    3  A    between atoms: N_12  and  C_16
REMARK    4  A    between atoms: C_16  and  C_17
REMARK    5  A    between atoms: C_23  and  C_24
REMARK    6  A    between atoms: C_24  and  C_25
REMARK    7  A    between atoms: C_25  and  N_26
REMARK    8  A    between atoms: C_25  and  C_36
REMARK    9  A    between atoms: C_30  and  C_33
REMARK   10  A    between atoms: C_36  and  O_37
REMARK                            x       y       z     vdW  Elec       q    Type
REMARK                         _______ _______ _______ _____ _____    ______ ____
ROOT
ATOM      1  N   UNL     1      34.648 -23.910 -14.692  0.00  0.00    -0.286 N 
ATOM      2  C   UNL     1      35.568 -23.198 -15.428  0.00  0.00    +0.053 C 
ATOM      3  C   UNL     1      36.816 -23.403 -14.833  0.00  0.00    +0.015 C 
ATOM      4  C   UNL     1      35.268 -24.556 -13.656  0.00  0.00    +0.065 C 
ATOM      5  C   UNL     1      36.610 -24.261 -13.718  0.00  0.00    +0.017 C 
ATOM      6  C   UNL     1      35.394 -22.397 -16.563  0.00  0.00    +0.030 C 
ATOM      7  C   UNL     1      37.946 -22.778 -15.397  0.00  0.00    +0.003 C 
ATOM      8  C   UNL     1      36.531 -21.789 -17.104  0.00  0.00    +0.053 C 
ATOM      9  C   UNL     1      37.787 -21.975 -16.532  0.00  0.00    +0.015 C 
ENDROOT
BRANCH   8  11
ATOM     10  O   UNL     1      34.779 -22.101 -19.520  0.00  0.00    -0.252 OA
ATOM     11  N   UNL     1      36.401 -20.984 -18.237  0.00  0.00    -0.268 N 
ATOM     12  N   UNL     1      35.729 -20.135 -20.280  0.00  0.00    -0.285 N 
ATOM     13  C   UNL     1      35.561 -21.169 -19.353  0.00  0.00    +0.305 C 
ATOM     14  H   UNL     1      36.971 -20.180 -18.258  0.00  0.00    +0.156 HD
ATOM     15  H   UNL     1      36.375 -19.422 -20.075  0.00  0.00    +0.151 HD
BRANCH  12  16
ATOM     16  C   UNL     1      34.996 -20.064 -21.523  0.00  0.00    +0.118 C 
BRANCH  16  17
ATOM     17  C   UNL     1      35.098 -18.708 -22.159  0.00  0.00    -0.003 C 
ATOM     18  C   UNL     1      35.514 -17.613 -21.405  0.00  0.00    -0.003 C 
ATOM     19  C   UNL     1      34.777 -18.545 -23.508  0.00  0.00    -0.003 C 
ATOM     20  C   UNL     1      35.609 -16.353 -21.997  0.00  0.00    -0.000 C 
ATOM     21  C   UNL     1      34.872 -17.286 -24.100  0.00  0.00    -0.000 C 
ATOM     22  C   UNL     1      35.288 -16.190 -23.344  0.00  0.00    -0.000 C 
ENDBRANCH  16  17
ENDBRANCH  12  16
ENDBRANCH   8  11
BRANCH   1  23
ATOM     23  C   UNL     1      33.227 -23.976 -14.959  0.00  0.00    +0.097 C 
BRANCH  23  24
ATOM     24  C   UNL     1      32.412 -22.838 -14.328  0.00  0.00    +0.040 C 
BRANCH  24  25
ATOM     25  C   UNL     1      30.947 -23.193 -13.986  0.00  0.00    +0.091 C 
BRANCH  25  26
ATOM     26  N   UNL     1      29.983 -22.767 -15.015  0.00  0.00    -0.246 NA
ATOM     27  N   UNL     1      29.057 -22.130 -16.929  0.00  0.00    -0.251 NA
ATOM     28  C   UNL     1      28.634 -22.577 -14.846  0.00  0.00    +0.125 C 
ATOM     29  C   UNL     1      30.204 -22.490 -16.281  0.00  0.00    +0.201 C 
ATOM     30  C   UNL     1      28.038 -22.181 -16.020  0.00  0.00    +0.124 C 
BRANCH  30  33
ATOM     31  O   UNL     1      25.759 -21.958 -15.430  0.00  0.00    -0.269 OA
ATOM     32  N   UNL     1      26.333 -21.445 -17.575  0.00  0.00    -0.324 N 
ATOM     33  C   UNL     1      26.672 -21.878 -16.287  0.00  0.00    +0.257 C 
ATOM     34  H   UNL     1      25.399 -21.228 -17.792  0.00  0.00    +0.145 HD
ATOM     35  H   UNL     1      27.031 -21.357 -18.265  0.00  0.00    +0.145 HD
ENDBRANCH  30  33
ENDBRANCH  25  26
BRANCH  25  36
ATOM     36  C   UNL     1      30.806 -24.699 -13.707  0.00  0.00    +0.153 C 
BRANCH  36  37
ATOM     37  O   UNL     1      30.779 -24.925 -12.303  0.00  0.00    -0.381 OA
ATOM     38  H   UNL     1      30.833 -24.076 -11.838  0.00  0.00    +0.210 HD
ENDBRANCH  36  37
ENDBRANCH  25  36
ENDBRANCH  24  25
ENDBRANCH  23  24
ENDBRANCH   1  23
TORSDOF 10
ENDMDL
MODEL 4
REMARK VINA RESULT:     -11.3      4.962      9.446
REMARK  Name = 447546
REMARK  10 active torsions:
REMARK  status: ('A' for Active; 'I' for Inactive)
REMARK    1  A    between atoms: N_1  and  C_23
REMARK    2  A    between atoms: C_8  and  N_11
REMARK    3  A    between atoms: N_12  and  C_16
REMARK    4  A    between atoms: C_16  and  C_17
REMARK    5  A    between atoms: C_23  and  C_24
REMARK    6  A    between atoms: C_24  and  C_25
REMARK    7  A    between atoms: C_25  and  N_26
REMARK    8  A    between atoms: C_25  and  C_36
REMARK    9  A    between atoms: C_30  and  C_33
REMARK   10  A    between atoms: C_36  and  O_37
REMARK                            x       y       z     vdW  Elec       q    Type
REMARK                         _______ _______ _______ _____ _____    ______ ____
ROOT
ATOM      1  N   UNL     1      34.750 -15.869 -23.273  0.00  0.00    -0.286 N 
ATOM      2  C   UNL     1      34.424 -14.664 -23.853  0.00  0.00    +0.053 C 
ATOM      3  C   UNL     1      33.830 -14.948 -25.085  0.00  0.00    +0.015 C 
ATOM      4  C   UNL     1      34.381 -16.902 -24.093  0.00  0.00    +0.065 C 
ATOM      5  C   UNL     1      33.809 -16.364 -25.221  0.00  0.00    +0.017 C 
ATOM      6  C   UNL     1      34.609 -13.357 -23.387  0.00  0.00    +0.030 C 
ATOM      7  C   UNL     1      33.398 -13.877 -25.892  0.00  0.00    +0.003 C 
ATOM      8  C   UNL     1      34.173 -12.311 -24.206  0.00  0.00    +0.053 C 
ATOM      9  C   UNL     1      33.575 -12.565 -25.439  0.00  0.00    +0.015 C 
ENDROOT
BRANCH   8  11
ATOM     10  O   UNL     1      35.664 -10.030 -25.462  0.00  0.00    -0.252 OA
ATOM     11  N   UNL     1      34.336 -10.993 -23.777  0.00  0.00    -0.268 N 
ATOM     12  N   UNL     1      34.970  -8.773 -23.650  0.00  0.00    -0.285 N 
ATOM     13  C   UNL     1      35.048  -9.950 -24.403  0.00  0.00    +0.305 C 
ATOM     14  H   UNL     1      33.895 -10.761 -22.928  0.00  0.00    +0.156 HD
ATOM     15  H   UNL     1      34.457  -8.786 -22.811  0.00  0.00    +0.151 HD
BRANCH  12  16
ATOM     16  C   UNL     1      35.607  -7.539 -24.049  0.00  0.00    +0.118 C 
BRANCH  16  17
ATOM     17  C   UNL     1      34.670  -6.369 -23.961  0.00  0.00    -0.003 C 
ATOM     18  C   UNL     1      33.800  -6.251 -22.879  0.00  0.00    -0.003 C 
ATOM     19  C   UNL     1      34.671  -5.398 -24.964  0.00  0.00    -0.003 C 
ATOM     20  C   UNL     1      32.930  -5.164 -22.798  0.00  0.00    -0.000 C 
ATOM     21  C   UNL     1      33.801  -4.311 -24.883  0.00  0.00    -0.000 C 
ATOM     22  C   UNL     1      32.930  -4.194 -23.800  0.00  0.00    -0.000 C 
ENDBRANCH  16  17
ENDBRANCH  12  16
ENDBRANCH   8  11
BRANCH   1  23
ATOM     23  C   UNL     1      35.389 -16.038 -21.986  0.00  0.00    +0.097 C 
BRANCH  23  24
ATOM     24  C   UNL     1      35.123 -17.396 -21.322  0.00  0.00    +0.040 C 
BRANCH  24  25
ATOM     25  C   UNL     1      36.380 -18.259 -21.069  0.00  0.00    +0.091 C 
BRANCH  25  26
ATOM     26  N   UNL     1      36.091 -19.534 -20.390  0.00  0.00    -0.246 NA
ATOM     27  N   UNL     1      36.286 -21.433 -19.256  0.00  0.00    -0.251 NA
ATOM     28  C   UNL     1      34.866 -20.142 -20.275  0.00  0.00    +0.125 C 
ATOM     29  C   UNL     1      36.924 -20.337 -19.765  0.00  0.00    +0.201 C 
ATOM     30  C   UNL     1      34.962 -21.322 -19.574  0.00  0.00    +0.124 C 
BRANCH  30  33
ATOM     31  O   UNL     1      34.100 -23.502 -19.266  0.00  0.00    -0.269 OA
ATOM     32  N   UNL     1      32.708 -21.759 -18.803  0.00  0.00    -0.324 N 
ATOM     33  C   UNL     1      33.945 -22.258 -19.229  0.00  0.00    +0.257 C 
ATOM     34  H   UNL     1      31.985 -22.379 -18.558  0.00  0.00    +0.145 HD
ATOM     35  H   UNL     1      32.562 -20.786 -18.749  0.00  0.00    +0.145 HD
ENDBRANCH  30  33
ENDBRANCH  25  26
BRANCH  25  36
ATOM     36  C   UNL     1      37.138 -18.511 -22.384  0.00  0.00    +0.153 C 
BRANCH  36  37
ATOM     37  O   UNL     1      38.518 -18.213 -22.205  0.00  0.00    -0.381 OA
ATOM     38  H   UNL     1      39.017 -19.040 -22.113  0.00  0.00    +0.210 HD
ENDBRANCH  36  37
ENDBRANCH  25  36
ENDBRANCH  24  25
ENDBRANCH  23  24
ENDBRANCH   1  23
TORSDOF 10
ENDMDL
MODEL 5
REMARK VINA RESULT:     -11.2      4.304      7.563
REMARK  Name = 447546
REMARK  10 active torsions:
REMARK  status: ('A' for Active; 'I' for Inactive)
REMARK    1  A    between atoms: N_1  and  C_23
REMARK    2  A    between atoms: C_8  and  N_11
REMARK    3  A    between atoms: N_12  and  C_16
REMARK    4  A    between atoms: C_16  and  C_17
REMARK    5  A    between atoms: C_23  and  C_24
REMARK    6  A    between atoms: C_24  and  C_25
REMARK    7  A    between atoms: C_25  and  N_26
REMARK    8  A    between atoms: C_25  and  C_36
REMARK    9  A    between atoms: C_30  and  C_33
REMARK   10  A    between atoms: C_36  and  O_37
REMARK                            x       y       z     vdW  Elec       q    Type
REMARK                         _______ _______ _______ _____ _____    ______ ____
ROOT
ATOM      1  N   UNL     1      35.165 -23.771 -14.965  0.00  0.00    -0.286 N 
ATOM      2  C   UNL     1      34.351 -23.221 -15.928  0.00  0.00    +0.053 C 
ATOM      3  C   UNL     1      33.032 -23.423 -15.515  0.00  0.00    +0.015 C 
ATOM      4  C   UNL     1      34.409 -24.311 -13.959  0.00  0.00    +0.065 C 
ATOM      5  C   UNL     1      33.085 -24.111 -14.271  0.00  0.00    +0.017 C 
ATOM      6  C   UNL     1      34.677 -22.567 -17.122  0.00  0.00    +0.030 C 
ATOM      7  C   UNL     1      31.985 -22.950 -16.332  0.00  0.00    +0.003 C 
ATOM      8  C   UNL     1      33.621 -22.106 -17.915  0.00  0.00    +0.053 C 
ATOM      9  C   UNL     1      32.296 -22.293 -17.528  0.00  0.00    +0.015 C 
ENDROOT
BRANCH   8  11
ATOM     10  O   UNL     1      36.142 -20.776 -18.855  0.00  0.00    -0.252 OA
ATOM     11  N   UNL     1      33.903 -21.447 -19.113  0.00  0.00    -0.268 N 
ATOM     12  N   UNL     1      34.982 -20.280 -20.793  0.00  0.00    -0.285 N 
ATOM     13  C   UNL     1      35.107 -20.834 -19.514  0.00  0.00    +0.305 C 
ATOM     14  H   UNL     1      33.164 -21.405 -19.763  0.00  0.00    +0.156 HD
ATOM     15  H   UNL     1      34.120 -20.368 -21.260  0.00  0.00    +0.151 HD
BRANCH  12  16
ATOM     16  C   UNL     1      36.060 -19.588 -21.461  0.00  0.00    +0.118 C 
BRANCH  16  17
ATOM     17  C   UNL     1      35.555 -18.640 -22.510  0.00  0.00    -0.003 C 
ATOM     18  C   UNL     1      35.767 -17.270 -22.374  0.00  0.00    -0.003 C 
ATOM     19  C   UNL     1      34.873 -19.133 -23.624  0.00  0.00    -0.003 C 
ATOM     20  C   UNL     1      35.297 -16.390 -23.349  0.00  0.00    -0.000 C 
ATOM     21  C   UNL     1      34.403 -18.254 -24.599  0.00  0.00    -0.000 C 
ATOM     22  C   UNL     1      34.616 -16.882 -24.461  0.00  0.00    -0.000 C 
ENDBRANCH  16  17
ENDBRANCH  12  16
ENDBRANCH   8  11
BRANCH   1  23
ATOM     23  C   UNL     1      36.612 -23.786 -14.995  0.00  0.00    +0.097 C 
BRANCH  23  24
ATOM     24  C   UNL     1      37.275 -23.500 -13.640  0.00  0.00    +0.040 C 
BRANCH  24  25
ATOM     25  C   UNL     1      37.952 -24.717 -12.971  0.00  0.00    +0.091 C 
BRANCH  25  26
ATOM     26  N   UNL     1      39.020 -25.320 -13.788  0.00  0.00    -0.246 NA
ATOM     27  N   UNL     1      40.978 -25.778 -14.728  0.00  0.00    -0.251 NA
ATOM     28  C   UNL     1      38.890 -26.375 -14.656  0.00  0.00    +0.125 C 
ATOM     29  C   UNL     1      40.289 -24.984 -13.854  0.00  0.00    +0.201 C 
ATOM     30  C   UNL     1      40.093 -26.678 -15.251  0.00  0.00    +0.124 C 
BRANCH  30  33
ATOM     31  O   UNL     1      41.518 -28.261 -16.276  0.00  0.00    -0.269 OA
ATOM     32  N   UNL     1      39.401 -28.082 -17.099  0.00  0.00    -0.324 N 
ATOM     33  C   UNL     1      40.404 -27.689 -16.205  0.00  0.00    +0.257 C 
ATOM     34  H   UNL     1      39.584 -28.777 -17.770  0.00  0.00    +0.145 HD
ATOM     35  H   UNL     1      38.511 -27.661 -17.057  0.00  0.00    +0.145 HD
ENDBRANCH  30  33
ENDBRANCH  25  26
BRANCH  25  36
ATOM     36  C   UNL     1      38.489 -24.341 -11.579  0.00  0.00    +0.153 C 
BRANCH  36  37
ATOM     37  O   UNL     1      38.664 -22.931 -11.500  0.00  0.00    -0.381 OA
ATOM     38  H   UNL     1      38.110 -22.498 -12.168  0.00  0.00    +0.210 HD
ENDBRANCH  36  37
ENDBRANCH  25  36
ENDBRANCH  24  25
ENDBRANCH  23  24
ENDBRANCH   1  23
TORSDOF 10
ENDMDL
MODEL 6
REMARK VINA RESULT:     -11.2      6.642     11.617
REMARK  Name = 447546
REMARK  10 active torsions:
REMARK  status: ('A' for Active; 'I' for Inactive)
REMARK    1  A    between atoms: N_1  and  C_23
REMARK    2  A    between atoms: C_8  and  N_11
REMARK    3  A    between atoms: N_12  and  C_16
REMARK    4  A    between atoms: C_16  and  C_17
REMARK    5  A    between atoms: C_23  and  C_24
REMARK    6  A    between atoms: C_24  and  C_25
REMARK    7  A    between atoms: C_25  and  N_26
REMARK    8  A    between atoms: C_25  and  C_36
REMARK    9  A    between atoms: C_30  and  C_33
REMARK   10  A    between atoms: C_36  and  O_37
REMARK                            x       y       z     vdW  Elec       q    Type
REMARK                         _______ _______ _______ _____ _____    ______ ____
ROOT
ATOM      1  N   UNL     1      33.136 -12.994 -22.138  0.00  0.00    -0.286 N 
ATOM      2  C   UNL     1      32.635 -11.774 -21.741  0.00  0.00    +0.053 C 
ATOM      3  C   UNL     1      32.249 -11.905 -20.405  0.00  0.00    +0.015 C 
ATOM      4  C   UNL     1      33.082 -13.887 -21.102  0.00  0.00    +0.065 C 
ATOM      5  C   UNL     1      32.538 -13.242 -20.016  0.00  0.00    +0.017 C 
ATOM      6  C   UNL     1      32.494 -10.579 -22.455  0.00  0.00    +0.030 C 
ATOM      7  C   UNL     1      31.696 -10.788 -19.747  0.00  0.00    +0.003 C 
ATOM      8  C   UNL     1      31.943  -9.485 -21.781  0.00  0.00    +0.053 C 
ATOM      9  C   UNL     1      31.551  -9.586 -20.448  0.00  0.00    +0.015 C 
ENDROOT
BRANCH   8  11
ATOM     10  O   UNL     1      33.637  -7.007 -21.742  0.00  0.00    -0.252 OA
ATOM     11  N   UNL     1      31.788  -8.273 -22.456  0.00  0.00    -0.268 N 
ATOM     12  N   UNL     1      32.110  -6.119 -23.234  0.00  0.00    -0.285 N 
ATOM     13  C   UNL     1      32.612  -7.131 -22.408  0.00  0.00    +0.305 C 
ATOM     14  H   UNL     1      31.000  -8.208 -23.043  0.00  0.00    +0.156 HD
ATOM     15  H   UNL     1      31.283  -6.292 -23.738  0.00  0.00    +0.151 HD
BRANCH  12  16
ATOM     16  C   UNL     1      32.751  -4.833 -23.382  0.00  0.00    +0.118 C 
BRANCH  16  17
ATOM     17  C   UNL     1      33.525  -4.735 -24.665  0.00  0.00    -0.003 C 
ATOM     18  C   UNL     1      32.983  -4.061 -25.757  0.00  0.00    -0.003 C 
ATOM     19  C   UNL     1      34.789  -5.319 -24.762  0.00  0.00    -0.003 C 
ATOM     20  C   UNL     1      33.703  -3.970 -26.949  0.00  0.00    -0.000 C 
ATOM     21  C   UNL     1      35.508  -5.229 -25.954  0.00  0.00    -0.000 C 
ATOM     22  C   UNL     1      34.965  -4.554 -27.047  0.00  0.00    -0.000 C 
ENDBRANCH  16  17
ENDBRANCH  12  16
ENDBRANCH   8  11
BRANCH   1  23
ATOM     23  C   UNL     1      33.649 -13.303 -23.456  0.00  0.00    +0.097 C 
BRANCH  23  24
ATOM     24  C   UNL     1      34.860 -14.246 -23.457  0.00  0.00    +0.040 C 
BRANCH  24  25
ATOM     25  C   UNL     1      34.746 -15.460 -24.406  0.00  0.00    +0.091 C 
BRANCH  25  26
ATOM     26  N   UNL     1      35.036 -16.748 -23.753  0.00  0.00    -0.246 NA
ATOM     27  N   UNL     1      35.222 -18.916 -23.312  0.00  0.00    -0.251 NA
ATOM     28  C   UNL     1      35.605 -16.930 -22.518  0.00  0.00    +0.125 C 
ATOM     29  C   UNL     1      34.817 -17.963 -24.204  0.00  0.00    +0.201 C 
ATOM     30  C   UNL     1      35.731 -18.268 -22.222  0.00  0.00    +0.124 C 
BRANCH  30  33
ATOM     31  O   UNL     1      35.666 -19.786 -20.411  0.00  0.00    -0.269 OA
ATOM     32  N   UNL     1      37.538 -18.506 -20.627  0.00  0.00    -0.324 N 
ATOM     33  C   UNL     1      36.264 -18.894 -21.059  0.00  0.00    +0.257 C 
ATOM     34  H   UNL     1      37.934 -18.919 -19.827  0.00  0.00    +0.145 HD
ATOM     35  H   UNL     1      38.039 -17.818 -21.125  0.00  0.00    +0.145 HD
ENDBRANCH  30  33
ENDBRANCH  25  26
BRANCH  25  36
ATOM     36  C   UNL     1      33.361 -15.496 -25.074  0.00  0.00    +0.153 C 
BRANCH  36  37
ATOM     37  O   UNL     1      33.404 -14.780 -26.303  0.00  0.00    -0.381 OA
ATOM     38  H   UNL     1      34.120 -14.127 -26.271  0.00  0.00    +0.210 HD
ENDBRANCH  36  37
ENDBRANCH  25  36
ENDBRANCH  24  25
ENDBRANCH  23  24
ENDBRANCH   1  23
TORSDOF 10
ENDMDL
MODEL 7
REMARK VINA RESULT:     -11.1      2.069      3.833
REMARK  Name = 447546
REMARK  10 active torsions:
REMARK  status: ('A' for Active; 'I' for Inactive)
REMARK    1  A    between atoms: N_1  and  C_23
REMARK    2  A    between atoms: C_8  and  N_11
REMARK    3  A    between atoms: N_12  and  C_16
REMARK    4  A    between atoms: C_16  and  C_17
REMARK    5  A    between atoms: C_23  and  C_24
REMARK    6  A    between atoms: C_24  and  C_25
REMARK    7  A    between atoms: C_25  and  N_26
REMARK    8  A    between atoms: C_25  and  C_36
REMARK    9  A    between atoms: C_30  and  C_33
REMARK   10  A    between atoms: C_36  and  O_37
REMARK                            x       y       z     vdW  Elec       q    Type
REMARK                         _______ _______ _______ _____ _____    ______ ____
ROOT
ATOM      1  N   UNL     1      34.520 -22.372 -17.857  0.00  0.00    -0.286 N 
ATOM      2  C   UNL     1      35.078 -21.495 -18.758  0.00  0.00    +0.053 C 
ATOM      3  C   UNL     1      36.396 -21.272 -18.351  0.00  0.00    +0.015 C 
ATOM      4  C   UNL     1      35.436 -22.712 -16.898  0.00  0.00    +0.065 C 
ATOM      5  C   UNL     1      36.607 -22.047 -17.177  0.00  0.00    +0.017 C 
ATOM      6  C   UNL     1      34.524 -20.887 -19.891  0.00  0.00    +0.030 C 
ATOM      7  C   UNL     1      37.202 -20.400 -19.110  0.00  0.00    +0.003 C 
ATOM      8  C   UNL     1      35.343 -20.026 -20.627  0.00  0.00    +0.053 C 
ATOM      9  C   UNL     1      36.661 -19.786 -20.246  0.00  0.00    +0.015 C 
ENDROOT
BRANCH   8  11
ATOM     10  O   UNL     1      36.628 -18.093 -22.529  0.00  0.00    -0.252 OA
ATOM     11  N   UNL     1      34.830 -19.401 -21.765  0.00  0.00    -0.268 N 
ATOM     12  N   UNL     1      34.612 -18.096 -23.662  0.00  0.00    -0.285 N 
ATOM     13  C   UNL     1      35.473 -18.496 -22.634  0.00  0.00    +0.305 C 
ATOM     14  H   UNL     1      33.898 -19.623 -21.992  0.00  0.00    +0.156 HD
ATOM     15  H   UNL     1      33.700 -18.463 -23.680  0.00  0.00    +0.151 HD
BRANCH  12  16
ATOM     16  C   UNL     1      35.003 -17.170 -24.700  0.00  0.00    +0.118 C 
BRANCH  16  17
ATOM     17  C   UNL     1      34.610 -15.759 -24.371  0.00  0.00    -0.003 C 
ATOM     18  C   UNL     1      35.094 -15.152 -23.214  0.00  0.00    -0.003 C 
ATOM     19  C   UNL     1      33.761 -15.054 -25.226  0.00  0.00    -0.003 C 
ATOM     20  C   UNL     1      34.729 -13.841 -22.909  0.00  0.00    -0.000 C 
ATOM     21  C   UNL     1      33.396 -13.743 -24.921  0.00  0.00    -0.000 C 
ATOM     22  C   UNL     1      33.880 -13.137 -23.762  0.00  0.00    -0.000 C 
ENDBRANCH  16  17
ENDBRANCH  12  16
ENDBRANCH   8  11
BRANCH   1  23
ATOM     23  C   UNL     1      33.162 -22.873 -17.901  0.00  0.00    +0.097 C 
BRANCH  23  24
ATOM     24  C   UNL     1      32.268 -22.375 -16.757  0.00  0.00    +0.040 C 
BRANCH  24  25
ATOM     25  C   UNL     1      31.492 -23.478 -16.003  0.00  0.00    +0.091 C 
BRANCH  25  26
ATOM     26  N   UNL     1      32.145 -23.909 -14.755  0.00  0.00    -0.246 NA
ATOM     27  N   UNL     1      32.578 -24.874 -12.803  0.00  0.00    -0.251 NA
ATOM     28  C   UNL     1      33.401 -23.559 -14.325  0.00  0.00    +0.125 C 
ATOM     29  C   UNL     1      31.678 -24.702 -13.816  0.00  0.00    +0.201 C 
ATOM     30  C   UNL     1      33.692 -24.146 -13.115  0.00  0.00    +0.124 C 
BRANCH  30  33
ATOM     31  O   UNL     1      35.073 -24.737 -11.290  0.00  0.00    -0.269 OA
ATOM     32  N   UNL     1      35.869 -23.158 -12.727  0.00  0.00    -0.324 N 
ATOM     33  C   UNL     1      34.870 -24.051 -12.321  0.00  0.00    +0.257 C 
ATOM     34  H   UNL     1      36.694 -23.069 -12.200  0.00  0.00    +0.145 HD
ATOM     35  H   UNL     1      35.744 -22.617 -13.541  0.00  0.00    +0.145 HD
ENDBRANCH  30  33
ENDBRANCH  25  26
BRANCH  25  36
ATOM     36  C   UNL     1      30.047 -23.029 -15.725  0.00  0.00    +0.153 C 
BRANCH  36  37
ATOM     37  O   UNL     1      29.564 -22.263 -16.823  0.00  0.00    -0.381 OA
ATOM     38  H   UNL     1      30.307 -21.806 -17.248  0.00  0.00    +0.210 HD
ENDBRANCH  36  37
ENDBRANCH  25  36
ENDBRANCH  24  25
ENDBRANCH  23  24
ENDBRANCH   1  23
TORSDOF 10
ENDMDL
MODEL 8
REMARK VINA RESULT:     -10.9      1.215      1.693
REMARK  Name = 447546
REMARK  10 active torsions:
REMARK  status: ('A' for Active; 'I' for Inactive)
REMARK    1  A    between atoms: N_1  and  C_23
REMARK    2  A    between atoms: C_8  and  N_11
REMARK    3  A    between atoms: N_12  and  C_16
REMARK    4  A    between atoms: C_16  and  C_17
REMARK    5  A    between atoms: C_23  and  C_24
REMARK    6  A    between atoms: C_24  and  C_25
REMARK    7  A    between atoms: C_25  and  N_26
REMARK    8  A    between atoms: C_25  and  C_36
REMARK    9  A    between atoms: C_30  and  C_33
REMARK   10  A    between atoms: C_36  and  O_37
REMARK                            x       y       z     vdW  Elec       q    Type
REMARK                         _______ _______ _______ _____ _____    ______ ____
ROOT
ATOM      1  N   UNL     1      34.626 -23.301 -15.782  0.00  0.00    -0.286 N 
ATOM      2  C   UNL     1      35.330 -22.519 -16.670  0.00  0.00    +0.053 C 
ATOM      3  C   UNL     1      36.617 -22.364 -16.149  0.00  0.00    +0.015 C 
ATOM      4  C   UNL     1      35.421 -23.644 -14.721  0.00  0.00    +0.065 C 
ATOM      5  C   UNL     1      36.659 -23.080 -14.920  0.00  0.00    +0.017 C 
ATOM      6  C   UNL     1      34.931 -21.944 -17.882  0.00  0.00    +0.030 C 
ATOM      7  C   UNL     1      37.552 -21.596 -16.871  0.00  0.00    +0.003 C 
ATOM      8  C   UNL     1      35.877 -21.187 -18.580  0.00  0.00    +0.053 C 
ATOM      9  C   UNL     1      37.168 -21.016 -18.085  0.00  0.00    +0.015 C 
ENDROOT
BRANCH   8  11
ATOM     10  O   UNL     1      37.392 -19.282 -20.335  0.00  0.00    -0.252 OA
ATOM     11  N   UNL     1      35.520 -20.598 -19.794  0.00  0.00    -0.268 N 
ATOM     12  N   UNL     1      35.554 -19.343 -21.736  0.00  0.00    -0.285 N 
ATOM     13  C   UNL     1      36.268 -19.705 -20.588  0.00  0.00    +0.305 C 
ATOM     14  H   UNL     1      34.631 -20.839 -20.142  0.00  0.00    +0.156 HD
ATOM     15  H   UNL     1      34.657 -19.724 -21.871  0.00  0.00    +0.151 HD
BRANCH  12  16
ATOM     16  C   UNL     1      36.075 -18.437 -22.734  0.00  0.00    +0.118 C 
BRANCH  16  17
ATOM     17  C   UNL     1      35.536 -17.046 -22.567  0.00  0.00    -0.003 C 
ATOM     18  C   UNL     1      35.322 -16.530 -21.290  0.00  0.00    -0.003 C 
ATOM     19  C   UNL     1      35.250 -16.269 -23.690  0.00  0.00    -0.003 C 
ATOM     20  C   UNL     1      34.821 -15.238 -21.134  0.00  0.00    -0.000 C 
ATOM     21  C   UNL     1      34.749 -14.977 -23.535  0.00  0.00    -0.000 C 
ATOM     22  C   UNL     1      34.535 -14.461 -22.256  0.00  0.00    -0.000 C 
ENDBRANCH  16  17
ENDBRANCH  12  16
ENDBRANCH   8  11
BRANCH   1  23
ATOM     23  C   UNL     1      33.245 -23.708 -15.932  0.00  0.00    +0.097 C 
BRANCH  23  24
ATOM     24  C   UNL     1      32.228 -22.726 -15.334  0.00  0.00    +0.040 C 
BRANCH  24  25
ATOM     25  C   UNL     1      31.081 -23.377 -14.530  0.00  0.00    +0.091 C 
BRANCH  25  26
ATOM     26  N   UNL     1      29.788 -23.369 -15.237  0.00  0.00    -0.246 NA
ATOM     27  N   UNL     1      28.034 -23.944 -16.470  0.00  0.00    -0.251 NA
ATOM     28  C   UNL     1      28.871 -22.348 -15.257  0.00  0.00    +0.125 C 
ATOM     29  C   UNL     1      29.253 -24.315 -15.977  0.00  0.00    +0.201 C 
ATOM     30  C   UNL     1      27.773 -22.682 -16.016  0.00  0.00    +0.124 C 
BRANCH  30  33
ATOM     31  O   UNL     1      25.606 -21.868 -15.538  0.00  0.00    -0.269 OA
ATOM     32  N   UNL     1      26.570 -21.180 -17.485  0.00  0.00    -0.324 N 
ATOM     33  C   UNL     1      26.601 -21.923 -16.299  0.00  0.00    +0.257 C 
ATOM     34  H   UNL     1      25.775 -20.645 -17.710  0.00  0.00    +0.145 HD
ATOM     35  H   UNL     1      27.343 -21.191 -18.094  0.00  0.00    +0.145 HD
ENDBRANCH  30  33
ENDBRANCH  25  26
BRANCH  25  36
ATOM     36  C   UNL     1      31.457 -24.809 -14.115  0.00  0.00    +0.153 C 
BRANCH  36  37
ATOM     37  O   UNL     1      32.029 -24.795 -12.812  0.00  0.00    -0.381 OA
ATOM     38  H   UNL     1      31.975 -23.898 -12.446  0.00  0.00    +0.210 HD
ENDBRANCH  36  37
ENDBRANCH  25  36
ENDBRANCH  24  25
ENDBRANCH  23  24
ENDBRANCH   1  23
TORSDOF 10
ENDMDL
MODEL 9
REMARK VINA RESULT:     -10.8      6.200     12.666
REMARK  Name = 447546
REMARK  10 active torsions:
REMARK  status: ('A' for Active; 'I' for Inactive)
REMARK    1  A    between atoms: N_1  and  C_23
REMARK    2  A    between atoms: C_8  and  N_11
REMARK    3  A    between atoms: N_12  and  C_16
REMARK    4  A    between atoms: C_16  and  C_17
REMARK    5  A    between atoms: C_23  and  C_24
REMARK    6  A    between atoms: C_24  and  C_25
REMARK    7  A    between atoms: C_25  and  N_26
REMARK    8  A    between atoms: C_25  and  C_36
REMARK    9  A    between atoms: C_30  and  C_33
REMARK   10  A    between atoms: C_36  and  O_37
REMARK                            x       y       z     vdW  Elec       q    Type
REMARK                         _______ _______ _______ _____ _____    ______ ____
ROOT
ATOM      1  N   UNL     1      33.990 -11.696 -24.630  0.00  0.00    -0.286 N 
ATOM      2  C   UNL     1      34.115 -13.058 -24.467  0.00  0.00    +0.053 C 
ATOM      3  C   UNL     1      33.633 -13.656 -25.634  0.00  0.00    +0.015 C 
ATOM      4  C   UNL     1      33.449 -11.414 -25.856  0.00  0.00    +0.065 C 
ATOM      5  C   UNL     1      33.218 -12.607 -26.500  0.00  0.00    +0.017 C 
ATOM      6  C   UNL     1      34.611 -13.797 -23.387  0.00  0.00    +0.030 C 
ATOM      7  C   UNL     1      33.646 -15.062 -25.730  0.00  0.00    +0.003 C 
ATOM      8  C   UNL     1      34.614 -15.191 -23.506  0.00  0.00    +0.053 C 
ATOM      9  C   UNL     1      34.141 -15.815 -24.659  0.00  0.00    +0.015 C 
ENDROOT
BRANCH   8  11
ATOM     10  O   UNL     1      35.755 -17.966 -23.503  0.00  0.00    -0.252 OA
ATOM     11  N   UNL     1      35.103 -15.966 -22.454  0.00  0.00    -0.268 N 
ATOM     12  N   UNL     1      36.015 -17.697 -21.221  0.00  0.00    -0.285 N 
ATOM     13  C   UNL     1      35.633 -17.271 -22.499  0.00  0.00    +0.305 C 
ATOM     14  H   UNL     1      35.075 -15.545 -21.564  0.00  0.00    +0.156 HD
ATOM     15  H   UNL     1      35.886 -17.083 -20.464  0.00  0.00    +0.151 HD
BRANCH  12  16
ATOM     16  C   UNL     1      36.591 -18.997 -20.965  0.00  0.00    +0.118 C 
BRANCH  16  17
ATOM     17  C   UNL     1      35.597 -19.941 -20.351  0.00  0.00    -0.003 C 
ATOM     18  C   UNL     1      34.240 -19.808 -20.638  0.00  0.00    -0.003 C 
ATOM     19  C   UNL     1      36.034 -20.952 -19.494  0.00  0.00    -0.003 C 
ATOM     20  C   UNL     1      33.317 -20.685 -20.068  0.00  0.00    -0.000 C 
ATOM     21  C   UNL     1      35.111 -21.829 -18.924  0.00  0.00    -0.000 C 
ATOM     22  C   UNL     1      33.753 -21.696 -19.211  0.00  0.00    -0.000 C 
ENDBRANCH  16  17
ENDBRANCH  12  16
ENDBRANCH   8  11
BRANCH   1  23
ATOM     23  C   UNL     1      34.370 -10.695 -23.657  0.00  0.00    +0.097 C 
BRANCH  23  24
ATOM     24  C   UNL     1      33.379  -9.529 -23.530  0.00  0.00    +0.040 C 
BRANCH  24  25
ATOM     25  C   UNL     1      32.757  -9.346 -22.127  0.00  0.00    +0.091 C 
BRANCH  25  26
ATOM     26  N   UNL     1      32.363  -7.957 -21.834  0.00  0.00    -0.246 NA
ATOM     27  N   UNL     1      31.902  -6.051 -20.796  0.00  0.00    -0.251 NA
ATOM     28  C   UNL     1      31.962  -7.011 -22.744  0.00  0.00    +0.125 C 
ATOM     29  C   UNL     1      32.316  -7.347 -20.671  0.00  0.00    +0.201 C 
ATOM     30  C   UNL     1      31.670  -5.819 -22.122  0.00  0.00    +0.124 C 
BRANCH  30  33
ATOM     31  O   UNL     1      31.094  -4.390 -23.915  0.00  0.00    -0.269 OA
ATOM     32  N   UNL     1      30.890  -3.548 -21.807  0.00  0.00    -0.324 N 
ATOM     33  C   UNL     1      31.224  -4.588 -22.683  0.00  0.00    +0.257 C 
ATOM     34  H   UNL     1      30.578  -2.685 -22.163  0.00  0.00    +0.145 HD
ATOM     35  H   UNL     1      30.967  -3.680 -20.834  0.00  0.00    +0.145 HD
ENDBRANCH  30  33
ENDBRANCH  25  26
BRANCH  25  36
ATOM     36  C   UNL     1      31.561 -10.295 -21.938  0.00  0.00    +0.153 C 
BRANCH  36  37
ATOM     37  O   UNL     1      31.877 -11.273 -20.954  0.00  0.00    -0.381 OA
ATOM     38  H   UNL     1      32.285 -12.041 -21.382  0.00  0.00    +0.210 HD
ENDBRANCH  36  37
ENDBRANCH  25  36
ENDBRANCH  24  25
ENDBRANCH  23  24
ENDBRANCH   1  23
TORSDOF 10
ENDMDL
