MODEL 1
REMARK VINA RESULT:     -12.4      0.000      0.000
REMARK  Name = 118161062
REMARK  4 active torsions:
REMARK  status: ('A' for Active; 'I' for Inactive)
REMARK    1  A    between atoms: N_1  and  C_26
REMARK    2  A    between atoms: C_7  and  C_15
REMARK    3  A    between atoms: C_21  and  N_28
REMARK    4  A    between atoms: N_27  and  C_35
REMARK                            x       y       z     vdW  Elec       q    Type
REMARK                         _______ _______ _______ _____ _____    ______ ____
ROOT
ATOM      1  N   UNL     1      36.367 -22.833 -16.312  0.00  0.00    -0.286 N 
ATOM      2  N   UNL     1      34.900 -23.672 -13.020  0.00  0.00    -0.260 N 
ATOM      3  N   UNL     1      34.160 -23.219 -15.649  0.00  0.00    -0.384 NA
ATOM      4  N   UNL     1      37.057 -23.339 -13.475  0.00  0.00    -0.224 NA
ATOM      5  C   UNL     1      35.441 -23.137 -15.343  0.00  0.00    +0.216 C 
ATOM      6  C   UNL     1      35.842 -23.374 -13.969  0.00  0.00    +0.180 C 
ATOM      7  C   UNL     1      33.230 -23.530 -14.658  0.00  0.00    +0.162 C 
ATOM      8  C   UNL     1      33.567 -23.749 -13.367  0.00  0.00    +0.159 C 
ATOM      9  C   UNL     1      35.559 -23.836 -11.834  0.00  0.00    +0.088 C 
ATOM     10  C   UNL     1      36.888 -23.626 -12.141  0.00  0.00    +0.117 C 
ATOM     11  H   UNL     1      37.267 -23.210 -16.186  0.00  0.00    +0.155 HD
ENDROOT
BRANCH   7  15
ATOM     12  N   UNL     1      31.026 -24.474 -14.409  0.00  0.00    -0.386 NA
ATOM     13  N   UNL     1      30.026 -22.831 -16.450  0.00  0.00    -0.257 NA
ATOM     14  N   UNL     1      28.845 -25.414 -14.157  0.00  0.00    -0.335 N 
ATOM     15  C   UNL     1      31.807 -23.593 -15.064  0.00  0.00    +0.178 C 
ATOM     16  C   UNL     1      31.317 -22.786 -16.066  0.00  0.00    +0.128 C 
ATOM     17  C   UNL     1      29.734 -24.518 -14.792  0.00  0.00    +0.179 C 
ATOM     18  C   UNL     1      29.243 -23.711 -15.795  0.00  0.00    +0.199 C 
ATOM     19  H   UNL     1      29.170 -26.002 -13.438  0.00  0.00    +0.144 HD
ATOM     20  H   UNL     1      27.901 -25.450 -14.435  0.00  0.00    +0.144 HD
ENDBRANCH   7  15
BRANCH   1  26
ATOM     21  C   UNL     1      35.808 -20.485 -19.750  0.00  0.00    +0.048 C 
ATOM     22  C   UNL     1      34.798 -21.347 -19.323  0.00  0.00    +0.016 C 
ATOM     23  C   UNL     1      37.004 -20.403 -19.036  0.00  0.00    +0.016 C 
ATOM     24  C   UNL     1      34.983 -22.126 -18.180  0.00  0.00    +0.016 C 
ATOM     25  C   UNL     1      37.188 -21.182 -17.894  0.00  0.00    +0.016 C 
ATOM     26  C   UNL     1      36.179 -22.044 -17.466  0.00  0.00    +0.050 C 
BRANCH  21  28
ATOM     27  N   UNL     1      35.194 -17.908 -23.072  0.00  0.00    +0.394 N 
ATOM     28  N   UNL     1      35.622 -19.704 -20.896  0.00  0.00    -0.312 N 
ATOM     29  C   UNL     1      36.559 -18.231 -22.636  0.00  0.00    -0.055 C 
ATOM     30  C   UNL     1      34.324 -19.076 -22.894  0.00  0.00    -0.055 C 
ATOM     31  C   UNL     1      36.580 -18.621 -21.157  0.00  0.00    +0.068 C 
ATOM     32  C   UNL     1      34.269 -19.497 -21.424  0.00  0.00    +0.068 C 
ATOM     33  H   UNL     1      34.837 -17.135 -22.511  0.00  0.00    -0.079 HD
BRANCH  27  35
ATOM     34  O   UNL     1      33.836 -16.134 -25.339  0.00  0.00    -0.358 OA
ATOM     35  C   UNL     1      35.214 -17.528 -24.495  0.00  0.00    +0.002 C 
ATOM     36  C   UNL     1      33.786 -17.553 -25.041  0.00  0.00    +0.124 C 
ATOM     37  C   UNL     1      35.080 -16.008 -24.604  0.00  0.00    +0.124 C 
ENDBRANCH  27  35
ENDBRANCH  21  28
ENDBRANCH   1  26
TORSDOF 4
ENDMDL
MODEL 2
REMARK VINA RESULT:     -12.2      0.822      1.324
REMARK  Name = 118161062
REMARK  4 active torsions:
REMARK  status: ('A' for Active; 'I' for Inactive)
REMARK    1  A    between atoms: N_1  and  C_26
REMARK    2  A    between atoms: C_7  and  C_15
REMARK    3  A    between atoms: C_21  and  N_28
REMARK    4  A    between atoms: N_27  and  C_35
REMARK                            x       y       z     vdW  Elec       q    Type
REMARK                         _______ _______ _______ _____ _____    ______ ____
ROOT
ATOM      1  N   UNL     1      36.940 -22.745 -15.806  0.00  0.00    -0.286 N 
ATOM      2  N   UNL     1      35.514 -23.623 -12.506  0.00  0.00    -0.260 N 
ATOM      3  N   UNL     1      34.775 -23.338 -15.159  0.00  0.00    -0.384 NA
ATOM      4  N   UNL     1      37.632 -23.081 -12.944  0.00  0.00    -0.224 NA
ATOM      5  C   UNL     1      36.035 -23.112 -14.839  0.00  0.00    +0.216 C 
ATOM      6  C   UNL     1      36.436 -23.260 -13.453  0.00  0.00    +0.180 C 
ATOM      7  C   UNL     1      33.866 -23.713 -14.170  0.00  0.00    +0.162 C 
ATOM      8  C   UNL     1      34.202 -23.851 -12.868  0.00  0.00    +0.159 C 
ATOM      9  C   UNL     1      36.166 -23.678 -11.307  0.00  0.00    +0.088 C 
ATOM     10  C   UNL     1      37.471 -23.341 -11.603  0.00  0.00    +0.117 C 
ATOM     11  H   UNL     1      37.873 -23.021 -15.655  0.00  0.00    +0.155 HD
ENDROOT
BRANCH   7  15
ATOM     12  N   UNL     1      31.955 -23.077 -15.495  0.00  0.00    -0.386 NA
ATOM     13  N   UNL     1      30.449 -25.201 -14.452  0.00  0.00    -0.257 NA
ATOM     14  N   UNL     1      30.066 -22.440 -16.809  0.00  0.00    -0.335 N 
ATOM     15  C   UNL     1      32.465 -23.938 -14.593  0.00  0.00    +0.178 C 
ATOM     16  C   UNL     1      31.726 -24.981 -14.081  0.00  0.00    +0.128 C 
ATOM     17  C   UNL     1      30.678 -23.296 -15.867  0.00  0.00    +0.179 C 
ATOM     18  C   UNL     1      29.938 -24.340 -15.355  0.00  0.00    +0.199 C 
ATOM     19  H   UNL     1      30.571 -21.687 -17.191  0.00  0.00    +0.144 HD
ATOM     20  H   UNL     1      29.133 -22.597 -17.083  0.00  0.00    +0.144 HD
ENDBRANCH   7  15
BRANCH   1  26
ATOM     21  C   UNL     1      36.198 -20.584 -19.331  0.00  0.00    +0.048 C 
ATOM     22  C   UNL     1      35.326 -21.600 -18.939  0.00  0.00    +0.016 C 
ATOM     23  C   UNL     1      37.317 -20.286 -18.552  0.00  0.00    +0.016 C 
ATOM     24  C   UNL     1      35.571 -22.317 -17.768  0.00  0.00    +0.016 C 
ATOM     25  C   UNL     1      37.562 -21.003 -17.381  0.00  0.00    +0.016 C 
ATOM     26  C   UNL     1      36.690 -22.019 -16.989  0.00  0.00    +0.050 C 
BRANCH  21  28
ATOM     27  N   UNL     1      35.420 -18.185 -22.750  0.00  0.00    +0.394 N 
ATOM     28  N   UNL     1      35.951 -19.865 -20.506  0.00  0.00    -0.312 N 
ATOM     29  C   UNL     1      36.802 -18.543 -22.404  0.00  0.00    -0.055 C 
ATOM     30  C   UNL     1      34.521 -19.299 -22.430  0.00  0.00    -0.055 C 
ATOM     31  C   UNL     1      36.928 -18.845 -20.909  0.00  0.00    +0.068 C 
ATOM     32  C   UNL     1      34.569 -19.628 -20.937  0.00  0.00    +0.068 C 
ATOM     33  H   UNL     1      35.142 -17.364 -22.213  0.00  0.00    -0.079 HD
BRANCH  27  35
ATOM     34  O   UNL     1      33.707 -16.831 -25.066  0.00  0.00    -0.358 OA
ATOM     35  C   UNL     1      35.339 -17.891 -24.191  0.00  0.00    +0.002 C 
ATOM     36  C   UNL     1      33.931 -18.214 -24.690  0.00  0.00    +0.124 C 
ATOM     37  C   UNL     1      34.920 -16.432 -24.378  0.00  0.00    +0.124 C 
ENDBRANCH  27  35
ENDBRANCH  21  28
ENDBRANCH   1  26
TORSDOF 4
ENDMDL
MODEL 3
REMARK VINA RESULT:      -9.9      1.535      2.193
REMARK  Name = 118161062
REMARK  4 active torsions:
REMARK  status: ('A' for Active; 'I' for Inactive)
REMARK    1  A    between atoms: N_1  and  C_26
REMARK    2  A    between atoms: C_7  and  C_15
REMARK    3  A    between atoms: C_21  and  N_28
REMARK    4  A    between atoms: N_27  and  C_35
REMARK                            x       y       z     vdW  Elec       q    Type
REMARK                         _______ _______ _______ _____ _____    ______ ____
ROOT
ATOM      1  N   UNL     1      36.887 -21.945 -18.182  0.00  0.00    -0.286 N 
ATOM      2  N   UNL     1      36.121 -23.285 -14.819  0.00  0.00    -0.260 N 
ATOM      3  N   UNL     1      34.860 -22.460 -17.140  0.00  0.00    -0.384 NA
ATOM      4  N   UNL     1      38.143 -22.855 -15.657  0.00  0.00    -0.224 NA
ATOM      5  C   UNL     1      36.177 -22.403 -17.098  0.00  0.00    +0.216 C 
ATOM      6  C   UNL     1      36.851 -22.835 -15.888  0.00  0.00    +0.180 C 
ATOM      7  C   UNL     1      34.151 -22.929 -16.035  0.00  0.00    +0.162 C 
ATOM      8  C   UNL     1      34.745 -23.331 -14.890  0.00  0.00    +0.159 C 
ATOM      9  C   UNL     1      37.009 -23.613 -13.833  0.00  0.00    +0.088 C 
ATOM     10  C   UNL     1      38.249 -23.339 -14.374  0.00  0.00    +0.117 C 
ATOM     11  H   UNL     1      37.788 -22.322 -18.303  0.00  0.00    +0.155 HD
ENDROOT
BRANCH   7  15
ATOM     12  N   UNL     1      32.013 -23.740 -15.271  0.00  0.00    -0.386 NA
ATOM     13  N   UNL     1      30.674 -22.216 -17.207  0.00  0.00    -0.257 NA
ATOM     14  N   UNL     1      29.900 -24.548 -14.508  0.00  0.00    -0.335 N 
ATOM     15  C   UNL     1      32.674 -22.953 -16.143  0.00  0.00    +0.178 C 
ATOM     16  C   UNL     1      32.017 -22.204 -17.094  0.00  0.00    +0.128 C 
ATOM     17  C   UNL     1      30.670 -23.750 -15.383  0.00  0.00    +0.179 C 
ATOM     18  C   UNL     1      30.012 -23.001 -16.334  0.00  0.00    +0.199 C 
ATOM     19  H   UNL     1      30.344 -25.093 -13.819  0.00  0.00    +0.144 HD
ATOM     20  H   UNL     1      28.918 -24.558 -14.587  0.00  0.00    +0.144 HD
ENDBRANCH   7  15
BRANCH   1  26
ATOM     21  C   UNL     1      35.664 -19.123 -21.043  0.00  0.00    +0.048 C 
ATOM     22  C   UNL     1      34.754 -20.059 -20.554  0.00  0.00    +0.016 C 
ATOM     23  C   UNL     1      36.981 -19.124 -20.583  0.00  0.00    +0.016 C 
ATOM     24  C   UNL     1      35.159 -20.995 -19.603  0.00  0.00    +0.016 C 
ATOM     25  C   UNL     1      37.386 -20.061 -19.632  0.00  0.00    +0.016 C 
ATOM     26  C   UNL     1      36.476 -20.996 -19.142  0.00  0.00    +0.050 C 
BRANCH  21  28
ATOM     27  N   UNL     1      34.656 -16.315 -24.068  0.00  0.00    +0.394 N 
ATOM     28  N   UNL     1      35.257 -18.184 -21.997  0.00  0.00    -0.312 N 
ATOM     29  C   UNL     1      34.087 -17.668 -24.105  0.00  0.00    -0.055 C 
ATOM     30  C   UNL     1      34.782 -15.864 -22.678  0.00  0.00    -0.055 C 
ATOM     31  C   UNL     1      34.988 -18.657 -23.361  0.00  0.00    +0.068 C 
ATOM     32  C   UNL     1      35.705 -16.792 -21.885  0.00  0.00    +0.068 C 
ATOM     33  H   UNL     1      35.578 -16.327 -24.502  0.00  0.00    -0.079 HD
BRANCH  27  35
ATOM     34  O   UNL     1      34.060 -13.280 -24.821  0.00  0.00    -0.358 OA
ATOM     35  C   UNL     1      33.770 -15.394 -24.801  0.00  0.00    +0.002 C 
ATOM     36  C   UNL     1      33.427 -14.207 -23.902  0.00  0.00    +0.124 C 
ATOM     37  C   UNL     1      34.626 -14.386 -25.569  0.00  0.00    +0.124 C 
ENDBRANCH  27  35
ENDBRANCH  21  28
ENDBRANCH   1  26
TORSDOF 4
ENDMDL
