MODEL 1
REMARK VINA RESULT:     -12.0      0.000      0.000
REMARK  Name = 17758361
REMARK  5 active torsions:
REMARK  status: ('A' for Active; 'I' for Inactive)
REMARK    1  A    between atoms: N_1  and  C_18
REMARK    2  A    between atoms: C_4  and  C_10
REMARK    3  A    between atoms: C_10  and  C_11
REMARK    4  A    between atoms: C_18  and  C_19
REMARK    5  A    between atoms: C_22  and  C_27
REMARK                            x       y       z     vdW  Elec       q    Type
REMARK                         _______ _______ _______ _____ _____    ______ ____
ROOT
ATOM      1  N   UNL     1      32.711 -22.194 -18.197  0.00  0.00    -0.314 N 
ATOM      2  N   UNL     1      30.786 -22.222 -16.843  0.00  0.00    -0.229 NA
ATOM      3  C   UNL     1      32.088 -22.544 -17.011  0.00  0.00    +0.129 C 
ATOM      4  C   UNL     1      32.240 -23.564 -14.869  0.00  0.00    +0.043 C 
ATOM      5  C   UNL     1      32.852 -23.208 -16.065  0.00  0.00    +0.037 C 
ATOM      6  C   UNL     1      30.901 -23.250 -14.658  0.00  0.00    +0.024 C 
ATOM      7  C   UNL     1      30.224 -22.584 -15.668  0.00  0.00    +0.100 C 
ATOM      8  H   UNL     1      32.180 -21.722 -18.879  0.00  0.00    +0.149 HD
ENDROOT
BRANCH   4  10
ATOM      9  O   UNL     1      32.407 -24.909 -12.962  0.00  0.00    -0.287 OA
ATOM     10  C   UNL     1      32.995 -24.262 -13.840  0.00  0.00    +0.196 C 
BRANCH  10  11
ATOM     11  C   UNL     1      34.489 -24.236 -13.788  0.00  0.00    +0.039 C 
ATOM     12  C   UNL     1      35.139 -23.577 -12.744  0.00  0.00    -0.001 C 
ATOM     13  C   UNL     1      36.532 -23.553 -12.694  0.00  0.00    -0.022 C 
ATOM     14  C   UNL     1      35.232 -24.872 -14.781  0.00  0.00    +0.003 C 
ATOM     15  C   UNL     1      37.276 -24.190 -13.689  0.00  0.00    -0.004 C 
ATOM     16  C   UNL     1      36.626 -24.850 -14.731  0.00  0.00    -0.000 C 
ATOM     17  C   UNL     1      37.228 -22.851 -11.578  0.00  0.00    +0.031 C 
ENDBRANCH  10  11
ENDBRANCH   4  10
BRANCH   1  18
ATOM     18  C   UNL     1      34.098 -22.483 -18.488  0.00  0.00    +0.115 C 
BRANCH  18  19
ATOM     19  C   UNL     1      34.703 -21.408 -19.327  0.00  0.00    -0.003 C 
ATOM     20  C   UNL     1      33.885 -20.583 -20.100  0.00  0.00    -0.003 C 
ATOM     21  C   UNL     1      36.086 -21.229 -19.341  0.00  0.00    -0.003 C 
ATOM     22  C   UNL     1      35.833 -19.400 -20.898  0.00  0.00    +0.031 C 
ATOM     23  C   UNL     1      34.450 -19.579 -20.885  0.00  0.00    +0.002 C 
ATOM     24  C   UNL     1      36.651 -20.224 -20.126  0.00  0.00    +0.002 C 
BRANCH  22  27
ATOM     25  N   UNL     1      37.774 -18.367 -22.053  0.00  0.00    -0.343 N 
ATOM     26  N   UNL     1      35.668 -17.359 -22.156  0.00  0.00    -0.285 NA
ATOM     27  C   UNL     1      36.421 -18.352 -21.717  0.00  0.00    +0.117 C 
ATOM     28  H   UNL     1      38.152 -17.648 -22.609  0.00  0.00    +0.144 HD
ATOM     29  H   UNL     1      38.352 -19.098 -21.734  0.00  0.00    +0.144 HD
ATOM     30  H   UNL     1      36.064 -16.649 -22.711  0.00  0.00    +0.188 HD
ENDBRANCH  22  27
ENDBRANCH  18  19
ENDBRANCH   1  18
TORSDOF 5
ENDMDL
MODEL 2
REMARK VINA RESULT:     -11.7      0.786      1.868
REMARK  Name = 17758361
REMARK  5 active torsions:
REMARK  status: ('A' for Active; 'I' for Inactive)
REMARK    1  A    between atoms: N_1  and  C_18
REMARK    2  A    between atoms: C_4  and  C_10
REMARK    3  A    between atoms: C_10  and  C_11
REMARK    4  A    between atoms: C_18  and  C_19
REMARK    5  A    between atoms: C_22  and  C_27
REMARK                            x       y       z     vdW  Elec       q    Type
REMARK                         _______ _______ _______ _____ _____    ______ ____
ROOT
ATOM      1  N   UNL     1      32.841 -22.314 -18.309  0.00  0.00    -0.314 N 
ATOM      2  N   UNL     1      31.032 -22.392 -16.805  0.00  0.00    -0.229 NA
ATOM      3  C   UNL     1      32.342 -22.613 -17.052  0.00  0.00    +0.129 C 
ATOM      4  C   UNL     1      32.745 -23.427 -14.855  0.00  0.00    +0.043 C 
ATOM      5  C   UNL     1      33.232 -23.124 -16.121  0.00  0.00    +0.037 C 
ATOM      6  C   UNL     1      31.403 -23.213 -14.562  0.00  0.00    +0.024 C 
ATOM      7  C   UNL     1      30.595 -22.698 -15.563  0.00  0.00    +0.100 C 
ATOM      8  H   UNL     1      32.220 -21.951 -18.981  0.00  0.00    +0.149 HD
ENDROOT
BRANCH   4  10
ATOM      9  O   UNL     1      33.187 -24.330 -12.743  0.00  0.00    -0.287 OA
ATOM     10  C   UNL     1      33.636 -23.965 -13.838  0.00  0.00    +0.196 C 
BRANCH  10  11
ATOM     11  C   UNL     1      35.108 -24.104 -14.057  0.00  0.00    +0.039 C 
ATOM     12  C   UNL     1      35.630 -25.297 -14.557  0.00  0.00    -0.001 C 
ATOM     13  C   UNL     1      37.003 -25.426 -14.762  0.00  0.00    -0.022 C 
ATOM     14  C   UNL     1      35.959 -23.040 -13.761  0.00  0.00    +0.003 C 
ATOM     15  C   UNL     1      37.856 -24.361 -14.466  0.00  0.00    -0.004 C 
ATOM     16  C   UNL     1      37.333 -23.169 -13.967  0.00  0.00    -0.000 C 
ATOM     17  C   UNL     1      37.562 -26.700 -15.299  0.00  0.00    +0.031 C 
ENDBRANCH  10  11
ENDBRANCH   4  10
BRANCH   1  18
ATOM     18  C   UNL     1      34.223 -22.507 -18.688  0.00  0.00    +0.115 C 
BRANCH  18  19
ATOM     19  C   UNL     1      34.719 -21.358 -19.500  0.00  0.00    -0.003 C 
ATOM     20  C   UNL     1      36.087 -21.091 -19.566  0.00  0.00    -0.003 C 
ATOM     21  C   UNL     1      33.816 -20.550 -20.192  0.00  0.00    -0.003 C 
ATOM     22  C   UNL     1      35.649 -19.209 -21.016  0.00  0.00    +0.031 C 
ATOM     23  C   UNL     1      36.551 -20.016 -20.324  0.00  0.00    +0.002 C 
ATOM     24  C   UNL     1      34.281 -19.476 -20.950  0.00  0.00    +0.002 C 
BRANCH  22  27
ATOM     25  N   UNL     1      35.512 -16.843 -21.757  0.00  0.00    -0.343 N 
ATOM     26  N   UNL     1      37.184 -18.245 -22.593  0.00  0.00    -0.285 NA
ATOM     27  C   UNL     1      36.134 -18.089 -21.806  0.00  0.00    +0.117 C 
ATOM     28  H   UNL     1      35.857 -16.098 -22.300  0.00  0.00    +0.144 HD
ATOM     29  H   UNL     1      34.726 -16.708 -21.179  0.00  0.00    +0.144 HD
ATOM     30  H   UNL     1      37.515 -17.488 -23.128  0.00  0.00    +0.188 HD
ENDBRANCH  22  27
ENDBRANCH  18  19
ENDBRANCH   1  18
TORSDOF 5
ENDMDL
MODEL 3
REMARK VINA RESULT:     -11.5      5.813     11.546
REMARK  Name = 17758361
REMARK  5 active torsions:
REMARK  status: ('A' for Active; 'I' for Inactive)
REMARK    1  A    between atoms: N_1  and  C_18
REMARK    2  A    between atoms: C_4  and  C_10
REMARK    3  A    between atoms: C_10  and  C_11
REMARK    4  A    between atoms: C_18  and  C_19
REMARK    5  A    between atoms: C_22  and  C_27
REMARK                            x       y       z     vdW  Elec       q    Type
REMARK                         _______ _______ _______ _____ _____    ______ ____
ROOT
ATOM      1  N   UNL     1      35.928 -17.800 -23.494  0.00  0.00    -0.314 N 
ATOM      2  N   UNL     1      34.504 -16.760 -25.053  0.00  0.00    -0.229 NA
ATOM      3  C   UNL     1      35.131 -16.727 -23.856  0.00  0.00    +0.129 C 
ATOM      4  C   UNL     1      34.236 -14.594 -23.307  0.00  0.00    +0.043 C 
ATOM      5  C   UNL     1      35.032 -15.678 -22.956  0.00  0.00    +0.037 C 
ATOM      6  C   UNL     1      33.574 -14.591 -24.530  0.00  0.00    +0.024 C 
ATOM      7  C   UNL     1      33.740 -15.689 -25.360  0.00  0.00    +0.100 C 
ATOM      8  H   UNL     1      36.008 -18.553 -24.123  0.00  0.00    +0.149 HD
ENDROOT
BRANCH   4  10
ATOM      9  O   UNL     1      34.228 -13.625 -21.178  0.00  0.00    -0.287 OA
ATOM     10  C   UNL     1      34.097 -13.465 -22.400  0.00  0.00    +0.196 C 
BRANCH  10  11
ATOM     11  C   UNL     1      33.794 -12.083 -22.882  0.00  0.00    +0.039 C 
ATOM     12  C   UNL     1      32.813 -11.321 -22.246  0.00  0.00    -0.001 C 
ATOM     13  C   UNL     1      32.531 -10.032 -22.695  0.00  0.00    -0.022 C 
ATOM     14  C   UNL     1      34.492 -11.556 -23.967  0.00  0.00    +0.003 C 
ATOM     15  C   UNL     1      33.231  -9.503 -23.781  0.00  0.00    -0.004 C 
ATOM     16  C   UNL     1      34.211 -10.265 -24.416  0.00  0.00    -0.000 C 
ATOM     17  C   UNL     1      31.486  -9.216 -22.014  0.00  0.00    +0.031 C 
ENDBRANCH  10  11
ENDBRANCH   4  10
BRANCH   1  18
ATOM     18  C   UNL     1      36.648 -17.875 -22.242  0.00  0.00    +0.115 C 
BRANCH  18  19
ATOM     19  C   UNL     1      36.073 -18.930 -21.357  0.00  0.00    -0.003 C 
ATOM     20  C   UNL     1      36.910 -19.679 -20.530  0.00  0.00    -0.003 C 
ATOM     21  C   UNL     1      34.698 -19.167 -21.357  0.00  0.00    -0.003 C 
ATOM     22  C   UNL     1      34.999 -20.903 -19.704  0.00  0.00    +0.031 C 
ATOM     23  C   UNL     1      36.373 -20.666 -19.704  0.00  0.00    +0.002 C 
ATOM     24  C   UNL     1      34.161 -20.154 -20.530  0.00  0.00    +0.002 C 
BRANCH  22  27
ATOM     25  N   UNL     1      33.138 -22.397 -19.018  0.00  0.00    -0.343 N 
ATOM     26  N   UNL     1      35.171 -22.442 -17.867  0.00  0.00    -0.285 NA
ATOM     27  C   UNL     1      34.440 -21.932 -18.842  0.00  0.00    +0.117 C 
ATOM     28  H   UNL     1      32.779 -23.095 -18.423  0.00  0.00    +0.144 HD
ATOM     29  H   UNL     1      32.576 -22.028 -19.738  0.00  0.00    +0.144 HD
ATOM     30  H   UNL     1      34.795 -23.139 -17.282  0.00  0.00    +0.188 HD
ENDBRANCH  22  27
ENDBRANCH  18  19
ENDBRANCH   1  18
TORSDOF 5
ENDMDL
MODEL 4
REMARK VINA RESULT:     -11.5      1.659      4.351
REMARK  Name = 17758361
REMARK  5 active torsions:
REMARK  status: ('A' for Active; 'I' for Inactive)
REMARK    1  A    between atoms: N_1  and  C_18
REMARK    2  A    between atoms: C_4  and  C_10
REMARK    3  A    between atoms: C_10  and  C_11
REMARK    4  A    between atoms: C_18  and  C_19
REMARK    5  A    between atoms: C_22  and  C_27
REMARK                            x       y       z     vdW  Elec       q    Type
REMARK                         _______ _______ _______ _____ _____    ______ ____
ROOT
ATOM      1  N   UNL     1      35.078 -22.676 -17.438  0.00  0.00    -0.314 N 
ATOM      2  N   UNL     1      36.106 -23.551 -15.510  0.00  0.00    -0.229 NA
ATOM      3  C   UNL     1      34.991 -23.092 -16.120  0.00  0.00    +0.129 C 
ATOM      4  C   UNL     1      33.646 -23.425 -14.188  0.00  0.00    +0.043 C 
ATOM      5  C   UNL     1      33.749 -23.009 -15.511  0.00  0.00    +0.037 C 
ATOM      6  C   UNL     1      34.772 -23.903 -13.525  0.00  0.00    +0.024 C 
ATOM      7  C   UNL     1      35.967 -23.946 -14.224  0.00  0.00    +0.100 C 
ATOM      8  H   UNL     1      35.955 -22.728 -17.885  0.00  0.00    +0.149 HD
ENDROOT
BRANCH   4  10
ATOM      9  O   UNL     1      32.305 -22.952 -12.330  0.00  0.00    -0.287 OA
ATOM     10  C   UNL     1      32.367 -23.361 -13.499  0.00  0.00    +0.196 C 
BRANCH  10  11
ATOM     11  C   UNL     1      31.086 -23.774 -14.149  0.00  0.00    +0.039 C 
ATOM     12  C   UNL     1      30.246 -22.812 -14.710  0.00  0.00    -0.001 C 
ATOM     13  C   UNL     1      29.052 -23.198 -15.317  0.00  0.00    -0.022 C 
ATOM     14  C   UNL     1      30.732 -25.122 -14.195  0.00  0.00    +0.003 C 
ATOM     15  C   UNL     1      28.697 -24.547 -15.364  0.00  0.00    -0.004 C 
ATOM     16  C   UNL     1      29.537 -25.508 -14.804  0.00  0.00    -0.000 C 
ATOM     17  C   UNL     1      28.155 -22.170 -15.921  0.00  0.00    +0.031 C 
ENDBRANCH  10  11
ENDBRANCH   4  10
BRANCH   1  18
ATOM     18  C   UNL     1      33.954 -22.169 -18.194  0.00  0.00    +0.115 C 
BRANCH  18  19
ATOM     19  C   UNL     1      34.409 -21.235 -19.266  0.00  0.00    -0.003 C 
ATOM     20  C   UNL     1      35.772 -21.028 -19.477  0.00  0.00    -0.003 C 
ATOM     21  C   UNL     1      33.471 -20.569 -20.055  0.00  0.00    -0.003 C 
ATOM     22  C   UNL     1      35.260 -19.488 -21.266  0.00  0.00    +0.031 C 
ATOM     23  C   UNL     1      36.197 -20.154 -20.477  0.00  0.00    +0.002 C 
ATOM     24  C   UNL     1      33.897 -19.695 -21.055  0.00  0.00    +0.002 C 
BRANCH  22  27
ATOM     25  N   UNL     1      37.043 -18.211 -22.431  0.00  0.00    -0.343 N 
ATOM     26  N   UNL     1      34.828 -18.077 -23.163  0.00  0.00    -0.285 NA
ATOM     27  C   UNL     1      35.704 -18.577 -22.309  0.00  0.00    +0.117 C 
ATOM     28  H   UNL     1      37.323 -17.594 -23.144  0.00  0.00    +0.144 HD
ATOM     29  H   UNL     1      37.711 -18.571 -21.802  0.00  0.00    +0.144 HD
ATOM     30  H   UNL     1      35.127 -17.461 -23.870  0.00  0.00    +0.188 HD
ENDBRANCH  22  27
ENDBRANCH  18  19
ENDBRANCH   1  18
TORSDOF 5
ENDMDL
MODEL 5
REMARK VINA RESULT:     -11.4      5.347      8.998
REMARK  Name = 17758361
REMARK  5 active torsions:
REMARK  status: ('A' for Active; 'I' for Inactive)
REMARK    1  A    between atoms: N_1  and  C_18
REMARK    2  A    between atoms: C_4  and  C_10
REMARK    3  A    between atoms: C_10  and  C_11
REMARK    4  A    between atoms: C_18  and  C_19
REMARK    5  A    between atoms: C_22  and  C_27
REMARK                            x       y       z     vdW  Elec       q    Type
REMARK                         _______ _______ _______ _____ _____    ______ ____
ROOT
ATOM      1  N   UNL     1      34.639 -15.375 -24.418  0.00  0.00    -0.314 N 
ATOM      2  N   UNL     1      34.080 -17.603 -24.934  0.00  0.00    -0.229 NA
ATOM      3  C   UNL     1      34.760 -16.730 -24.158  0.00  0.00    +0.129 C 
ATOM      4  C   UNL     1      35.707 -18.460 -22.830  0.00  0.00    +0.043 C 
ATOM      5  C   UNL     1      35.578 -17.103 -23.104  0.00  0.00    +0.037 C 
ATOM      6  C   UNL     1      35.023 -19.389 -23.607  0.00  0.00    +0.024 C 
ATOM      7  C   UNL     1      34.229 -18.913 -24.639  0.00  0.00    +0.100 C 
ATOM      8  H   UNL     1      34.062 -15.095 -25.165  0.00  0.00    +0.149 HD
ENDROOT
BRANCH   4  10
ATOM      9  O   UNL     1      37.724 -18.514 -21.647  0.00  0.00    -0.287 OA
ATOM     10  C   UNL     1      36.553 -18.908 -21.735  0.00  0.00    +0.196 C 
BRANCH  10  11
ATOM     11  C   UNL     1      36.065 -19.848 -20.679  0.00  0.00    +0.039 C 
ATOM     12  C   UNL     1      34.696 -20.053 -20.507  0.00  0.00    -0.001 C 
ATOM     13  C   UNL     1      34.241 -20.930 -19.523  0.00  0.00    -0.022 C 
ATOM     14  C   UNL     1      36.979 -20.519 -19.869  0.00  0.00    +0.003 C 
ATOM     15  C   UNL     1      35.155 -21.603 -18.711  0.00  0.00    -0.004 C 
ATOM     16  C   UNL     1      36.524 -21.398 -18.884  0.00  0.00    -0.000 C 
ATOM     17  C   UNL     1      32.778 -21.153 -19.340  0.00  0.00    +0.031 C 
ENDBRANCH  10  11
ENDBRANCH   4  10
BRANCH   1  18
ATOM     18  C   UNL     1      35.316 -14.351 -23.654  0.00  0.00    +0.115 C 
BRANCH  18  19
ATOM     19  C   UNL     1      34.342 -13.540 -22.867  0.00  0.00    -0.003 C 
ATOM     20  C   UNL     1      33.946 -13.966 -21.599  0.00  0.00    -0.003 C 
ATOM     21  C   UNL     1      33.827 -12.357 -23.398  0.00  0.00    -0.003 C 
ATOM     22  C   UNL     1      32.519 -12.028 -21.394  0.00  0.00    +0.031 C 
ATOM     23  C   UNL     1      33.034 -13.210 -20.863  0.00  0.00    +0.002 C 
ATOM     24  C   UNL     1      32.916 -11.602 -22.662  0.00  0.00    +0.002 C 
BRANCH  22  27
ATOM     25  N   UNL     1      31.900 -10.720 -19.376  0.00  0.00    -0.343 N 
ATOM     26  N   UNL     1      30.362 -11.009 -21.111  0.00  0.00    -0.285 NA
ATOM     27  C   UNL     1      31.569 -11.240 -20.626  0.00  0.00    +0.117 C 
ATOM     28  H   UNL     1      31.241 -10.189 -18.873  0.00  0.00    +0.144 HD
ATOM     29  H   UNL     1      32.794 -10.884 -18.996  0.00  0.00    +0.144 HD
ATOM     30  H   UNL     1      29.717 -10.475 -20.593  0.00  0.00    +0.188 HD
ENDBRANCH  22  27
ENDBRANCH  18  19
ENDBRANCH   1  18
TORSDOF 5
ENDMDL
MODEL 6
REMARK VINA RESULT:     -11.2      5.364      9.040
REMARK  Name = 17758361
REMARK  5 active torsions:
REMARK  status: ('A' for Active; 'I' for Inactive)
REMARK    1  A    between atoms: N_1  and  C_18
REMARK    2  A    between atoms: C_4  and  C_10
REMARK    3  A    between atoms: C_10  and  C_11
REMARK    4  A    between atoms: C_18  and  C_19
REMARK    5  A    between atoms: C_22  and  C_27
REMARK                            x       y       z     vdW  Elec       q    Type
REMARK                         _______ _______ _______ _____ _____    ______ ____
ROOT
ATOM      1  N   UNL     1      34.716 -15.322 -24.285  0.00  0.00    -0.314 N 
ATOM      2  N   UNL     1      34.205 -17.523 -24.945  0.00  0.00    -0.229 NA
ATOM      3  C   UNL     1      34.822 -16.687 -24.080  0.00  0.00    +0.129 C 
ATOM      4  C   UNL     1      35.675 -18.477 -22.768  0.00  0.00    +0.043 C 
ATOM      5  C   UNL     1      35.561 -17.109 -22.986  0.00  0.00    +0.037 C 
ATOM      6  C   UNL     1      35.054 -19.369 -23.636  0.00  0.00    +0.024 C 
ATOM      7  C   UNL     1      34.337 -18.846 -24.700  0.00  0.00    +0.100 C 
ATOM      8  H   UNL     1      34.194 -15.008 -25.059  0.00  0.00    +0.149 HD
ENDROOT
BRANCH   4  10
ATOM      9  O   UNL     1      37.626 -18.653 -21.490  0.00  0.00    -0.287 OA
ATOM     10  C   UNL     1      36.438 -18.976 -21.634  0.00  0.00    +0.196 C 
BRANCH  10  11
ATOM     11  C   UNL     1      35.845 -19.883 -20.606  0.00  0.00    +0.039 C 
ATOM     12  C   UNL     1      36.660 -20.464 -19.634  0.00  0.00    -0.001 C 
ATOM     13  C   UNL     1      36.106 -21.310 -18.674  0.00  0.00    -0.022 C 
ATOM     14  C   UNL     1      34.476 -20.148 -20.617  0.00  0.00    +0.003 C 
ATOM     15  C   UNL     1      34.736 -21.575 -18.685  0.00  0.00    -0.004 C 
ATOM     16  C   UNL     1      33.922 -20.994 -19.656  0.00  0.00    -0.000 C 
ATOM     17  C   UNL     1      36.977 -21.929 -17.633  0.00  0.00    +0.031 C 
ENDBRANCH  10  11
ENDBRANCH   4  10
BRANCH   1  18
ATOM     18  C   UNL     1      35.330 -14.334 -23.426  0.00  0.00    +0.115 C 
BRANCH  18  19
ATOM     19  C   UNL     1      34.328 -13.328 -22.967  0.00  0.00    -0.003 C 
ATOM     20  C   UNL     1      33.542 -13.591 -21.845  0.00  0.00    -0.003 C 
ATOM     21  C   UNL     1      34.177 -12.127 -23.660  0.00  0.00    -0.003 C 
ATOM     22  C   UNL     1      32.452 -11.451 -22.109  0.00  0.00    +0.031 C 
ATOM     23  C   UNL     1      32.604 -12.652 -21.417  0.00  0.00    +0.002 C 
ATOM     24  C   UNL     1      33.239 -11.188 -23.231  0.00  0.00    +0.002 C 
BRANCH  22  27
ATOM     25  N   UNL     1      30.458 -10.817 -20.771  0.00  0.00    -0.343 N 
ATOM     26  N   UNL     1      31.537  -9.229 -22.103  0.00  0.00    -0.285 NA
ATOM     27  C   UNL     1      31.474 -10.473 -21.661  0.00  0.00    +0.117 C 
ATOM     28  H   UNL     1      29.807 -10.139 -20.481  0.00  0.00    +0.144 HD
ATOM     29  H   UNL     1      30.393 -11.740 -20.433  0.00  0.00    +0.144 HD
ATOM     30  H   UNL     1      30.876  -8.565 -21.801  0.00  0.00    +0.188 HD
ENDBRANCH  22  27
ENDBRANCH  18  19
ENDBRANCH   1  18
TORSDOF 5
ENDMDL
MODEL 7
REMARK VINA RESULT:     -11.1      3.595      9.113
REMARK  Name = 17758361
REMARK  5 active torsions:
REMARK  status: ('A' for Active; 'I' for Inactive)
REMARK    1  A    between atoms: N_1  and  C_18
REMARK    2  A    between atoms: C_4  and  C_10
REMARK    3  A    between atoms: C_10  and  C_11
REMARK    4  A    between atoms: C_18  and  C_19
REMARK    5  A    between atoms: C_22  and  C_27
REMARK                            x       y       z     vdW  Elec       q    Type
REMARK                         _______ _______ _______ _____ _____    ______ ____
ROOT
ATOM      1  N   UNL     1      34.692 -22.425 -17.426  0.00  0.00    -0.314 N 
ATOM      2  N   UNL     1      33.005 -21.726 -18.911  0.00  0.00    -0.229 NA
ATOM      3  C   UNL     1      34.300 -21.679 -18.525  0.00  0.00    +0.129 C 
ATOM      4  C   UNL     1      34.894 -20.176 -20.269  0.00  0.00    +0.043 C 
ATOM      5  C   UNL     1      35.274 -20.928 -19.163  0.00  0.00    +0.037 C 
ATOM      6  C   UNL     1      33.571 -20.198 -20.697  0.00  0.00    +0.024 C 
ATOM      7  C   UNL     1      32.673 -20.982 -19.990  0.00  0.00    +0.100 C 
ATOM      8  H   UNL     1      34.010 -22.963 -16.962  0.00  0.00    +0.149 HD
ENDROOT
BRANCH   4  10
ATOM      9  O   UNL     1      37.045 -19.305 -20.567  0.00  0.00    -0.287 OA
ATOM     10  C   UNL     1      35.877 -19.370 -20.977  0.00  0.00    +0.196 C 
BRANCH  10  11
ATOM     11  C   UNL     1      35.538 -18.595 -22.209  0.00  0.00    +0.039 C 
ATOM     12  C   UNL     1      35.488 -17.201 -22.164  0.00  0.00    -0.001 C 
ATOM     13  C   UNL     1      35.173 -16.477 -23.313  0.00  0.00    -0.022 C 
ATOM     14  C   UNL     1      35.273 -19.264 -23.403  0.00  0.00    +0.003 C 
ATOM     15  C   UNL     1      34.908 -17.147 -24.509  0.00  0.00    -0.004 C 
ATOM     16  C   UNL     1      34.958 -18.540 -24.553  0.00  0.00    -0.000 C 
ATOM     17  C   UNL     1      35.122 -14.988 -23.267  0.00  0.00    +0.031 C 
ENDBRANCH  10  11
ENDBRANCH   4  10
BRANCH   1  18
ATOM     18  C   UNL     1      36.048 -22.455 -16.922  0.00  0.00    +0.115 C 
BRANCH  18  19
ATOM     19  C   UNL     1      36.076 -22.876 -15.491  0.00  0.00    -0.003 C 
ATOM     20  C   UNL     1      34.935 -23.421 -14.902  0.00  0.00    -0.003 C 
ATOM     21  C   UNL     1      37.243 -22.724 -14.742  0.00  0.00    -0.003 C 
ATOM     22  C   UNL     1      36.127 -23.661 -12.815  0.00  0.00    +0.031 C 
ATOM     23  C   UNL     1      34.961 -23.813 -13.564  0.00  0.00    +0.002 C 
ATOM     24  C   UNL     1      37.269 -23.117 -13.404  0.00  0.00    +0.002 C 
BRANCH  22  27
ATOM     25  N   UNL     1      37.100 -23.563 -10.532  0.00  0.00    -0.343 N 
ATOM     26  N   UNL     1      35.268 -24.945 -10.975  0.00  0.00    -0.285 NA
ATOM     27  C   UNL     1      36.153 -24.071 -11.420  0.00  0.00    +0.117 C 
ATOM     28  H   UNL     1      37.099 -23.854  -9.592  0.00  0.00    +0.144 HD
ATOM     29  H   UNL     1      37.770 -22.913 -10.846  0.00  0.00    +0.144 HD
ATOM     30  H   UNL     1      35.283 -25.223 -10.031  0.00  0.00    +0.188 HD
ENDBRANCH  22  27
ENDBRANCH  18  19
ENDBRANCH   1  18
TORSDOF 5
ENDMDL
MODEL 8
REMARK VINA RESULT:     -11.1      2.315      3.159
REMARK  Name = 17758361
REMARK  5 active torsions:
REMARK  status: ('A' for Active; 'I' for Inactive)
REMARK    1  A    between atoms: N_1  and  C_18
REMARK    2  A    between atoms: C_4  and  C_10
REMARK    3  A    between atoms: C_10  and  C_11
REMARK    4  A    between atoms: C_18  and  C_19
REMARK    5  A    between atoms: C_22  and  C_27
REMARK                            x       y       z     vdW  Elec       q    Type
REMARK                         _______ _______ _______ _____ _____    ______ ____
ROOT
ATOM      1  N   UNL     1      35.011 -21.327 -19.361  0.00  0.00    -0.314 N 
ATOM      2  N   UNL     1      33.665 -22.558 -17.873  0.00  0.00    -0.229 NA
ATOM      3  C   UNL     1      34.861 -21.995 -18.157  0.00  0.00    +0.129 C 
ATOM      4  C   UNL     1      35.823 -22.706 -16.102  0.00  0.00    +0.043 C 
ATOM      5  C   UNL     1      35.960 -22.040 -17.315  0.00  0.00    +0.037 C 
ATOM      6  C   UNL     1      34.608 -23.298 -15.774  0.00  0.00    +0.024 C 
ATOM      7  C   UNL     1      33.570 -23.197 -16.685  0.00  0.00    +0.100 C 
ATOM      8  H   UNL     1      34.239 -21.288 -19.970  0.00  0.00    +0.149 HD
ENDROOT
BRANCH   4  10
ATOM      9  O   UNL     1      37.871 -21.962 -15.251  0.00  0.00    -0.287 OA
ATOM     10  C   UNL     1      36.945 -22.782 -15.179  0.00  0.00    +0.196 C 
BRANCH  10  11
ATOM     11  C   UNL     1      37.039 -23.832 -14.119  0.00  0.00    +0.039 C 
ATOM     12  C   UNL     1      36.531 -23.582 -12.843  0.00  0.00    -0.001 C 
ATOM     13  C   UNL     1      36.618 -24.561 -11.855  0.00  0.00    -0.022 C 
ATOM     14  C   UNL     1      37.631 -25.060 -14.406  0.00  0.00    +0.003 C 
ATOM     15  C   UNL     1      37.211 -25.791 -12.141  0.00  0.00    -0.004 C 
ATOM     16  C   UNL     1      37.717 -26.041 -13.417  0.00  0.00    -0.000 C 
ATOM     17  C   UNL     1      36.074 -24.296 -10.492  0.00  0.00    +0.031 C 
ENDBRANCH  10  11
ENDBRANCH   4  10
BRANCH   1  18
ATOM     18  C   UNL     1      36.240 -20.685 -19.772  0.00  0.00    +0.115 C 
BRANCH  18  19
ATOM     19  C   UNL     1      35.994 -19.723 -20.886  0.00  0.00    -0.003 C 
ATOM     20  C   UNL     1      34.772 -19.733 -21.557  0.00  0.00    -0.003 C 
ATOM     21  C   UNL     1      36.987 -18.815 -21.256  0.00  0.00    -0.003 C 
ATOM     22  C   UNL     1      35.533 -17.928 -22.970  0.00  0.00    +0.031 C 
ATOM     23  C   UNL     1      34.542 -18.836 -22.599  0.00  0.00    +0.002 C 
ATOM     24  C   UNL     1      36.756 -17.918 -22.298  0.00  0.00    +0.002 C 
BRANCH  22  27
ATOM     25  N   UNL     1      35.673 -15.655 -23.960  0.00  0.00    -0.343 N 
ATOM     26  N   UNL     1      34.696 -17.406 -25.161  0.00  0.00    -0.285 NA
ATOM     27  C   UNL     1      35.292 -16.992 -24.056  0.00  0.00    +0.117 C 
ATOM     28  H   UNL     1      35.501 -15.038 -24.708  0.00  0.00    +0.144 HD
ATOM     29  H   UNL     1      36.116 -15.327 -23.144  0.00  0.00    +0.144 HD
ATOM     30  H   UNL     1      34.532 -16.774 -25.898  0.00  0.00    +0.188 HD
ENDBRANCH  22  27
ENDBRANCH  18  19
ENDBRANCH   1  18
TORSDOF 5
ENDMDL
MODEL 9
REMARK VINA RESULT:     -10.9      3.932      6.760
REMARK  Name = 17758361
REMARK  5 active torsions:
REMARK  status: ('A' for Active; 'I' for Inactive)
REMARK    1  A    between atoms: N_1  and  C_18
REMARK    2  A    between atoms: C_4  and  C_10
REMARK    3  A    between atoms: C_10  and  C_11
REMARK    4  A    between atoms: C_18  and  C_19
REMARK    5  A    between atoms: C_22  and  C_27
REMARK                            x       y       z     vdW  Elec       q    Type
REMARK                         _______ _______ _______ _____ _____    ______ ____
ROOT
ATOM      1  N   UNL     1      34.524 -24.345 -12.647  0.00  0.00    -0.314 N 
ATOM      2  N   UNL     1      32.327 -25.053 -13.109  0.00  0.00    -0.229 NA
ATOM      3  C   UNL     1      33.409 -24.328 -13.469  0.00  0.00    +0.129 C 
ATOM      4  C   UNL     1      32.370 -23.533 -15.454  0.00  0.00    +0.043 C 
ATOM      5  C   UNL     1      33.481 -23.559 -14.619  0.00  0.00    +0.037 C 
ATOM      6  C   UNL     1      31.237 -24.267 -15.118  0.00  0.00    +0.024 C 
ATOM      7  C   UNL     1      31.266 -25.004 -13.945  0.00  0.00    +0.100 C 
ATOM      8  H   UNL     1      34.487 -24.887 -11.826  0.00  0.00    +0.149 HD
ENDROOT
BRANCH   4  10
ATOM      9  O   UNL     1      31.331 -22.364 -17.193  0.00  0.00    -0.287 OA
ATOM     10  C   UNL     1      32.391 -22.744 -16.675  0.00  0.00    +0.196 C 
BRANCH  10  11
ATOM     11  C   UNL     1      33.664 -22.356 -17.356  0.00  0.00    +0.039 C 
ATOM     12  C   UNL     1      34.876 -22.439 -16.670  0.00  0.00    -0.001 C 
ATOM     13  C   UNL     1      36.063 -22.079 -17.305  0.00  0.00    -0.022 C 
ATOM     14  C   UNL     1      33.640 -21.914 -18.678  0.00  0.00    +0.003 C 
ATOM     15  C   UNL     1      36.040 -21.636 -18.628  0.00  0.00    -0.004 C 
ATOM     16  C   UNL     1      34.828 -21.554 -19.314  0.00  0.00    -0.000 C 
ATOM     17  C   UNL     1      37.359 -22.170 -16.573  0.00  0.00    +0.031 C 
ENDBRANCH  10  11
ENDBRANCH   4  10
BRANCH   1  18
ATOM     18  C   UNL     1      35.738 -23.612 -12.930  0.00  0.00    +0.115 C 
BRANCH  18  19
ATOM     19  C   UNL     1      36.760 -24.494 -13.566  0.00  0.00    -0.003 C 
ATOM     20  C   UNL     1      38.102 -24.378 -13.204  0.00  0.00    -0.003 C 
ATOM     21  C   UNL     1      36.373 -25.433 -14.523  0.00  0.00    -0.003 C 
ATOM     22  C   UNL     1      38.671 -26.140 -14.756  0.00  0.00    +0.031 C 
ATOM     23  C   UNL     1      39.057 -25.201 -13.800  0.00  0.00    +0.002 C 
ATOM     24  C   UNL     1      37.329 -26.256 -15.117  0.00  0.00    +0.002 C 
BRANCH  22  27
ATOM     25  N   UNL     1      39.410 -27.662 -16.574  0.00  0.00    -0.343 N 
ATOM     26  N   UNL     1      40.845 -27.161 -14.799  0.00  0.00    -0.285 NA
ATOM     27  C   UNL     1      39.668 -26.998 -15.376  0.00  0.00    +0.117 C 
ATOM     28  H   UNL     1      40.100 -28.238 -16.976  0.00  0.00    +0.144 HD
ATOM     29  H   UNL     1      38.537 -27.555 -17.018  0.00  0.00    +0.144 HD
ATOM     30  H   UNL     1      41.522 -27.741 -15.217  0.00  0.00    +0.188 HD
ENDBRANCH  22  27
ENDBRANCH  18  19
ENDBRANCH   1  18
TORSDOF 5
ENDMDL
