MODEL 1
REMARK VINA RESULT:     -12.1      0.000      0.000
REMARK  Name = 42642648
REMARK  5 active torsions:
REMARK  status: ('A' for Active; 'I' for Inactive)
REMARK    1  A    between atoms: N_1  and  C_22
REMARK    2  A    between atoms: C_4  and  N_15
REMARK    3  A    between atoms: C_25  and  O_28
REMARK    4  A    between atoms: O_28  and  C_29
REMARK    5  A    between atoms: C_29  and  C_32
REMARK                            x       y       z     vdW  Elec       q    Type
REMARK                         _______ _______ _______ _____ _____    ______ ____
ROOT
ATOM      1  N   UNL     1      35.010 -22.614 -17.475  0.00  0.00    -0.301 N 
ATOM      2  N   UNL     1      32.028 -23.507 -14.747  0.00  0.00    -0.248 NA
ATOM      3  N   UNL     1      32.726 -22.802 -16.943  0.00  0.00    -0.233 NA
ATOM      4  C   UNL     1      36.003 -23.862 -13.544  0.00  0.00    +0.048 C 
ATOM      5  C   UNL     1      34.366 -23.330 -15.248  0.00  0.00    +0.117 C 
ATOM      6  C   UNL     1      35.706 -23.451 -14.839  0.00  0.00    +0.001 C 
ATOM      7  C   UNL     1      33.312 -23.619 -14.366  0.00  0.00    +0.067 C 
ATOM      8  C   UNL     1      34.001 -22.924 -16.528  0.00  0.00    +0.115 C 
ATOM      9  C   UNL     1      34.968 -24.151 -12.661  0.00  0.00    +0.016 C 
ATOM     10  C   UNL     1      33.639 -24.027 -13.075  0.00  0.00    +0.016 C 
ATOM     11  C   UNL     1      31.804 -23.104 -16.014  0.00  0.00    +0.251 C 
ATOM     12  H   UNL     1      35.843 -23.122 -17.346  0.00  0.00    +0.153 HD
ENDROOT
BRANCH   4  15
ATOM     13  O   UNL     1      39.535 -24.624 -13.072  0.00  0.00    -0.448 OA
ATOM     14  N   UNL     1      38.279 -25.401 -14.814  0.00  0.00    -0.222 NA
ATOM     15  N   UNL     1      37.344 -23.985 -13.128  0.00  0.00    -0.269 N 
ATOM     16  C   UNL     1      39.666 -25.847 -15.024  0.00  0.00    +0.151 C 
ATOM     17  C   UNL     1      40.346 -25.613 -13.691  0.00  0.00    +0.233 C 
ATOM     18  C   UNL     1      38.342 -24.690 -13.730  0.00  0.00    +0.284 C 
ATOM     19  C   UNL     1      39.692 -27.299 -15.462  0.00  0.00    +0.030 C 
ATOM     20  H   UNL     1      37.588 -23.504 -12.304  0.00  0.00    +0.157 HD
ENDBRANCH   4  15
BRANCH   1  22
ATOM     21 CL   UNL     1      32.425 -19.949 -20.992  0.00  0.00    -0.079 Cl
ATOM     22  C   UNL     1      35.050 -21.723 -18.559  0.00  0.00    +0.050 C 
ATOM     23  C   UNL     1      33.866 -21.319 -19.173  0.00  0.00    +0.029 C 
ATOM     24  C   UNL     1      36.275 -21.244 -19.022  0.00  0.00    +0.018 C 
ATOM     25  C   UNL     1      35.131 -19.953 -20.713  0.00  0.00    +0.150 C 
ATOM     26  C   UNL     1      33.905 -20.433 -20.250  0.00  0.00    +0.093 C 
ATOM     27  C   UNL     1      36.316 -20.359 -20.099  0.00  0.00    +0.039 C 
BRANCH  25  28
ATOM     28  O   UNL     1      35.201 -19.087 -21.764  0.00  0.00    -0.468 OA
BRANCH  28  29
ATOM     29  C   UNL     1      35.857 -17.842 -21.533  0.00  0.00    +0.257 C 
BRANCH  29  32
ATOM     30  S   UNL     1      35.058 -17.372 -24.149  0.00  0.00    -0.067 S 
ATOM     31  N   UNL     1      35.198 -15.566 -22.306  0.00  0.00    -0.237 NA
ATOM     32  C   UNL     1      35.385 -16.844 -22.549  0.00  0.00    +0.132 C 
ATOM     33  C   UNL     1      34.627 -15.766 -24.565  0.00  0.00    +0.057 C 
ATOM     34  C   UNL     1      34.764 -14.949 -23.463  0.00  0.00    +0.106 C 
ENDBRANCH  29  32
ENDBRANCH  28  29
ENDBRANCH  25  28
ENDBRANCH   1  22
TORSDOF 5
ENDMDL
MODEL 2
REMARK VINA RESULT:     -11.8      1.812      2.419
REMARK  Name = 42642648
REMARK  5 active torsions:
REMARK  status: ('A' for Active; 'I' for Inactive)
REMARK    1  A    between atoms: N_1  and  C_22
REMARK    2  A    between atoms: C_4  and  N_15
REMARK    3  A    between atoms: C_25  and  O_28
REMARK    4  A    between atoms: O_28  and  C_29
REMARK    5  A    between atoms: C_29  and  C_32
REMARK                            x       y       z     vdW  Elec       q    Type
REMARK                         _______ _______ _______ _____ _____    ______ ____
ROOT
ATOM      1  N   UNL     1      33.719 -22.585 -18.010  0.00  0.00    -0.301 N 
ATOM      2  N   UNL     1      30.551 -22.781 -15.354  0.00  0.00    -0.248 NA
ATOM      3  N   UNL     1      31.493 -22.063 -17.452  0.00  0.00    -0.233 NA
ATOM      4  C   UNL     1      34.148 -24.609 -14.308  0.00  0.00    +0.048 C 
ATOM      5  C   UNL     1      32.822 -23.334 -15.884  0.00  0.00    +0.117 C 
ATOM      6  C   UNL     1      34.035 -23.953 -15.529  0.00  0.00    +0.001 C 
ATOM      7  C   UNL     1      31.714 -23.368 -15.023  0.00  0.00    +0.067 C 
ATOM      8  C   UNL     1      32.644 -22.661 -17.089  0.00  0.00    +0.115 C 
ATOM      9  C   UNL     1      33.057 -24.649 -13.446  0.00  0.00    +0.016 C 
ATOM     10  C   UNL     1      31.856 -24.032 -13.806  0.00  0.00    +0.016 C 
ATOM     11  C   UNL     1      30.503 -22.160 -16.549  0.00  0.00    +0.251 C 
ATOM     12  H   UNL     1      34.329 -23.356 -17.972  0.00  0.00    +0.153 HD
ENDROOT
BRANCH   4  15
ATOM     13  O   UNL     1      37.376 -25.605 -12.941  0.00  0.00    -0.448 OA
ATOM     14  N   UNL     1      36.285 -23.679 -12.376  0.00  0.00    -0.222 NA
ATOM     15  N   UNL     1      35.360 -25.231 -13.945  0.00  0.00    -0.269 N 
ATOM     16  C   UNL     1      37.500 -23.767 -11.551  0.00  0.00    +0.151 C 
ATOM     17  C   UNL     1      38.331 -24.846 -12.213  0.00  0.00    +0.233 C 
ATOM     18  C   UNL     1      36.298 -24.778 -13.068  0.00  0.00    +0.284 C 
ATOM     19  C   UNL     1      38.199 -22.422 -11.497  0.00  0.00    +0.030 C 
ATOM     20  H   UNL     1      35.551 -26.095 -14.378  0.00  0.00    +0.157 HD
ENDBRANCH   4  15
BRANCH   1  22
ATOM     21 CL   UNL     1      37.452 -19.987 -20.350  0.00  0.00    -0.079 Cl
ATOM     22  C   UNL     1      34.080 -21.622 -18.967  0.00  0.00    +0.050 C 
ATOM     23  C   UNL     1      35.423 -21.311 -19.169  0.00  0.00    +0.029 C 
ATOM     24  C   UNL     1      33.094 -20.979 -19.713  0.00  0.00    +0.018 C 
ATOM     25  C   UNL     1      34.795 -19.710 -20.867  0.00  0.00    +0.150 C 
ATOM     26  C   UNL     1      35.782 -20.355 -20.120  0.00  0.00    +0.093 C 
ATOM     27  C   UNL     1      33.451 -20.022 -20.663  0.00  0.00    +0.039 C 
BRANCH  25  28
ATOM     28  O   UNL     1      35.116 -18.772 -21.802  0.00  0.00    -0.468 OA
BRANCH  28  29
ATOM     29  C   UNL     1      35.458 -17.472 -21.323  0.00  0.00    +0.257 C 
BRANCH  29  32
ATOM     30  S   UNL     1      35.028 -16.996 -24.023  0.00  0.00    -0.067 S 
ATOM     31  N   UNL     1      35.033 -15.174 -22.190  0.00  0.00    -0.237 NA
ATOM     32  C   UNL     1      35.177 -16.464 -22.399  0.00  0.00    +0.132 C 
ATOM     33  C   UNL     1      34.745 -15.375 -24.503  0.00  0.00    +0.057 C 
ATOM     34  C   UNL     1      34.786 -14.551 -23.398  0.00  0.00    +0.106 C 
ENDBRANCH  29  32
ENDBRANCH  28  29
ENDBRANCH  25  28
ENDBRANCH   1  22
TORSDOF 5
ENDMDL
MODEL 3
REMARK VINA RESULT:     -11.4      5.345      9.929
REMARK  Name = 42642648
REMARK  5 active torsions:
REMARK  status: ('A' for Active; 'I' for Inactive)
REMARK    1  A    between atoms: N_1  and  C_22
REMARK    2  A    between atoms: C_4  and  N_15
REMARK    3  A    between atoms: C_25  and  O_28
REMARK    4  A    between atoms: O_28  and  C_29
REMARK    5  A    between atoms: C_29  and  C_32
REMARK                            x       y       z     vdW  Elec       q    Type
REMARK                         _______ _______ _______ _____ _____    ______ ____
ROOT
ATOM      1  N   UNL     1      34.498 -14.362 -22.551  0.00  0.00    -0.301 N 
ATOM      2  N   UNL     1      33.881 -17.232 -25.470  0.00  0.00    -0.248 NA
ATOM      3  N   UNL     1      33.617 -14.984 -24.643  0.00  0.00    -0.233 NA
ATOM      4  C   UNL     1      35.975 -18.304 -22.029  0.00  0.00    +0.048 C 
ATOM      5  C   UNL     1      34.795 -16.639 -23.334  0.00  0.00    +0.117 C 
ATOM      6  C   UNL     1      35.502 -17.004 -22.174  0.00  0.00    +0.001 C 
ATOM      7  C   UNL     1      34.556 -17.570 -24.357  0.00  0.00    +0.067 C 
ATOM      8  C   UNL     1      34.295 -15.357 -23.541  0.00  0.00    +0.115 C 
ATOM      9  C   UNL     1      35.744 -19.235 -23.035  0.00  0.00    +0.016 C 
ATOM     10  C   UNL     1      35.040 -18.865 -24.184  0.00  0.00    +0.016 C 
ATOM     11  C   UNL     1      33.448 -15.958 -25.552  0.00  0.00    +0.251 C 
ATOM     12  H   UNL     1      35.325 -14.482 -22.033  0.00  0.00    +0.153 HD
ENDROOT
BRANCH   4  15
ATOM     13  O   UNL     1      37.332 -19.848 -19.019  0.00  0.00    -0.448 OA
ATOM     14  N   UNL     1      35.607 -20.717 -20.239  0.00  0.00    -0.222 NA
ATOM     15  N   UNL     1      36.684 -18.676 -20.869  0.00  0.00    -0.269 N 
ATOM     16  C   UNL     1      35.921 -21.669 -19.162  0.00  0.00    +0.151 C 
ATOM     17  C   UNL     1      36.800 -20.887 -18.208  0.00  0.00    +0.233 C 
ATOM     18  C   UNL     1      36.487 -19.774 -20.088  0.00  0.00    +0.284 C 
ATOM     19  C   UNL     1      34.646 -22.178 -18.518  0.00  0.00    +0.030 C 
ATOM     20  H   UNL     1      37.408 -18.069 -20.589  0.00  0.00    +0.157 HD
ENDBRANCH   4  15
BRANCH   1  22
ATOM     21 CL   UNL     1      32.995  -9.588 -23.603  0.00  0.00    -0.079 Cl
ATOM     22  C   UNL     1      33.745 -13.240 -22.169  0.00  0.00    +0.050 C 
ATOM     23  C   UNL     1      33.736 -12.100 -22.972  0.00  0.00    +0.029 C 
ATOM     24  C   UNL     1      33.008 -13.266 -20.986  0.00  0.00    +0.018 C 
ATOM     25  C   UNL     1      32.250 -11.012 -21.408  0.00  0.00    +0.150 C 
ATOM     26  C   UNL     1      32.988 -10.986 -22.592  0.00  0.00    +0.093 C 
ATOM     27  C   UNL     1      32.260 -12.152 -20.606  0.00  0.00    +0.039 C 
BRANCH  25  28
ATOM     28  O   UNL     1      31.510  -9.937 -21.012  0.00  0.00    -0.468 OA
BRANCH  28  29
ATOM     29  C   UNL     1      31.930  -9.266 -19.825  0.00  0.00    +0.257 C 
BRANCH  29  32
ATOM     30  S   UNL     1      31.754  -7.197 -21.666  0.00  0.00    -0.067 S 
ATOM     31  N   UNL     1      32.929  -7.028 -19.371  0.00  0.00    -0.237 NA
ATOM     32  C   UNL     1      32.263  -7.841 -20.159  0.00  0.00    +0.132 C 
ATOM     33  C   UNL     1      32.478  -5.702 -21.244  0.00  0.00    +0.057 C 
ATOM     34  C   UNL     1      33.053  -5.802 -19.994  0.00  0.00    +0.106 C 
ENDBRANCH  29  32
ENDBRANCH  28  29
ENDBRANCH  25  28
ENDBRANCH   1  22
TORSDOF 5
ENDMDL
MODEL 4
REMARK VINA RESULT:     -11.0      5.877     10.893
REMARK  Name = 42642648
REMARK  5 active torsions:
REMARK  status: ('A' for Active; 'I' for Inactive)
REMARK    1  A    between atoms: N_1  and  C_22
REMARK    2  A    between atoms: C_4  and  N_15
REMARK    3  A    between atoms: C_25  and  O_28
REMARK    4  A    between atoms: O_28  and  C_29
REMARK    5  A    between atoms: C_29  and  C_32
REMARK                            x       y       z     vdW  Elec       q    Type
REMARK                         _______ _______ _______ _____ _____    ______ ____
ROOT
ATOM      1  N   UNL     1      34.425 -13.418 -23.580  0.00  0.00    -0.301 N 
ATOM      2  N   UNL     1      33.099 -16.598 -25.874  0.00  0.00    -0.248 NA
ATOM      3  N   UNL     1      33.133 -14.243 -25.366  0.00  0.00    -0.233 NA
ATOM      4  C   UNL     1      35.727 -17.364 -22.729  0.00  0.00    +0.048 C 
ATOM      5  C   UNL     1      34.430 -15.799 -24.046  0.00  0.00    +0.117 C 
ATOM      6  C   UNL     1      35.316 -16.060 -22.986  0.00  0.00    +0.001 C 
ATOM      7  C   UNL     1      33.947 -16.838 -24.857  0.00  0.00    +0.067 C 
ATOM      8  C   UNL     1      33.981 -14.518 -24.356  0.00  0.00    +0.115 C 
ATOM      9  C   UNL     1      35.255 -18.402 -23.525  0.00  0.00    +0.016 C 
ATOM     10  C   UNL     1      34.373 -18.134 -24.576  0.00  0.00    +0.016 C 
ATOM     11  C   UNL     1      32.738 -15.315 -26.072  0.00  0.00    +0.251 C 
ATOM     12  H   UNL     1      35.326 -13.537 -23.203  0.00  0.00    +0.153 HD
ENDROOT
BRANCH   4  15
ATOM     13  O   UNL     1      37.634 -18.701 -19.927  0.00  0.00    -0.448 OA
ATOM     14  N   UNL     1      35.907 -19.800 -20.941  0.00  0.00    -0.222 NA
ATOM     15  N   UNL     1      36.614 -17.633 -21.668  0.00  0.00    -0.269 N 
ATOM     16  C   UNL     1      36.476 -20.697 -19.923  0.00  0.00    +0.151 C 
ATOM     17  C   UNL     1      37.350 -19.800 -19.072  0.00  0.00    +0.233 C 
ATOM     18  C   UNL     1      36.664 -18.746 -20.885  0.00  0.00    +0.284 C 
ATOM     19  C   UNL     1      35.369 -21.373 -19.137  0.00  0.00    +0.030 C 
ATOM     20  H   UNL     1      37.278 -16.933 -21.470  0.00  0.00    +0.157 HD
ENDBRANCH   4  15
BRANCH   1  22
ATOM     21 CL   UNL     1      31.164 -10.854 -20.588  0.00  0.00    -0.079 Cl
ATOM     22  C   UNL     1      33.828 -12.191 -23.248  0.00  0.00    +0.050 C 
ATOM     23  C   UNL     1      32.901 -12.126 -22.209  0.00  0.00    +0.029 C 
ATOM     24  C   UNL     1      34.164 -11.039 -23.958  0.00  0.00    +0.018 C 
ATOM     25  C   UNL     1      32.644  -9.753 -22.588  0.00  0.00    +0.150 C 
ATOM     26  C   UNL     1      32.309 -10.907 -21.878  0.00  0.00    +0.093 C 
ATOM     27  C   UNL     1      33.571  -9.820 -23.628  0.00  0.00    +0.039 C 
BRANCH  25  28
ATOM     28  O   UNL     1      32.081  -8.549 -22.288  0.00  0.00    -0.468 OA
BRANCH  28  29
ATOM     29  C   UNL     1      32.957  -7.525 -21.817  0.00  0.00    +0.257 C 
BRANCH  29  32
ATOM     30  S   UNL     1      31.783  -6.152 -23.924  0.00  0.00    -0.067 S 
ATOM     31  N   UNL     1      32.625  -5.056 -21.740  0.00  0.00    -0.237 NA
ATOM     32  C   UNL     1      32.506  -6.204 -22.368  0.00  0.00    +0.132 C 
ATOM     33  C   UNL     1      31.606  -4.455 -23.757  0.00  0.00    +0.057 C 
ATOM     34  C   UNL     1      32.108  -4.054 -22.537  0.00  0.00    +0.106 C 
ENDBRANCH  29  32
ENDBRANCH  28  29
ENDBRANCH  25  28
ENDBRANCH   1  22
TORSDOF 5
ENDMDL
MODEL 5
REMARK VINA RESULT:     -10.5      1.495      1.862
REMARK  Name = 42642648
REMARK  5 active torsions:
REMARK  status: ('A' for Active; 'I' for Inactive)
REMARK    1  A    between atoms: N_1  and  C_22
REMARK    2  A    between atoms: C_4  and  N_15
REMARK    3  A    between atoms: C_25  and  O_28
REMARK    4  A    between atoms: O_28  and  C_29
REMARK    5  A    between atoms: C_29  and  C_32
REMARK                            x       y       z     vdW  Elec       q    Type
REMARK                         _______ _______ _______ _____ _____    ______ ____
ROOT
ATOM      1  N   UNL     1      34.934 -23.158 -16.631  0.00  0.00    -0.301 N 
ATOM      2  N   UNL     1      32.694 -23.564 -13.174  0.00  0.00    -0.248 NA
ATOM      3  N   UNL     1      32.854 -23.095 -15.532  0.00  0.00    -0.233 NA
ATOM      4  C   UNL     1      36.811 -24.188 -12.969  0.00  0.00    +0.048 C 
ATOM      5  C   UNL     1      34.833 -23.640 -14.256  0.00  0.00    +0.117 C 
ATOM      6  C   UNL     1      36.222 -23.851 -14.183  0.00  0.00    +0.001 C 
ATOM      7  C   UNL     1      34.023 -23.764 -13.116  0.00  0.00    +0.067 C 
ATOM      8  C   UNL     1      34.182 -23.301 -15.438  0.00  0.00    +0.115 C 
ATOM      9  C   UNL     1      36.019 -24.313 -11.833  0.00  0.00    +0.016 C 
ATOM     10  C   UNL     1      34.640 -24.100 -11.913  0.00  0.00    +0.016 C 
ATOM     11  C   UNL     1      32.182 -23.241 -14.378  0.00  0.00    +0.251 C 
ATOM     12  H   UNL     1      35.735 -23.728 -16.665  0.00  0.00    +0.153 HD
ENDROOT
BRANCH   4  15
ATOM     13  O   UNL     1      40.301 -25.152 -13.383  0.00  0.00    -0.448 OA
ATOM     14  N   UNL     1      38.624 -25.772 -14.804  0.00  0.00    -0.222 NA
ATOM     15  N   UNL     1      38.202 -24.400 -12.890  0.00  0.00    -0.269 N 
ATOM     16  C   UNL     1      39.891 -26.277 -15.355  0.00  0.00    +0.151 C 
ATOM     17  C   UNL     1      40.879 -26.148 -14.215  0.00  0.00    +0.233 C 
ATOM     18  C   UNL     1      38.984 -25.123 -13.739  0.00  0.00    +0.284 C 
ATOM     19  C   UNL     1      39.724 -27.703 -15.842  0.00  0.00    +0.030 C 
ATOM     20  H   UNL     1      38.663 -23.976 -12.130  0.00  0.00    +0.157 HD
ENDBRANCH   4  15
BRANCH   1  22
ATOM     21 CL   UNL     1      37.052 -20.180 -20.210  0.00  0.00    -0.079 Cl
ATOM     22  C   UNL     1      34.757 -22.359 -17.772  0.00  0.00    +0.050 C 
ATOM     23  C   UNL     1      35.854 -21.735 -18.364  0.00  0.00    +0.029 C 
ATOM     24  C   UNL     1      33.483 -22.192 -18.314  0.00  0.00    +0.018 C 
ATOM     25  C   UNL     1      34.402 -20.774 -20.040  0.00  0.00    +0.150 C 
ATOM     26  C   UNL     1      35.678 -20.942 -19.498  0.00  0.00    +0.093 C 
ATOM     27  C   UNL     1      33.306 -21.399 -19.448  0.00  0.00    +0.039 C 
BRANCH  25  28
ATOM     28  O   UNL     1      34.200 -20.005 -21.148  0.00  0.00    -0.468 OA
BRANCH  28  29
ATOM     29  C   UNL     1      34.758 -18.692 -21.133  0.00  0.00    +0.257 C 
BRANCH  29  32
ATOM     30  S   UNL     1      35.651 -16.710 -22.857  0.00  0.00    -0.067 S 
ATOM     31  N   UNL     1      34.192 -18.724 -23.560  0.00  0.00    -0.237 NA
ATOM     32  C   UNL     1      34.789 -18.158 -22.535  0.00  0.00    +0.132 C 
ATOM     33  C   UNL     1      35.200 -16.837 -24.506  0.00  0.00    +0.057 C 
ATOM     34  C   UNL     1      34.428 -17.966 -24.690  0.00  0.00    +0.106 C 
ENDBRANCH  29  32
ENDBRANCH  28  29
ENDBRANCH  25  28
ENDBRANCH   1  22
TORSDOF 5
ENDMDL
MODEL 6
REMARK VINA RESULT:     -10.4      9.531     17.262
REMARK  Name = 42642648
REMARK  5 active torsions:
REMARK  status: ('A' for Active; 'I' for Inactive)
REMARK    1  A    between atoms: N_1  and  C_22
REMARK    2  A    between atoms: C_4  and  N_15
REMARK    3  A    between atoms: C_25  and  O_28
REMARK    4  A    between atoms: O_28  and  C_29
REMARK    5  A    between atoms: C_29  and  C_32
REMARK                            x       y       z     vdW  Elec       q    Type
REMARK                         _______ _______ _______ _____ _____    ______ ____
ROOT
ATOM      1  N   UNL     1      33.738  -8.311 -23.358  0.00  0.00    -0.301 N 
ATOM      2  N   UNL     1      32.279  -5.500 -20.693  0.00  0.00    -0.248 NA
ATOM      3  N   UNL     1      33.104  -7.713 -21.172  0.00  0.00    -0.233 NA
ATOM      4  C   UNL     1      32.724  -4.414 -24.693  0.00  0.00    +0.048 C 
ATOM      5  C   UNL     1      32.915  -6.068 -22.934  0.00  0.00    +0.117 C 
ATOM      6  C   UNL     1      33.064  -5.699 -24.282  0.00  0.00    +0.001 C 
ATOM      7  C   UNL     1      32.425  -5.157 -21.985  0.00  0.00    +0.067 C 
ATOM      8  C   UNL     1      33.237  -7.336 -22.459  0.00  0.00    +0.115 C 
ATOM      9  C   UNL     1      32.236  -3.503 -23.763  0.00  0.00    +0.016 C 
ATOM     10  C   UNL     1      32.091  -3.878 -22.424  0.00  0.00    +0.016 C 
ATOM     11  C   UNL     1      32.626  -6.758 -20.357  0.00  0.00    +0.251 C 
ATOM     12  H   UNL     1      34.247  -7.931 -24.110  0.00  0.00    +0.153 HD
ENDROOT
BRANCH   4  15
ATOM     13  O   UNL     1      33.819  -3.647 -28.083  0.00  0.00    -0.448 OA
ATOM     14  N   UNL     1      35.175  -4.521 -26.466  0.00  0.00    -0.222 NA
ATOM     15  N   UNL     1      32.870  -4.038 -26.043  0.00  0.00    -0.269 N 
ATOM     16  C   UNL     1      35.954  -4.441 -27.712  0.00  0.00    +0.151 C 
ATOM     17  C   UNL     1      35.132  -3.546 -28.616  0.00  0.00    +0.233 C 
ATOM     18  C   UNL     1      33.995  -4.102 -26.808  0.00  0.00    +0.284 C 
ATOM     19  C   UNL     1      37.342  -3.897 -27.433  0.00  0.00    +0.030 C 
ATOM     20  H   UNL     1      32.063  -3.687 -26.486  0.00  0.00    +0.157 HD
ENDBRANCH   4  15
BRANCH   1  22
ATOM     21 CL   UNL     1      31.973 -12.580 -21.163  0.00  0.00    -0.079 Cl
ATOM     22  C   UNL     1      33.648  -9.712 -23.383  0.00  0.00    +0.050 C 
ATOM     23  C   UNL     1      32.942 -10.383 -22.385  0.00  0.00    +0.029 C 
ATOM     24  C   UNL     1      34.265 -10.431 -24.405  0.00  0.00    +0.018 C 
ATOM     25  C   UNL     1      33.470 -12.495 -23.434  0.00  0.00    +0.150 C 
ATOM     26  C   UNL     1      32.852 -11.775 -22.410  0.00  0.00    +0.093 C 
ATOM     27  C   UNL     1      34.176 -11.823 -24.431  0.00  0.00    +0.039 C 
BRANCH  25  28
ATOM     28  O   UNL     1      33.399 -13.855 -23.483  0.00  0.00    -0.468 OA
BRANCH  28  29
ATOM     29  C   UNL     1      33.758 -14.477 -24.716  0.00  0.00    +0.257 C 
BRANCH  29  32
ATOM     30  S   UNL     1      35.327 -16.026 -23.031  0.00  0.00    -0.067 S 
ATOM     31  N   UNL     1      34.186 -16.888 -25.184  0.00  0.00    -0.237 NA
ATOM     32  C   UNL     1      34.354 -15.824 -24.430  0.00  0.00    +0.132 C 
ATOM     33  C   UNL     1      35.550 -17.672 -23.454  0.00  0.00    +0.057 C 
ATOM     34  C   UNL     1      34.873 -17.947 -24.624  0.00  0.00    +0.106 C 
ENDBRANCH  29  32
ENDBRANCH  28  29
ENDBRANCH  25  28
ENDBRANCH   1  22
TORSDOF 5
ENDMDL
MODEL 7
REMARK VINA RESULT:     -10.3      1.966      2.790
REMARK  Name = 42642648
REMARK  5 active torsions:
REMARK  status: ('A' for Active; 'I' for Inactive)
REMARK    1  A    between atoms: N_1  and  C_22
REMARK    2  A    between atoms: C_4  and  N_15
REMARK    3  A    between atoms: C_25  and  O_28
REMARK    4  A    between atoms: O_28  and  C_29
REMARK    5  A    between atoms: C_29  and  C_32
REMARK                            x       y       z     vdW  Elec       q    Type
REMARK                         _______ _______ _______ _____ _____    ______ ____
ROOT
ATOM      1  N   UNL     1      35.488 -21.047 -19.799  0.00  0.00    -0.301 N 
ATOM      2  N   UNL     1      32.345 -22.290 -17.410  0.00  0.00    -0.248 NA
ATOM      3  N   UNL     1      33.175 -21.255 -19.422  0.00  0.00    -0.233 NA
ATOM      4  C   UNL     1      36.241 -22.947 -16.082  0.00  0.00    +0.048 C 
ATOM      5  C   UNL     1      34.709 -22.098 -17.756  0.00  0.00    +0.117 C 
ATOM      6  C   UNL     1      36.023 -22.322 -17.305  0.00  0.00    +0.001 C 
ATOM      7  C   UNL     1      33.604 -22.498 -16.988  0.00  0.00    +0.067 C 
ATOM      8  C   UNL     1      34.423 -21.479 -18.969  0.00  0.00    +0.115 C 
ATOM      9  C   UNL     1      35.154 -23.347 -15.312  0.00  0.00    +0.016 C 
ATOM     10  C   UNL     1      33.852 -23.120 -15.767  0.00  0.00    +0.016 C 
ATOM     11  C   UNL     1      32.198 -21.679 -18.603  0.00  0.00    +0.251 C 
ATOM     12  H   UNL     1      36.303 -21.593 -19.714  0.00  0.00    +0.153 HD
ENDROOT
BRANCH   4  15
ATOM     13  O   UNL     1      39.322 -24.096 -14.512  0.00  0.00    -0.448 OA
ATOM     14  N   UNL     1      37.284 -25.081 -14.205  0.00  0.00    -0.222 NA
ATOM     15  N   UNL     1      37.554 -23.174 -15.624  0.00  0.00    -0.269 N 
ATOM     16  C   UNL     1      38.285 -25.883 -13.484  0.00  0.00    +0.151 C 
ATOM     17  C   UNL     1      39.513 -24.999 -13.432  0.00  0.00    +0.233 C 
ATOM     18  C   UNL     1      37.984 -24.149 -14.777  0.00  0.00    +0.284 C 
ATOM     19  C   UNL     1      37.765 -26.267 -12.112  0.00  0.00    +0.030 C 
ATOM     20  H   UNL     1      38.243 -22.553 -15.957  0.00  0.00    +0.157 HD
ENDBRANCH   4  15
BRANCH   1  22
ATOM     21 CL   UNL     1      33.805 -18.835 -24.092  0.00  0.00    -0.079 Cl
ATOM     22  C   UNL     1      35.604 -19.993 -20.719  0.00  0.00    +0.050 C 
ATOM     23  C   UNL     1      34.754 -19.933 -21.822  0.00  0.00    +0.029 C 
ATOM     24  C   UNL     1      36.571 -19.006 -20.528  0.00  0.00    +0.018 C 
ATOM     25  C   UNL     1      35.836 -17.897 -22.545  0.00  0.00    +0.150 C 
ATOM     26  C   UNL     1      34.869 -18.885 -22.735  0.00  0.00    +0.093 C 
ATOM     27  C   UNL     1      36.686 -17.958 -21.441  0.00  0.00    +0.039 C 
BRANCH  25  28
ATOM     28  O   UNL     1      35.972 -16.862 -23.421  0.00  0.00    -0.468 OA
BRANCH  28  29
ATOM     29  C   UNL     1      35.548 -15.575 -22.973  0.00  0.00    +0.257 C 
BRANCH  29  32
ATOM     30  S   UNL     1      34.146 -13.334 -23.816  0.00  0.00    -0.067 S 
ATOM     31  N   UNL     1      34.275 -15.565 -25.116  0.00  0.00    -0.237 NA
ATOM     32  C   UNL     1      34.676 -14.953 -24.023  0.00  0.00    +0.132 C 
ATOM     33  C   UNL     1      33.308 -13.444 -25.308  0.00  0.00    +0.057 C 
ATOM     34  C   UNL     1      33.490 -14.698 -25.851  0.00  0.00    +0.106 C 
ENDBRANCH  29  32
ENDBRANCH  28  29
ENDBRANCH  25  28
ENDBRANCH   1  22
TORSDOF 5
ENDMDL
MODEL 8
REMARK VINA RESULT:      -9.6      2.167      4.526
REMARK  Name = 42642648
REMARK  5 active torsions:
REMARK  status: ('A' for Active; 'I' for Inactive)
REMARK    1  A    between atoms: N_1  and  C_22
REMARK    2  A    between atoms: C_4  and  N_15
REMARK    3  A    between atoms: C_25  and  O_28
REMARK    4  A    between atoms: O_28  and  C_29
REMARK    5  A    between atoms: C_29  and  C_32
REMARK                            x       y       z     vdW  Elec       q    Type
REMARK                         _______ _______ _______ _____ _____    ______ ____
ROOT
ATOM      1  N   UNL     1      35.379 -21.728 -17.151  0.00  0.00    -0.301 N 
ATOM      2  N   UNL     1      38.499 -23.538 -15.119  0.00  0.00    -0.248 NA
ATOM      3  N   UNL     1      37.688 -21.986 -16.775  0.00  0.00    -0.233 NA
ATOM      4  C   UNL     1      34.592 -24.629 -14.158  0.00  0.00    +0.048 C 
ATOM      5  C   UNL     1      36.138 -23.304 -15.470  0.00  0.00    +0.117 C 
ATOM      6  C   UNL     1      34.821 -23.675 -15.143  0.00  0.00    +0.001 C 
ATOM      7  C   UNL     1      37.236 -23.885 -14.815  0.00  0.00    +0.067 C 
ATOM      8  C   UNL     1      36.436 -22.357 -16.446  0.00  0.00    +0.115 C 
ATOM      9  C   UNL     1      35.671 -25.211 -13.502  0.00  0.00    +0.016 C 
ATOM     10  C   UNL     1      36.976 -24.839 -13.833  0.00  0.00    +0.016 C 
ATOM     11  C   UNL     1      38.656 -22.608 -16.083  0.00  0.00    +0.251 C 
ATOM     12  H   UNL     1      34.550 -21.641 -16.628  0.00  0.00    +0.153 HD
ENDROOT
BRANCH   4  15
ATOM     13  O   UNL     1      30.996 -25.153 -13.875  0.00  0.00    -0.448 OA
ATOM     14  N   UNL     1      31.978 -23.846 -15.470  0.00  0.00    -0.222 NA
ATOM     15  N   UNL     1      33.275 -25.005 -13.826  0.00  0.00    -0.269 N 
ATOM     16  C   UNL     1      30.532 -23.878 -15.741  0.00  0.00    +0.151 C 
ATOM     17  C   UNL     1      29.922 -24.446 -14.477  0.00  0.00    +0.233 C 
ATOM     18  C   UNL     1      32.120 -24.629 -14.444  0.00  0.00    +0.284 C 
ATOM     19  C   UNL     1      30.027 -22.489 -16.078  0.00  0.00    +0.030 C 
ATOM     20  H   UNL     1      33.177 -25.611 -13.056  0.00  0.00    +0.157 HD
ENDBRANCH   4  15
BRANCH   1  22
ATOM     21 CL   UNL     1      32.387 -20.163 -20.992  0.00  0.00    -0.079 Cl
ATOM     22  C   UNL     1      35.288 -21.205 -18.451  0.00  0.00    +0.050 C 
ATOM     23  C   UNL     1      34.037 -20.967 -19.020  0.00  0.00    +0.029 C 
ATOM     24  C   UNL     1      36.448 -20.924 -19.171  0.00  0.00    +0.018 C 
ATOM     25  C   UNL     1      35.108 -20.166 -21.033  0.00  0.00    +0.150 C 
ATOM     26  C   UNL     1      33.947 -20.447 -20.311  0.00  0.00    +0.093 C 
ATOM     27  C   UNL     1      36.357 -20.404 -20.463  0.00  0.00    +0.039 C 
BRANCH  25  28
ATOM     28  O   UNL     1      35.049 -19.657 -22.296  0.00  0.00    -0.468 OA
BRANCH  28  29
ATOM     29  C   UNL     1      36.127 -18.817 -22.706  0.00  0.00    +0.257 C 
BRANCH  29  32
ATOM     30  S   UNL     1      35.049 -17.016 -24.521  0.00  0.00    -0.067 S 
ATOM     31  N   UNL     1      35.531 -16.491 -22.037  0.00  0.00    -0.237 NA
ATOM     32  C   UNL     1      35.602 -17.432 -22.951  0.00  0.00    +0.132 C 
ATOM     33  C   UNL     1      34.678 -15.444 -23.947  0.00  0.00    +0.057 C 
ATOM     34  C   UNL     1      35.001 -15.351 -22.609  0.00  0.00    +0.106 C 
ENDBRANCH  29  32
ENDBRANCH  28  29
ENDBRANCH  25  28
ENDBRANCH   1  22
TORSDOF 5
ENDMDL
MODEL 9
REMARK VINA RESULT:      -9.5      7.019     12.445
REMARK  Name = 42642648
REMARK  5 active torsions:
REMARK  status: ('A' for Active; 'I' for Inactive)
REMARK    1  A    between atoms: N_1  and  C_22
REMARK    2  A    between atoms: C_4  and  N_15
REMARK    3  A    between atoms: C_25  and  O_28
REMARK    4  A    between atoms: O_28  and  C_29
REMARK    5  A    between atoms: C_29  and  C_32
REMARK                            x       y       z     vdW  Elec       q    Type
REMARK                         _______ _______ _______ _____ _____    ______ ____
ROOT
ATOM      1  N   UNL     1      34.791 -11.974 -24.361  0.00  0.00    -0.301 N 
ATOM      2  N   UNL     1      32.667 -14.727 -26.606  0.00  0.00    -0.248 NA
ATOM      3  N   UNL     1      33.278 -12.452 -26.098  0.00  0.00    -0.233 NA
ATOM      4  C   UNL     1      35.146 -16.124 -23.560  0.00  0.00    +0.048 C 
ATOM      5  C   UNL     1      34.213 -14.283 -24.828  0.00  0.00    +0.117 C 
ATOM      6  C   UNL     1      35.049 -14.758 -23.802  0.00  0.00    +0.001 C 
ATOM      7  C   UNL     1      33.468 -15.170 -25.622  0.00  0.00    +0.067 C 
ATOM      8  C   UNL     1      34.071 -12.930 -25.120  0.00  0.00    +0.115 C 
ATOM      9  C   UNL     1      34.413 -17.012 -24.340  0.00  0.00    +0.016 C 
ATOM     10  C   UNL     1      33.584 -16.533 -25.357  0.00  0.00    +0.016 C 
ATOM     11  C   UNL     1      32.614 -13.392 -26.790  0.00  0.00    +0.251 C 
ATOM     12  H   UNL     1      35.651 -12.308 -24.016  0.00  0.00    +0.153 HD
ENDROOT
BRANCH   4  15
ATOM     13  O   UNL     1      36.839 -17.961 -20.906  0.00  0.00    -0.448 OA
ATOM     14  N   UNL     1      34.997 -18.725 -22.019  0.00  0.00    -0.222 NA
ATOM     15  N   UNL     1      35.982 -16.606 -22.533  0.00  0.00    -0.269 N 
ATOM     16  C   UNL     1      35.436 -19.783 -21.095  0.00  0.00    +0.151 C 
ATOM     17  C   UNL     1      36.408 -19.092 -20.162  0.00  0.00    +0.233 C 
ATOM     18  C   UNL     1      35.881 -17.787 -21.862  0.00  0.00    +0.284 C 
ATOM     19  C   UNL     1      34.243 -20.384 -20.377  0.00  0.00    +0.030 C 
ATOM     20  H   UNL     1      36.727 -16.020 -22.269  0.00  0.00    +0.157 HD
ENDBRANCH   4  15
BRANCH   1  22
ATOM     21 CL   UNL     1      31.614  -8.658 -22.109  0.00  0.00    -0.079 Cl
ATOM     22  C   UNL     1      34.515 -10.644 -24.006  0.00  0.00    +0.050 C 
ATOM     23  C   UNL     1      33.344 -10.335 -23.315  0.00  0.00    +0.029 C 
ATOM     24  C   UNL     1      35.413  -9.632 -24.344  0.00  0.00    +0.018 C 
ATOM     25  C   UNL     1      33.969  -8.001 -23.301  0.00  0.00    +0.150 C 
ATOM     26  C   UNL     1      33.071  -9.013 -22.962  0.00  0.00    +0.093 C 
ATOM     27  C   UNL     1      35.140  -8.311 -23.991  0.00  0.00    +0.039 C 
BRANCH  25  28
ATOM     28  O   UNL     1      33.728  -6.701 -22.969  0.00  0.00    -0.468 OA
BRANCH  28  29
ATOM     29  C   UNL     1      34.325  -5.701 -23.794  0.00  0.00    +0.257 C 
BRANCH  29  32
ATOM     30  S   UNL     1      33.071  -4.198 -25.761  0.00  0.00    -0.067 S 
ATOM     31  N   UNL     1      32.537  -4.057 -23.236  0.00  0.00    -0.237 NA
ATOM     32  C   UNL     1      33.297  -4.660 -24.123  0.00  0.00    +0.132 C 
ATOM     33  C   UNL     1      31.855  -3.100 -25.258  0.00  0.00    +0.057 C 
ATOM     34  C   UNL     1      31.711  -3.163 -23.888  0.00  0.00    +0.106 C 
ENDBRANCH  29  32
ENDBRANCH  28  29
ENDBRANCH  25  28
ENDBRANCH   1  22
TORSDOF 5
ENDMDL
