MODEL 1
REMARK VINA RESULT:     -12.9      0.000      0.000
REMARK  Name = 115237
REMARK  5 active torsions:
REMARK  status: ('A' for Active; 'I' for Inactive)
REMARK    1  A    between atoms: N_1  and  C_18
REMARK    2  A    between atoms: C_2  and  C_11
REMARK    3  A    between atoms: C_18  and  C_19
REMARK    4  A    between atoms: C_19  and  C_23
REMARK    5  A    between atoms: C_25  and  O_32
REMARK                            x       y       z     vdW  Elec       q    Type
REMARK                         _______ _______ _______ _____ _____    ______ ____
ROOT
ATOM      1  N   UNL     1      34.718 -20.450 -20.087  0.00  0.00    +0.387 N 
ATOM      2  C   UNL     1      34.499 -22.492 -17.992  0.00  0.00    +0.039 C 
ATOM      3  C   UNL     1      35.817 -21.762 -18.299  0.00  0.00    -0.017 C 
ATOM      4  C   UNL     1      33.308 -21.621 -18.424  0.00  0.00    -0.017 C 
ATOM      5  C   UNL     1      35.870 -21.301 -19.757  0.00  0.00    -0.077 C 
ATOM      6  C   UNL     1      33.452 -21.165 -19.878  0.00  0.00    -0.077 C 
ATOM      7  H   UNL     1      34.732 -19.645 -19.459  0.00  0.00    -0.080 HD
ENDROOT
BRANCH   2  11
ATOM      8  F   UNL     1      30.741 -23.785 -12.567  0.00  0.00    -0.204 F 
ATOM      9  O   UNL     1      35.085 -23.642 -14.628  0.00  0.00    -0.354 OA
ATOM     10  N   UNL     1      35.512 -23.285 -15.901  0.00  0.00    -0.081 NA
ATOM     11  C   UNL     1      34.402 -22.942 -16.552  0.00  0.00    +0.100 A 
ATOM     12  C   UNL     1      33.247 -23.055 -15.765  0.00  0.00    +0.054 A 
ATOM     13  C   UNL     1      33.733 -23.505 -14.550  0.00  0.00    +0.179 A 
ATOM     14  C   UNL     1      31.867 -22.843 -15.911  0.00  0.00    +0.007 C 
ATOM     15  C   UNL     1      32.939 -23.769 -13.437  0.00  0.00    +0.070 C 
ATOM     16  C   UNL     1      31.038 -23.098 -14.810  0.00  0.00    +0.030 C 
ATOM     17  C   UNL     1      31.567 -23.552 -13.597  0.00  0.00    +0.143 C 
ENDBRANCH   2  11
BRANCH   1  18
ATOM     18  C   UNL     1      34.814 -19.972 -21.466  0.00  0.00    -0.076 C 
BRANCH  18  19
ATOM     19  C   UNL     1      35.788 -18.804 -21.542  0.00  0.00    -0.007 C 
BRANCH  19  23
ATOM     20  O   UNL     1      35.260 -16.190 -20.746  0.00  0.00    -0.274 OA
ATOM     21  N   UNL     1      34.739 -15.417 -22.881  0.00  0.00    -0.235 N 
ATOM     22  N   UNL     1      34.642 -16.956 -24.676  0.00  0.00    -0.397 NA
ATOM     23  C   UNL     1      35.302 -17.765 -22.511  0.00  0.00    +0.123 C 
ATOM     24  C   UNL     1      34.500 -14.067 -22.364  0.00  0.00    +0.100 C 
ATOM     25  C   UNL     1      34.103 -14.659 -25.184  0.00  0.00    +0.177 C 
ATOM     26  C   UNL     1      34.522 -12.978 -23.420  0.00  0.00    +0.025 C 
ATOM     27  C   UNL     1      33.597 -13.380 -24.548  0.00  0.00    +0.040 C 
ATOM     28  C   UNL     1      34.496 -15.758 -24.202  0.00  0.00    +0.192 C 
ATOM     29  C   UNL     1      35.109 -16.391 -21.951  0.00  0.00    +0.237 C 
ATOM     30  C   UNL     1      35.046 -17.951 -23.820  0.00  0.00    +0.097 C 
ATOM     31  C   UNL     1      35.158 -19.292 -24.495  0.00  0.00    +0.062 C 
BRANCH  25  32
ATOM     32  O   UNL     1      33.097 -15.171 -26.047  0.00  0.00    -0.376 OA
ATOM     33  H   UNL     1      32.988 -16.121 -25.888  0.00  0.00    +0.211 HD
ENDBRANCH  25  32
ENDBRANCH  19  23
ENDBRANCH  18  19
ENDBRANCH   1  18
TORSDOF 5
ENDMDL
MODEL 2
REMARK VINA RESULT:     -12.8      3.303     10.324
REMARK  Name = 115237
REMARK  5 active torsions:
REMARK  status: ('A' for Active; 'I' for Inactive)
REMARK    1  A    between atoms: N_1  and  C_18
REMARK    2  A    between atoms: C_2  and  C_11
REMARK    3  A    between atoms: C_18  and  C_19
REMARK    4  A    between atoms: C_19  and  C_23
REMARK    5  A    between atoms: C_25  and  O_32
REMARK                            x       y       z     vdW  Elec       q    Type
REMARK                         _______ _______ _______ _____ _____    ______ ____
ROOT
ATOM      1  N   UNL     1      36.045 -19.732 -19.944  0.00  0.00    +0.387 N 
ATOM      2  C   UNL     1      35.564 -18.580 -22.599  0.00  0.00    +0.039 C 
ATOM      3  C   UNL     1      34.422 -19.059 -21.688  0.00  0.00    -0.017 C 
ATOM      4  C   UNL     1      36.791 -18.210 -21.747  0.00  0.00    -0.017 C 
ATOM      5  C   UNL     1      34.893 -20.169 -20.746  0.00  0.00    -0.077 C 
ATOM      6  C   UNL     1      37.175 -19.350 -20.802  0.00  0.00    -0.077 C 
ATOM      7  H   UNL     1      35.763 -18.908 -19.411  0.00  0.00    -0.080 HD
ENDROOT
BRANCH   2  11
ATOM      8  F   UNL     1      34.007 -12.109 -23.558  0.00  0.00    -0.204 F 
ATOM      9  O   UNL     1      34.571 -16.523 -25.385  0.00  0.00    -0.354 OA
ATOM     10  N   UNL     1      34.941 -17.736 -24.818  0.00  0.00    -0.081 NA
ATOM     11  C   UNL     1      35.142 -17.466 -23.530  0.00  0.00    +0.100 A 
ATOM     12  C   UNL     1      34.920 -16.119 -23.210  0.00  0.00    +0.054 A 
ATOM     13  C   UNL     1      34.560 -15.559 -24.423  0.00  0.00    +0.179 A 
ATOM     14  C   UNL     1      34.976 -15.301 -22.071  0.00  0.00    +0.007 C 
ATOM     15  C   UNL     1      34.242 -14.216 -24.603  0.00  0.00    +0.070 C 
ATOM     16  C   UNL     1      34.660 -13.943 -22.216  0.00  0.00    +0.030 C 
ATOM     17  C   UNL     1      34.301 -13.413 -23.460  0.00  0.00    +0.143 C 
ENDBRANCH   2  11
BRANCH   1  18
ATOM     18  C   UNL     1      36.445 -20.783 -19.009  0.00  0.00    -0.076 C 
BRANCH  18  19
ATOM     19  C   UNL     1      35.531 -21.990 -19.164  0.00  0.00    -0.007 C 
BRANCH  19  23
ATOM     20  O   UNL     1      32.766 -22.172 -18.899  0.00  0.00    -0.274 OA
ATOM     21  N   UNL     1      32.808 -22.863 -16.674  0.00  0.00    -0.235 N 
ATOM     22  N   UNL     1      34.877 -22.940 -15.528  0.00  0.00    -0.397 NA
ATOM     23  C   UNL     1      34.882 -22.342 -17.856  0.00  0.00    +0.123 C 
ATOM     24  C   UNL     1      31.346 -22.943 -16.642  0.00  0.00    +0.100 C 
ATOM     25  C   UNL     1      32.908 -23.518 -14.257  0.00  0.00    +0.177 C 
ATOM     26  C   UNL     1      30.788 -23.775 -15.504  0.00  0.00    +0.025 C 
ATOM     27  C   UNL     1      31.408 -23.300 -14.208  0.00  0.00    +0.040 C 
ATOM     28  C   UNL     1      33.585 -23.061 -15.545  0.00  0.00    +0.192 C 
ATOM     29  C   UNL     1      33.390 -22.452 -17.876  0.00  0.00    +0.237 C 
ATOM     30  C   UNL     1      35.513 -22.580 -16.690  0.00  0.00    +0.097 C 
ATOM     31  C   UNL     1      37.005 -22.458 -16.526  0.00  0.00    +0.062 C 
BRANCH  25  32
ATOM     32  O   UNL     1      33.506 -22.829 -13.169  0.00  0.00    -0.376 OA
ATOM     33  H   UNL     1      33.116 -21.945 -13.093  0.00  0.00    +0.211 HD
ENDBRANCH  25  32
ENDBRANCH  19  23
ENDBRANCH  18  19
ENDBRANCH   1  18
TORSDOF 5
ENDMDL
MODEL 3
REMARK VINA RESULT:     -12.7      1.596      1.937
REMARK  Name = 115237
REMARK  5 active torsions:
REMARK  status: ('A' for Active; 'I' for Inactive)
REMARK    1  A    between atoms: N_1  and  C_18
REMARK    2  A    between atoms: C_2  and  C_11
REMARK    3  A    between atoms: C_18  and  C_19
REMARK    4  A    between atoms: C_19  and  C_23
REMARK    5  A    between atoms: C_25  and  O_32
REMARK                            x       y       z     vdW  Elec       q    Type
REMARK                         _______ _______ _______ _____ _____    ______ ____
ROOT
ATOM      1  N   UNL     1      35.130 -20.403 -19.683  0.00  0.00    +0.387 N 
ATOM      2  C   UNL     1      36.324 -22.126 -17.632  0.00  0.00    +0.039 C 
ATOM      3  C   UNL     1      37.015 -20.853 -18.144  0.00  0.00    -0.017 C 
ATOM      4  C   UNL     1      34.803 -22.010 -17.831  0.00  0.00    -0.017 C 
ATOM      5  C   UNL     1      36.591 -20.529 -19.578  0.00  0.00    -0.077 C 
ATOM      6  C   UNL     1      34.459 -21.645 -19.276  0.00  0.00    -0.077 C 
ATOM      7  H   UNL     1      34.832 -19.662 -19.049  0.00  0.00    -0.080 HD
ENDROOT
BRANCH   2  11
ATOM      8  F   UNL     1      34.656 -24.707 -11.650  0.00  0.00    -0.204 F 
ATOM      9  O   UNL     1      37.952 -22.607 -14.454  0.00  0.00    -0.354 OA
ATOM     10  N   UNL     1      37.928 -22.176 -15.774  0.00  0.00    -0.081 NA
ATOM     11  C   UNL     1      36.703 -22.465 -16.208  0.00  0.00    +0.100 A 
ATOM     12  C   UNL     1      35.903 -23.072 -15.229  0.00  0.00    +0.054 A 
ATOM     13  C   UNL     1      36.742 -23.141 -14.131  0.00  0.00    +0.179 A 
ATOM     14  C   UNL     1      34.596 -23.571 -15.121  0.00  0.00    +0.007 C 
ATOM     15  C   UNL     1      36.380 -23.681 -12.900  0.00  0.00    +0.070 C 
ATOM     16  C   UNL     1      34.197 -24.120 -13.894  0.00  0.00    +0.030 C 
ATOM     17  C   UNL     1      35.075 -24.173 -12.806  0.00  0.00    +0.143 C 
ENDBRANCH   2  11
BRANCH   1  18
ATOM     18  C   UNL     1      34.746 -20.037 -21.046  0.00  0.00    -0.076 C 
BRANCH  18  19
ATOM     19  C   UNL     1      35.891 -19.299 -21.727  0.00  0.00    -0.007 C 
BRANCH  19  23
ATOM     20  O   UNL     1      35.462 -16.699 -20.831  0.00  0.00    -0.274 OA
ATOM     21  N   UNL     1      34.831 -15.857 -22.909  0.00  0.00    -0.235 N 
ATOM     22  N   UNL     1      34.599 -17.343 -24.736  0.00  0.00    -0.397 NA
ATOM     23  C   UNL     1      35.369 -18.224 -22.636  0.00  0.00    +0.123 C 
ATOM     24  C   UNL     1      34.650 -14.518 -22.343  0.00  0.00    +0.100 C 
ATOM     25  C   UNL     1      34.076 -15.023 -25.149  0.00  0.00    +0.177 C 
ATOM     26  C   UNL     1      34.631 -13.400 -23.368  0.00  0.00    +0.025 C 
ATOM     27  C   UNL     1      33.633 -13.753 -24.450  0.00  0.00    +0.040 C 
ATOM     28  C   UNL     1      34.505 -16.156 -24.222  0.00  0.00    +0.192 C 
ATOM     29  C   UNL     1      35.236 -16.864 -22.029  0.00  0.00    +0.237 C 
ATOM     30  C   UNL     1      35.032 -18.368 -23.933  0.00  0.00    +0.097 C 
ATOM     31  C   UNL     1      35.078 -19.692 -24.649  0.00  0.00    +0.062 C 
BRANCH  25  32
ATOM     32  O   UNL     1      33.011 -15.492 -25.964  0.00  0.00    -0.376 OA
ATOM     33  H   UNL     1      32.948 -16.457 -25.890  0.00  0.00    +0.211 HD
ENDBRANCH  25  32
ENDBRANCH  19  23
ENDBRANCH  18  19
ENDBRANCH   1  18
TORSDOF 5
ENDMDL
MODEL 4
REMARK VINA RESULT:     -12.2      1.777      2.309
REMARK  Name = 115237
REMARK  5 active torsions:
REMARK  status: ('A' for Active; 'I' for Inactive)
REMARK    1  A    between atoms: N_1  and  C_18
REMARK    2  A    between atoms: C_2  and  C_11
REMARK    3  A    between atoms: C_18  and  C_19
REMARK    4  A    between atoms: C_19  and  C_23
REMARK    5  A    between atoms: C_25  and  O_32
REMARK                            x       y       z     vdW  Elec       q    Type
REMARK                         _______ _______ _______ _____ _____    ______ ____
ROOT
ATOM      1  N   UNL     1      34.735 -20.512 -20.011  0.00  0.00    +0.387 N 
ATOM      2  C   UNL     1      34.578 -22.492 -17.852  0.00  0.00    +0.039 C 
ATOM      3  C   UNL     1      35.858 -21.694 -18.148  0.00  0.00    -0.017 C 
ATOM      4  C   UNL     1      33.349 -21.710 -18.347  0.00  0.00    -0.017 C 
ATOM      5  C   UNL     1      35.925 -21.281 -19.620  0.00  0.00    -0.077 C 
ATOM      6  C   UNL     1      33.508 -21.296 -19.811  0.00  0.00    -0.077 C 
ATOM      7  H   UNL     1      34.682 -19.688 -19.411  0.00  0.00    -0.080 HD
ENDROOT
BRANCH   2  11
ATOM      8  F   UNL     1      37.552 -24.177 -12.061  0.00  0.00    -0.204 F 
ATOM      9  O   UNL     1      33.501 -23.402 -14.536  0.00  0.00    -0.354 OA
ATOM     10  N   UNL     1      33.259 -23.028 -15.852  0.00  0.00    -0.081 NA
ATOM     11  C   UNL     1      34.465 -22.899 -16.400  0.00  0.00    +0.100 A 
ATOM     12  C   UNL     1      35.508 -23.172 -15.503  0.00  0.00    +0.054 A 
ATOM     13  C   UNL     1      34.844 -23.488 -14.330  0.00  0.00    +0.179 A 
ATOM     14  C   UNL     1      36.911 -23.196 -15.520  0.00  0.00    +0.007 C 
ATOM     15  C   UNL     1      35.477 -23.833 -13.140  0.00  0.00    +0.070 C 
ATOM     16  C   UNL     1      37.581 -23.541 -14.338  0.00  0.00    +0.030 C 
ATOM     17  C   UNL     1      36.874 -23.853 -13.171  0.00  0.00    +0.143 C 
ENDBRANCH   2  11
BRANCH   1  18
ATOM     18  C   UNL     1      34.842 -20.076 -21.402  0.00  0.00    -0.076 C 
BRANCH  18  19
ATOM     19  C   UNL     1      35.821 -18.914 -21.507  0.00  0.00    -0.007 C 
BRANCH  19  23
ATOM     20  O   UNL     1      35.304 -16.291 -20.734  0.00  0.00    -0.274 OA
ATOM     21  N   UNL     1      34.764 -15.540 -22.873  0.00  0.00    -0.235 N 
ATOM     22  N   UNL     1      34.648 -17.098 -24.650  0.00  0.00    -0.397 NA
ATOM     23  C   UNL     1      35.327 -17.885 -22.482  0.00  0.00    +0.123 C 
ATOM     24  C   UNL     1      34.531 -14.184 -22.368  0.00  0.00    +0.100 C 
ATOM     25  C   UNL     1      34.108 -14.806 -25.178  0.00  0.00    +0.177 C 
ATOM     26  C   UNL     1      34.545 -13.107 -23.435  0.00  0.00    +0.025 C 
ATOM     27  C   UNL     1      33.609 -13.519 -24.551  0.00  0.00    +0.040 C 
ATOM     28  C   UNL     1      34.508 -15.895 -24.187  0.00  0.00    +0.192 C 
ATOM     29  C   UNL     1      35.141 -16.505 -21.935  0.00  0.00    +0.237 C 
ATOM     30  C   UNL     1      35.059 -18.084 -23.787  0.00  0.00    +0.097 C 
ATOM     31  C   UNL     1      35.162 -19.433 -24.448  0.00  0.00    +0.062 C 
BRANCH  25  32
ATOM     32  O   UNL     1      33.093 -15.326 -26.025  0.00  0.00    -0.376 OA
ATOM     33  H   UNL     1      32.290 -14.790 -25.934  0.00  0.00    +0.211 HD
ENDBRANCH  25  32
ENDBRANCH  19  23
ENDBRANCH  18  19
ENDBRANCH   1  18
TORSDOF 5
ENDMDL
MODEL 5
REMARK VINA RESULT:     -12.0      3.492      6.272
REMARK  Name = 115237
REMARK  5 active torsions:
REMARK  status: ('A' for Active; 'I' for Inactive)
REMARK    1  A    between atoms: N_1  and  C_18
REMARK    2  A    between atoms: C_2  and  C_11
REMARK    3  A    between atoms: C_18  and  C_19
REMARK    4  A    between atoms: C_19  and  C_23
REMARK    5  A    between atoms: C_25  and  O_32
REMARK                            x       y       z     vdW  Elec       q    Type
REMARK                         _______ _______ _______ _____ _____    ______ ____
ROOT
ATOM      1  N   UNL     1      35.390 -15.251 -23.310  0.00  0.00    +0.387 N 
ATOM      2  C   UNL     1      35.016 -17.750 -21.819  0.00  0.00    +0.039 C 
ATOM      3  C   UNL     1      35.556 -17.720 -23.258  0.00  0.00    -0.017 C 
ATOM      4  C   UNL     1      35.307 -16.409 -21.124  0.00  0.00    -0.017 C 
ATOM      5  C   UNL     1      35.047 -16.493 -24.017  0.00  0.00    -0.077 C 
ATOM      6  C   UNL     1      34.807 -15.230 -21.961  0.00  0.00    -0.077 C 
ATOM      7  H   UNL     1      36.405 -15.214 -23.214  0.00  0.00    -0.080 HD
ENDROOT
BRANCH   2  11
ATOM      8  F   UNL     1      33.721 -23.331 -18.299  0.00  0.00    -0.204 F 
ATOM      9  O   UNL     1      36.951 -20.262 -20.110  0.00  0.00    -0.354 OA
ATOM     10  N   UNL     1      36.828 -19.101 -20.863  0.00  0.00    -0.081 NA
ATOM     11  C   UNL     1      35.517 -18.938 -21.030  0.00  0.00    +0.100 A 
ATOM     12  C   UNL     1      34.756 -19.945 -20.420  0.00  0.00    +0.054 A 
ATOM     13  C   UNL     1      35.713 -20.764 -19.848  0.00  0.00    +0.179 A 
ATOM     14  C   UNL     1      33.400 -20.276 -20.274  0.00  0.00    +0.007 C 
ATOM     15  C   UNL     1      35.427 -21.917 -19.123  0.00  0.00    +0.070 C 
ATOM     16  C   UNL     1      33.075 -21.430 -19.548  0.00  0.00    +0.030 C 
ATOM     17  C   UNL     1      34.072 -22.234 -18.985  0.00  0.00    +0.143 C 
ENDBRANCH   2  11
BRANCH   1  18
ATOM     18  C   UNL     1      34.947 -14.087 -24.077  0.00  0.00    -0.076 C 
BRANCH  18  19
ATOM     19  C   UNL     1      33.485 -13.791 -23.772  0.00  0.00    -0.007 C 
BRANCH  19  23
ATOM     20  O   UNL     1      32.221 -12.915 -21.453  0.00  0.00    -0.274 OA
ATOM     21  N   UNL     1      32.531 -10.646 -21.883  0.00  0.00    -0.235 N 
ATOM     22  N   UNL     1      33.477  -9.981 -23.947  0.00  0.00    -0.397 NA
ATOM     23  C   UNL     1      33.284 -12.332 -23.483  0.00  0.00    +0.123 C 
ATOM     24  C   UNL     1      31.863 -10.288 -20.629  0.00  0.00    +0.100 C 
ATOM     25  C   UNL     1      32.814  -8.218 -22.438  0.00  0.00    +0.177 C 
ATOM     26  C   UNL     1      32.141  -8.876 -20.151  0.00  0.00    +0.025 C 
ATOM     27  C   UNL     1      31.870  -7.918 -21.290  0.00  0.00    +0.040 C 
ATOM     28  C   UNL     1      32.937  -9.694 -22.804  0.00  0.00    +0.192 C 
ATOM     29  C   UNL     1      32.634 -12.009 -22.176  0.00  0.00    +0.237 C 
ATOM     30  C   UNL     1      33.646 -11.303 -24.275  0.00  0.00    +0.097 C 
ATOM     31  C   UNL     1      34.266 -11.494 -25.634  0.00  0.00    +0.062 C 
BRANCH  25  32
ATOM     32  O   UNL     1      32.377  -7.508 -23.588  0.00  0.00    -0.376 OA
ATOM     33  H   UNL     1      31.516  -7.101 -23.408  0.00  0.00    +0.211 HD
ENDBRANCH  25  32
ENDBRANCH  19  23
ENDBRANCH  18  19
ENDBRANCH   1  18
TORSDOF 5
ENDMDL
MODEL 6
REMARK VINA RESULT:     -11.9      3.417     10.625
REMARK  Name = 115237
REMARK  5 active torsions:
REMARK  status: ('A' for Active; 'I' for Inactive)
REMARK    1  A    between atoms: N_1  and  C_18
REMARK    2  A    between atoms: C_2  and  C_11
REMARK    3  A    between atoms: C_18  and  C_19
REMARK    4  A    between atoms: C_19  and  C_23
REMARK    5  A    between atoms: C_25  and  O_32
REMARK                            x       y       z     vdW  Elec       q    Type
REMARK                         _______ _______ _______ _____ _____    ______ ____
ROOT
ATOM      1  N   UNL     1      36.053 -19.858 -19.804  0.00  0.00    +0.387 N 
ATOM      2  C   UNL     1      35.608 -18.772 -22.492  0.00  0.00    +0.039 C 
ATOM      3  C   UNL     1      34.453 -19.218 -21.580  0.00  0.00    -0.017 C 
ATOM      4  C   UNL     1      36.829 -18.390 -21.638  0.00  0.00    -0.017 C 
ATOM      5  C   UNL     1      34.905 -20.307 -20.605  0.00  0.00    -0.077 C 
ATOM      6  C   UNL     1      37.194 -19.509 -20.660  0.00  0.00    -0.077 C 
ATOM      7  H   UNL     1      35.773 -19.019 -19.295  0.00  0.00    -0.080 HD
ENDROOT
BRANCH   2  11
ATOM      8  F   UNL     1      34.116 -12.315 -23.635  0.00  0.00    -0.204 F 
ATOM      9  O   UNL     1      34.660 -16.780 -25.340  0.00  0.00    -0.354 OA
ATOM     10  N   UNL     1      35.014 -17.981 -24.738  0.00  0.00    -0.081 NA
ATOM     11  C   UNL     1      35.204 -17.679 -23.455  0.00  0.00    +0.100 A 
ATOM     12  C   UNL     1      34.991 -16.323 -23.173  0.00  0.00    +0.054 A 
ATOM     13  C   UNL     1      34.647 -15.791 -24.404  0.00  0.00    +0.179 A 
ATOM     14  C   UNL     1      35.043 -15.475 -22.055  0.00  0.00    +0.007 C 
ATOM     15  C   UNL     1      34.343 -14.451 -24.622  0.00  0.00    +0.070 C 
ATOM     16  C   UNL     1      34.740 -14.119 -22.239  0.00  0.00    +0.030 C 
ATOM     17  C   UNL     1      34.398 -13.619 -23.500  0.00  0.00    +0.143 C 
ENDBRANCH   2  11
BRANCH   1  18
ATOM     18  C   UNL     1      36.435 -20.888 -18.837  0.00  0.00    -0.076 C 
BRANCH  18  19
ATOM     19  C   UNL     1      35.340 -21.941 -18.742  0.00  0.00    -0.007 C 
BRANCH  19  23
ATOM     20  O   UNL     1      37.530 -22.300 -17.063  0.00  0.00    -0.274 OA
ATOM     21  N   UNL     1      36.273 -22.891 -15.193  0.00  0.00    -0.235 N 
ATOM     22  N   UNL     1      33.931 -23.154 -15.411  0.00  0.00    -0.397 NA
ATOM     23  C   UNL     1      35.183 -22.424 -17.329  0.00  0.00    +0.123 C 
ATOM     24  C   UNL     1      37.488 -23.038 -14.388  0.00  0.00    +0.100 C 
ATOM     25  C   UNL     1      34.877 -23.606 -13.238  0.00  0.00    +0.177 C 
ATOM     26  C   UNL     1      37.254 -23.016 -12.889  0.00  0.00    +0.025 C 
ATOM     27  C   UNL     1      36.168 -24.016 -12.556  0.00  0.00    +0.040 C 
ATOM     28  C   UNL     1      35.018 -23.217 -14.706  0.00  0.00    +0.192 C 
ATOM     29  C   UNL     1      36.444 -22.522 -16.530  0.00  0.00    +0.237 C 
ATOM     30  C   UNL     1      34.027 -22.756 -16.722  0.00  0.00    +0.097 C 
ATOM     31  C   UNL     1      32.698 -22.744 -17.428  0.00  0.00    +0.062 C 
BRANCH  25  32
ATOM     32  O   UNL     1      33.950 -24.678 -13.146  0.00  0.00    -0.376 OA
ATOM     33  H   UNL     1      33.175 -24.483 -13.695  0.00  0.00    +0.211 HD
ENDBRANCH  25  32
ENDBRANCH  19  23
ENDBRANCH  18  19
ENDBRANCH   1  18
TORSDOF 5
ENDMDL
MODEL 7
REMARK VINA RESULT:     -11.8      3.581     10.806
REMARK  Name = 115237
REMARK  5 active torsions:
REMARK  status: ('A' for Active; 'I' for Inactive)
REMARK    1  A    between atoms: N_1  and  C_18
REMARK    2  A    between atoms: C_2  and  C_11
REMARK    3  A    between atoms: C_18  and  C_19
REMARK    4  A    between atoms: C_19  and  C_23
REMARK    5  A    between atoms: C_25  and  O_32
REMARK                            x       y       z     vdW  Elec       q    Type
REMARK                         _______ _______ _______ _____ _____    ______ ____
ROOT
ATOM      1  N   UNL     1      36.256 -19.793 -20.195  0.00  0.00    +0.387 N 
ATOM      2  C   UNL     1      35.652 -18.451 -22.733  0.00  0.00    +0.039 C 
ATOM      3  C   UNL     1      34.556 -19.035 -21.827  0.00  0.00    -0.017 C 
ATOM      4  C   UNL     1      36.897 -18.112 -21.895  0.00  0.00    -0.017 C 
ATOM      5  C   UNL     1      35.089 -20.200 -20.991  0.00  0.00    -0.077 C 
ATOM      6  C   UNL     1      37.344 -19.311 -21.056  0.00  0.00    -0.077 C 
ATOM      7  H   UNL     1      35.969 -19.022 -19.590  0.00  0.00    -0.080 HD
ENDROOT
BRANCH   2  11
ATOM      8  F   UNL     1      33.849 -11.984 -23.118  0.00  0.00    -0.204 F 
ATOM      9  O   UNL     1      34.516 -16.211 -25.315  0.00  0.00    -0.354 OA
ATOM     10  N   UNL     1      34.942 -17.452 -24.860  0.00  0.00    -0.081 NA
ATOM     11  C   UNL     1      35.167 -17.281 -23.558  0.00  0.00    +0.100 A 
ATOM     12  C   UNL     1      34.909 -15.974 -23.123  0.00  0.00    +0.054 A 
ATOM     13  C   UNL     1      34.497 -15.330 -24.277  0.00  0.00    +0.179 A 
ATOM     14  C   UNL     1      34.966 -15.250 -21.922  0.00  0.00    +0.007 C 
ATOM     15  C   UNL     1      34.129 -13.989 -24.338  0.00  0.00    +0.070 C 
ATOM     16  C   UNL     1      34.600 -13.897 -21.947  0.00  0.00    +0.030 C 
ATOM     17  C   UNL     1      34.190 -13.281 -23.135  0.00  0.00    +0.143 C 
ENDBRANCH   2  11
BRANCH   1  18
ATOM     18  C   UNL     1      36.716 -20.901 -19.359  0.00  0.00    -0.076 C 
BRANCH  18  19
ATOM     19  C   UNL     1      35.590 -21.363 -18.444  0.00  0.00    -0.007 C 
BRANCH  19  23
ATOM     20  O   UNL     1      34.370 -23.480 -17.112  0.00  0.00    -0.274 OA
ATOM     21  N   UNL     1      35.974 -23.628 -15.429  0.00  0.00    -0.235 N 
ATOM     22  N   UNL     1      37.705 -22.017 -15.338  0.00  0.00    -0.397 NA
ATOM     23  C   UNL     1      36.137 -21.908 -17.157  0.00  0.00    +0.123 C 
ATOM     24  C   UNL     1      35.263 -24.750 -14.812  0.00  0.00    +0.100 C 
ATOM     25  C   UNL     1      37.682 -23.686 -13.595  0.00  0.00    +0.177 C 
ATOM     26  C   UNL     1      36.101 -25.571 -13.851  0.00  0.00    +0.025 C 
ATOM     27  C   UNL     1      36.756 -24.635 -12.858  0.00  0.00    +0.040 C 
ATOM     28  C   UNL     1      37.089 -23.047 -14.847  0.00  0.00    +0.192 C 
ATOM     29  C   UNL     1      35.404 -23.078 -16.581  0.00  0.00    +0.237 C 
ATOM     30  C   UNL     1      37.219 -21.457 -16.493  0.00  0.00    +0.097 C 
ATOM     31  C   UNL     1      38.015 -20.260 -16.942  0.00  0.00    +0.062 C 
BRANCH  25  32
ATOM     32  O   UNL     1      38.075 -22.649 -12.708  0.00  0.00    -0.376 OA
ATOM     33  H   UNL     1      38.641 -22.018 -13.178  0.00  0.00    +0.211 HD
ENDBRANCH  25  32
ENDBRANCH  19  23
ENDBRANCH  18  19
ENDBRANCH   1  18
TORSDOF 5
ENDMDL
MODEL 8
REMARK VINA RESULT:     -11.8      5.724      9.857
REMARK  Name = 115237
REMARK  5 active torsions:
REMARK  status: ('A' for Active; 'I' for Inactive)
REMARK    1  A    between atoms: N_1  and  C_18
REMARK    2  A    between atoms: C_2  and  C_11
REMARK    3  A    between atoms: C_18  and  C_19
REMARK    4  A    between atoms: C_19  and  C_23
REMARK    5  A    between atoms: C_25  and  O_32
REMARK                            x       y       z     vdW  Elec       q    Type
REMARK                         _______ _______ _______ _____ _____    ______ ____
ROOT
ATOM      1  N   UNL     1      33.611 -12.214 -24.584  0.00  0.00    +0.387 N 
ATOM      2  C   UNL     1      34.643 -14.959 -24.520  0.00  0.00    +0.039 C 
ATOM      3  C   UNL     1      34.467 -14.114 -23.248  0.00  0.00    -0.017 C 
ATOM      4  C   UNL     1      33.681 -14.463 -25.613  0.00  0.00    -0.017 C 
ATOM      5  C   UNL     1      34.580 -12.619 -23.555  0.00  0.00    -0.077 C 
ATOM      6  C   UNL     1      33.822 -12.956 -25.834  0.00  0.00    -0.077 C 
ATOM      7  H   UNL     1      32.676 -12.437 -24.240  0.00  0.00    -0.080 HD
ENDROOT
BRANCH   2  11
ATOM      8  F   UNL     1      35.969 -20.295 -20.648  0.00  0.00    -0.204 F 
ATOM      9  O   UNL     1      33.908 -18.485 -24.599  0.00  0.00    -0.354 OA
ATOM     10  N   UNL     1      33.839 -17.200 -25.121  0.00  0.00    -0.081 NA
ATOM     11  C   UNL     1      34.515 -16.443 -24.259  0.00  0.00    +0.100 A 
ATOM     12  C   UNL     1      35.034 -17.171 -23.179  0.00  0.00    +0.054 A 
ATOM     13  C   UNL     1      34.621 -18.466 -23.440  0.00  0.00    +0.179 A 
ATOM     14  C   UNL     1      35.790 -16.916 -22.024  0.00  0.00    +0.007 C 
ATOM     15  C   UNL     1      34.904 -19.558 -22.626  0.00  0.00    +0.070 C 
ATOM     16  C   UNL     1      36.095 -17.995 -21.182  0.00  0.00    +0.030 C 
ATOM     17  C   UNL     1      35.658 -19.290 -21.479  0.00  0.00    +0.143 C 
ENDBRANCH   2  11
BRANCH   1  18
ATOM     18  C   UNL     1      33.692 -10.774 -24.823  0.00  0.00    -0.076 C 
BRANCH  18  19
ATOM     19  C   UNL     1      34.297 -10.080 -23.610  0.00  0.00    -0.007 C 
BRANCH  19  23
ATOM     20  O   UNL     1      35.204  -7.558 -24.361  0.00  0.00    -0.274 OA
ATOM     21  N   UNL     1      33.353  -6.409 -23.535  0.00  0.00    -0.235 N 
ATOM     22  N   UNL     1      31.700  -7.597 -22.328  0.00  0.00    -0.397 NA
ATOM     23  C   UNL     1      33.535  -8.832 -23.272  0.00  0.00    +0.123 C 
ATOM     24  C   UNL     1      33.910  -5.131 -23.985  0.00  0.00    +0.100 C 
ATOM     25  C   UNL     1      31.381  -5.216 -22.552  0.00  0.00    +0.177 C 
ATOM     26  C   UNL     1      32.899  -4.006 -24.084  0.00  0.00    +0.025 C 
ATOM     27  C   UNL     1      32.139  -3.923 -22.777  0.00  0.00    +0.040 C 
ATOM     28  C   UNL     1      32.187  -6.488 -22.790  0.00  0.00    +0.192 C 
ATOM     29  C   UNL     1      34.117  -7.552 -23.784  0.00  0.00    +0.237 C 
ATOM     30  C   UNL     1      32.383  -8.762 -22.576  0.00  0.00    +0.097 C 
ATOM     31  C   UNL     1      31.719  -9.970 -21.970  0.00  0.00    +0.062 C 
BRANCH  25  32
ATOM     32  O   UNL     1      30.900  -5.237 -21.215  0.00  0.00    -0.376 OA
ATOM     33  H   UNL     1      30.319  -6.003 -21.092  0.00  0.00    +0.211 HD
ENDBRANCH  25  32
ENDBRANCH  19  23
ENDBRANCH  18  19
ENDBRANCH   1  18
TORSDOF 5
ENDMDL
MODEL 9
REMARK VINA RESULT:     -11.7      3.671     10.816
REMARK  Name = 115237
REMARK  5 active torsions:
REMARK  status: ('A' for Active; 'I' for Inactive)
REMARK    1  A    between atoms: N_1  and  C_18
REMARK    2  A    between atoms: C_2  and  C_11
REMARK    3  A    between atoms: C_18  and  C_19
REMARK    4  A    between atoms: C_19  and  C_23
REMARK    5  A    between atoms: C_25  and  O_32
REMARK                            x       y       z     vdW  Elec       q    Type
REMARK                         _______ _______ _______ _____ _____    ______ ____
ROOT
ATOM      1  N   UNL     1      36.275 -20.136 -19.852  0.00  0.00    +0.387 N 
ATOM      2  C   UNL     1      35.833 -18.695 -22.368  0.00  0.00    +0.039 C 
ATOM      3  C   UNL     1      34.683 -19.321 -21.562  0.00  0.00    -0.017 C 
ATOM      4  C   UNL     1      37.015 -18.384 -21.434  0.00  0.00    -0.017 C 
ATOM      5  C   UNL     1      35.168 -20.517 -20.740  0.00  0.00    -0.077 C 
ATOM      6  C   UNL     1      37.415 -19.614 -20.617  0.00  0.00    -0.077 C 
ATOM      7  H   UNL     1      35.943 -19.393 -19.236  0.00  0.00    -0.080 HD
ENDROOT
BRANCH   2  11
ATOM      8  F   UNL     1      33.927 -12.250 -22.600  0.00  0.00    -0.204 F 
ATOM      9  O   UNL     1      34.873 -16.350 -24.929  0.00  0.00    -0.354 OA
ATOM     10  N   UNL     1      35.286 -17.605 -24.498  0.00  0.00    -0.081 NA
ATOM     11  C   UNL     1      35.395 -17.495 -23.176  0.00  0.00    +0.100 A 
ATOM     12  C   UNL     1      35.071 -16.215 -22.703  0.00  0.00    +0.054 A 
ATOM     13  C   UNL     1      34.746 -15.522 -23.856  0.00  0.00    +0.179 A 
ATOM     14  C   UNL     1      35.009 -15.550 -21.468  0.00  0.00    +0.007 C 
ATOM     15  C   UNL     1      34.354 -14.187 -23.885  0.00  0.00    +0.070 C 
ATOM     16  C   UNL     1      34.617 -14.204 -21.461  0.00  0.00    +0.030 C 
ATOM     17  C   UNL     1      34.297 -13.538 -22.649  0.00  0.00    +0.143 C 
ENDBRANCH   2  11
BRANCH   1  18
ATOM     18  C   UNL     1      36.688 -21.276 -19.032  0.00  0.00    -0.076 C 
BRANCH  18  19
ATOM     19  C   UNL     1      36.582 -20.918 -17.556  0.00  0.00    -0.007 C 
BRANCH  19  23
ATOM     20  O   UNL     1      38.831 -21.917 -16.256  0.00  0.00    -0.274 OA
ATOM     21  N   UNL     1      37.705 -23.649 -15.179  0.00  0.00    -0.235 N 
ATOM     22  N   UNL     1      35.422 -24.026 -15.673  0.00  0.00    -0.397 NA
ATOM     23  C   UNL     1      36.522 -22.156 -16.709  0.00  0.00    +0.123 C 
ATOM     24  C   UNL     1      38.942 -24.087 -14.529  0.00  0.00    +0.100 C 
ATOM     25  C   UNL     1      36.461 -25.547 -14.115  0.00  0.00    +0.177 C 
ATOM     26  C   UNL     1      38.735 -24.982 -13.322  0.00  0.00    +0.025 C 
ATOM     27  C   UNL     1      37.809 -26.114 -13.714  0.00  0.00    +0.040 C 
ATOM     28  C   UNL     1      36.518 -24.354 -15.064  0.00  0.00    +0.192 C 
ATOM     29  C   UNL     1      37.798 -22.546 -16.032  0.00  0.00    +0.237 C 
ATOM     30  C   UNL     1      35.436 -22.924 -16.493  0.00  0.00    +0.097 C 
ATOM     31  C   UNL     1      34.106 -22.666 -17.150  0.00  0.00    +0.062 C 
BRANCH  25  32
ATOM     32  O   UNL     1      35.699 -26.574 -14.734  0.00  0.00    -0.376 OA
ATOM     33  H   UNL     1      36.296 -27.206 -15.162  0.00  0.00    +0.211 HD
ENDBRANCH  25  32
ENDBRANCH  19  23
ENDBRANCH  18  19
ENDBRANCH   1  18
TORSDOF 5
ENDMDL
