MODEL 1
REMARK VINA RESULT:     -11.4      0.000      0.000
REMARK  Name = 66000
REMARK  8 active torsions:
REMARK  status: ('A' for Active; 'I' for Inactive)
REMARK    1  A    between atoms: C_1  and  O_19
REMARK    2  A    between atoms: C_4  and  C_7
REMARK    3  A    between atoms: C_10  and  C_15
REMARK    4  A    between atoms: O_19  and  C_20
REMARK    5  A    between atoms: C_20  and  C_24
REMARK    6  A    between atoms: C_23  and  C_28
REMARK    7  A    between atoms: C_28  and  C_30
REMARK    8  A    between atoms: C_30  and  O_31
REMARK                            x       y       z     vdW  Elec       q    Type
REMARK                         _______ _______ _______ _____ _____    ______ ____
ROOT
ATOM      1  C   UNL     1      35.314 -22.479 -17.342  0.00  0.00    +0.139 C 
ATOM      2  C   UNL     1      36.486 -21.809 -17.674  0.00  0.00    +0.037 C 
ATOM      3  C   UNL     1      34.159 -22.304 -18.093  0.00  0.00    +0.037 C 
ATOM      4  C   UNL     1      35.345 -20.768 -19.531  0.00  0.00    +0.000 C 
ATOM      5  C   UNL     1      36.501 -20.950 -18.772  0.00  0.00    +0.003 C 
ATOM      6  C   UNL     1      34.174 -21.444 -19.191  0.00  0.00    +0.003 C 
ENDROOT
BRANCH   4   7
ATOM      7  C   UNL     1      35.360 -19.877 -20.671  0.00  0.00    +0.000 C 
ATOM      8  C   UNL     1      34.208 -19.707 -21.439  0.00  0.00    +0.000 C 
ATOM      9  C   UNL     1      36.526 -19.185 -21.001  0.00  0.00    +0.000 C 
ATOM     10  C   UNL     1      35.388 -18.156 -22.866  0.00  0.00    +0.031 C 
ATOM     11  C   UNL     1      34.222 -18.847 -22.537  0.00  0.00    +0.003 C 
ATOM     12  C   UNL     1      36.540 -18.325 -22.099  0.00  0.00    +0.003 C 
BRANCH  10  15
ATOM     13  N   UNL     1      35.905 -15.963 -23.913  0.00  0.00    -0.343 N 
ATOM     14  N   UNL     1      34.928 -17.670 -25.175  0.00  0.00    -0.285 NA
ATOM     15  C   UNL     1      35.403 -17.259 -24.012  0.00  0.00    +0.117 C 
ATOM     16  H   UNL     1      35.904 -15.374 -24.701  0.00  0.00    +0.144 HD
ATOM     17  H   UNL     1      36.259 -15.638 -23.055  0.00  0.00    +0.144 HD
ATOM     18  H   UNL     1      34.936 -17.066 -25.951  0.00  0.00    +0.188 HD
ENDBRANCH  10  15
ENDBRANCH   4   7
BRANCH   1  19
ATOM     19  O   UNL     1      35.300 -23.324 -16.260  0.00  0.00    -0.474 OA
BRANCH  19  20
ATOM     20  C   UNL     1      35.730 -22.789 -15.021  0.00  0.00    +0.225 C 
BRANCH  20  24
ATOM     21  O   UNL     1      36.780 -27.015 -15.580  0.00  0.00    -0.275 OA
ATOM     22  N   UNL     1      35.623 -25.206 -14.648  0.00  0.00    -0.302 N 
ATOM     23  C   UNL     1      37.958 -25.066 -14.691  0.00  0.00    +0.089 C 
ATOM     24  C   UNL     1      35.937 -23.936 -14.040  0.00  0.00    +0.116 C 
ATOM     25  C   UNL     1      37.395 -24.113 -13.631  0.00  0.00    +0.033 C 
ATOM     26  C   UNL     1      36.753 -25.922 -15.034  0.00  0.00    +0.223 C 
ATOM     27  H   UNL     1      34.703 -25.534 -14.777  0.00  0.00    +0.149 HD
BRANCH  23  28
ATOM     28  C   UNL     1      39.138 -25.881 -14.195  0.00  0.00    +0.118 C 
BRANCH  28  30
ATOM     29  O   UNL     1      41.251 -24.700 -14.474  0.00  0.00    -0.250 OA
ATOM     30  C   UNL     1      40.422 -25.496 -14.886  0.00  0.00    +0.314 C 
BRANCH  30  31
ATOM     31  O   UNL     1      40.541 -26.172 -16.058  0.00  0.00    -0.480 OA
ATOM     32  H   UNL     1      39.777 -26.381 -16.558  0.00  0.00    +0.295 HD
ENDBRANCH  30  31
ENDBRANCH  28  30
ENDBRANCH  23  28
ENDBRANCH  20  24
ENDBRANCH  19  20
ENDBRANCH   1  19
TORSDOF 8
ENDMDL
MODEL 2
REMARK VINA RESULT:     -11.4      3.283      5.240
REMARK  Name = 66000
REMARK  8 active torsions:
REMARK  status: ('A' for Active; 'I' for Inactive)
REMARK    1  A    between atoms: C_1  and  O_19
REMARK    2  A    between atoms: C_4  and  C_7
REMARK    3  A    between atoms: C_10  and  C_15
REMARK    4  A    between atoms: O_19  and  C_20
REMARK    5  A    between atoms: C_20  and  C_24
REMARK    6  A    between atoms: C_23  and  C_28
REMARK    7  A    between atoms: C_28  and  C_30
REMARK    8  A    between atoms: C_30  and  O_31
REMARK                            x       y       z     vdW  Elec       q    Type
REMARK                         _______ _______ _______ _____ _____    ______ ____
ROOT
ATOM      1  C   UNL     1      34.926 -22.087 -18.359  0.00  0.00    +0.139 C 
ATOM      2  C   UNL     1      36.132 -21.555 -18.802  0.00  0.00    +0.037 C 
ATOM      3  C   UNL     1      33.721 -21.678 -18.916  0.00  0.00    +0.037 C 
ATOM      4  C   UNL     1      34.925 -20.183 -20.382  0.00  0.00    +0.000 C 
ATOM      5  C   UNL     1      36.130 -20.599 -19.817  0.00  0.00    +0.003 C 
ATOM      6  C   UNL     1      33.720 -20.721 -19.931  0.00  0.00    +0.003 C 
ENDROOT
BRANCH   4   7
ATOM      7  C   UNL     1      34.924 -19.190 -21.435  0.00  0.00    +0.000 C 
ATOM      8  C   UNL     1      34.339 -19.482 -22.668  0.00  0.00    +0.000 C 
ATOM      9  C   UNL     1      35.506 -17.941 -21.218  0.00  0.00    +0.000 C 
ATOM     10  C   UNL     1      34.918 -17.276 -23.465  0.00  0.00    +0.031 C 
ATOM     11  C   UNL     1      34.336 -18.525 -23.683  0.00  0.00    +0.003 C 
ATOM     12  C   UNL     1      35.503 -16.984 -22.233  0.00  0.00    +0.003 C 
BRANCH  10  15
ATOM     13  N   UNL     1      35.936 -15.336 -24.634  0.00  0.00    -0.343 N 
ATOM     14  N   UNL     1      33.929 -16.254 -25.402  0.00  0.00    -0.285 NA
ATOM     15  C   UNL     1      34.916 -16.279 -24.523  0.00  0.00    +0.117 C 
ATOM     16  H   UNL     1      35.913 -14.670 -25.358  0.00  0.00    +0.144 HD
ATOM     17  H   UNL     1      36.678 -15.336 -23.988  0.00  0.00    +0.144 HD
ATOM     18  H   UNL     1      33.925 -15.580 -26.119  0.00  0.00    +0.188 HD
ENDBRANCH  10  15
ENDBRANCH   4   7
BRANCH   1  19
ATOM     19  O   UNL     1      34.927 -23.027 -17.359  0.00  0.00    -0.474 OA
BRANCH  19  20
ATOM     20  C   UNL     1      34.387 -22.637 -16.109  0.00  0.00    +0.225 C 
BRANCH  20  24
ATOM     21  O   UNL     1      31.954 -23.058 -12.479  0.00  0.00    -0.275 OA
ATOM     22  N   UNL     1      33.383 -23.776 -14.188  0.00  0.00    -0.302 N 
ATOM     23  C   UNL     1      31.450 -22.625 -14.831  0.00  0.00    +0.089 C 
ATOM     24  C   UNL     1      33.434 -23.725 -15.629  0.00  0.00    +0.116 C 
ATOM     25  C   UNL     1      31.982 -23.452 -16.006  0.00  0.00    +0.033 C 
ATOM     26  C   UNL     1      32.246 -23.170 -13.660  0.00  0.00    +0.223 C 
ATOM     27  H   UNL     1      34.079 -24.198 -13.635  0.00  0.00    +0.149 HD
BRANCH  23  28
ATOM     28  C   UNL     1      29.951 -22.757 -14.637  0.00  0.00    +0.118 C 
BRANCH  28  30
ATOM     29  O   UNL     1      29.095 -21.892 -16.748  0.00  0.00    -0.250 OA
ATOM     30  C   UNL     1      29.213 -22.809 -15.950  0.00  0.00    +0.314 C 
BRANCH  30  31
ATOM     31  O   UNL     1      28.681 -24.045 -16.138  0.00  0.00    -0.480 OA
ATOM     32  H   UNL     1      28.196 -24.455 -15.450  0.00  0.00    +0.295 HD
ENDBRANCH  30  31
ENDBRANCH  28  30
ENDBRANCH  23  28
ENDBRANCH  20  24
ENDBRANCH  19  20
ENDBRANCH   1  19
TORSDOF 8
ENDMDL
MODEL 3
REMARK VINA RESULT:     -11.3      1.839      2.786
REMARK  Name = 66000
REMARK  8 active torsions:
REMARK  status: ('A' for Active; 'I' for Inactive)
REMARK    1  A    between atoms: C_1  and  O_19
REMARK    2  A    between atoms: C_4  and  C_7
REMARK    3  A    between atoms: C_10  and  C_15
REMARK    4  A    between atoms: O_19  and  C_20
REMARK    5  A    between atoms: C_20  and  C_24
REMARK    6  A    between atoms: C_23  and  C_28
REMARK    7  A    between atoms: C_28  and  C_30
REMARK    8  A    between atoms: C_30  and  O_31
REMARK                            x       y       z     vdW  Elec       q    Type
REMARK                         _______ _______ _______ _____ _____    ______ ____
ROOT
ATOM      1  C   UNL     1      34.981 -22.085 -18.284  0.00  0.00    +0.139 C 
ATOM      2  C   UNL     1      36.182 -21.558 -18.745  0.00  0.00    +0.037 C 
ATOM      3  C   UNL     1      33.771 -21.683 -18.834  0.00  0.00    +0.037 C 
ATOM      4  C   UNL     1      34.960 -20.204 -20.329  0.00  0.00    +0.000 C 
ATOM      5  C   UNL     1      36.171 -20.615 -19.771  0.00  0.00    +0.003 C 
ATOM      6  C   UNL     1      33.760 -20.738 -19.860  0.00  0.00    +0.003 C 
ENDROOT
BRANCH   4   7
ATOM      7  C   UNL     1      34.949 -19.224 -21.393  0.00  0.00    +0.000 C 
ATOM      8  C   UNL     1      35.532 -17.972 -21.194  0.00  0.00    +0.000 C 
ATOM      9  C   UNL     1      34.356 -19.531 -22.618  0.00  0.00    +0.000 C 
ATOM     10  C   UNL     1      34.929 -17.335 -23.446  0.00  0.00    +0.031 C 
ATOM     11  C   UNL     1      35.522 -17.027 -22.221  0.00  0.00    +0.003 C 
ATOM     12  C   UNL     1      34.346 -18.586 -23.645  0.00  0.00    +0.003 C 
BRANCH  10  15
ATOM     13  N   UNL     1      35.938 -15.408 -24.646  0.00  0.00    -0.343 N 
ATOM     14  N   UNL     1      33.923 -16.333 -25.385  0.00  0.00    -0.285 NA
ATOM     15  C   UNL     1      34.919 -16.349 -24.515  0.00  0.00    +0.117 C 
ATOM     16  H   UNL     1      35.910 -14.750 -25.377  0.00  0.00    +0.144 HD
ATOM     17  H   UNL     1      36.686 -15.402 -24.006  0.00  0.00    +0.144 HD
ATOM     18  H   UNL     1      33.914 -15.667 -26.110  0.00  0.00    +0.188 HD
ENDBRANCH  10  15
ENDBRANCH   4   7
BRANCH   1  19
ATOM     19  O   UNL     1      34.992 -23.014 -17.274  0.00  0.00    -0.474 OA
BRANCH  19  20
ATOM     20  C   UNL     1      35.634 -22.643 -16.066  0.00  0.00    +0.225 C 
BRANCH  20  24
ATOM     21  O   UNL     1      38.935 -24.319 -13.707  0.00  0.00    -0.275 OA
ATOM     22  N   UNL     1      37.089 -24.383 -15.144  0.00  0.00    -0.302 N 
ATOM     23  C   UNL     1      36.844 -23.183 -13.150  0.00  0.00    +0.089 C 
ATOM     24  C   UNL     1      35.739 -23.873 -15.173  0.00  0.00    +0.116 C 
ATOM     25  C   UNL     1      35.467 -23.566 -13.705  0.00  0.00    +0.033 C 
ATOM     26  C   UNL     1      37.781 -24.033 -13.987  0.00  0.00    +0.223 C 
ATOM     27  H   UNL     1      37.480 -24.924 -15.867  0.00  0.00    +0.149 HD
BRANCH  23  28
ATOM     28  C   UNL     1      36.982 -23.444 -11.662  0.00  0.00    +0.118 C 
BRANCH  28  30
ATOM     29  O   UNL     1      35.170 -24.818 -10.786  0.00  0.00    -0.250 OA
ATOM     30  C   UNL     1      36.298 -24.721 -11.245  0.00  0.00    +0.314 C 
BRANCH  30  31
ATOM     31  O   UNL     1      37.122 -25.780 -11.452  0.00  0.00    -0.480 OA
ATOM     32  H   UNL     1      37.248 -26.113 -12.319  0.00  0.00    +0.295 HD
ENDBRANCH  30  31
ENDBRANCH  28  30
ENDBRANCH  23  28
ENDBRANCH  20  24
ENDBRANCH  19  20
ENDBRANCH   1  19
TORSDOF 8
ENDMDL
MODEL 4
REMARK VINA RESULT:     -11.2      3.224      5.422
REMARK  Name = 66000
REMARK  8 active torsions:
REMARK  status: ('A' for Active; 'I' for Inactive)
REMARK    1  A    between atoms: C_1  and  O_19
REMARK    2  A    between atoms: C_4  and  C_7
REMARK    3  A    between atoms: C_10  and  C_15
REMARK    4  A    between atoms: O_19  and  C_20
REMARK    5  A    between atoms: C_20  and  C_24
REMARK    6  A    between atoms: C_23  and  C_28
REMARK    7  A    between atoms: C_28  and  C_30
REMARK    8  A    between atoms: C_30  and  O_31
REMARK                            x       y       z     vdW  Elec       q    Type
REMARK                         _______ _______ _______ _____ _____    ______ ____
ROOT
ATOM      1  C   UNL     1      34.937 -22.120 -18.296  0.00  0.00    +0.139 C 
ATOM      2  C   UNL     1      33.729 -21.698 -18.838  0.00  0.00    +0.037 C 
ATOM      3  C   UNL     1      36.142 -21.603 -18.754  0.00  0.00    +0.037 C 
ATOM      4  C   UNL     1      34.933 -20.222 -20.324  0.00  0.00    +0.000 C 
ATOM      5  C   UNL     1      33.728 -20.745 -19.856  0.00  0.00    +0.003 C 
ATOM      6  C   UNL     1      36.140 -20.651 -19.774  0.00  0.00    +0.003 C 
ENDROOT
BRANCH   4   7
ATOM      7  C   UNL     1      34.931 -19.234 -21.381  0.00  0.00    +0.000 C 
ATOM      8  C   UNL     1      35.538 -17.994 -21.179  0.00  0.00    +0.000 C 
ATOM      9  C   UNL     1      34.323 -19.521 -22.604  0.00  0.00    +0.000 C 
ATOM     10  C   UNL     1      34.930 -17.330 -23.420  0.00  0.00    +0.031 C 
ATOM     11  C   UNL     1      35.538 -17.042 -22.198  0.00  0.00    +0.003 C 
ATOM     12  C   UNL     1      34.322 -18.568 -23.623  0.00  0.00    +0.003 C 
BRANCH  10  15
ATOM     13  N   UNL     1      35.937 -15.379 -24.582  0.00  0.00    -0.343 N 
ATOM     14  N   UNL     1      33.955 -16.329 -25.376  0.00  0.00    -0.285 NA
ATOM     15  C   UNL     1      34.929 -16.336 -24.483  0.00  0.00    +0.117 C 
ATOM     16  H   UNL     1      35.915 -14.716 -25.309  0.00  0.00    +0.144 HD
ATOM     17  H   UNL     1      36.669 -15.365 -23.925  0.00  0.00    +0.144 HD
ATOM     18  H   UNL     1      33.952 -15.658 -26.096  0.00  0.00    +0.188 HD
ENDBRANCH  10  15
ENDBRANCH   4   7
BRANCH   1  19
ATOM     19  O   UNL     1      34.939 -23.058 -17.293  0.00  0.00    -0.474 OA
BRANCH  19  20
ATOM     20  C   UNL     1      34.474 -22.641 -16.022  0.00  0.00    +0.225 C 
BRANCH  20  24
ATOM     21  O   UNL     1      31.918 -22.849 -12.459  0.00  0.00    -0.275 OA
ATOM     22  N   UNL     1      33.525 -23.607 -13.982  0.00  0.00    -0.302 N 
ATOM     23  C   UNL     1      31.494 -22.852 -14.866  0.00  0.00    +0.089 C 
ATOM     24  C   UNL     1      33.651 -23.768 -15.411  0.00  0.00    +0.116 C 
ATOM     25  C   UNL     1      32.200 -23.764 -15.876  0.00  0.00    +0.033 C 
ATOM     26  C   UNL     1      32.289 -23.095 -13.597  0.00  0.00    +0.223 C 
ATOM     27  H   UNL     1      34.240 -23.837 -13.345  0.00  0.00    +0.149 HD
BRANCH  23  28
ATOM     28  C   UNL     1      30.019 -23.165 -14.707  0.00  0.00    +0.118 C 
BRANCH  28  30
ATOM     29  O   UNL     1      29.421 -22.258 -16.889  0.00  0.00    -0.250 OA
ATOM     30  C   UNL     1      29.170 -22.417 -15.704  0.00  0.00    +0.314 C 
BRANCH  30  31
ATOM     31  O   UNL     1      28.057 -21.930 -15.097  0.00  0.00    -0.480 OA
ATOM     32  H   UNL     1      27.228 -22.342 -15.238  0.00  0.00    +0.295 HD
ENDBRANCH  30  31
ENDBRANCH  28  30
ENDBRANCH  23  28
ENDBRANCH  20  24
ENDBRANCH  19  20
ENDBRANCH   1  19
TORSDOF 8
ENDMDL
MODEL 5
REMARK VINA RESULT:     -11.2      4.879     10.591
REMARK  Name = 66000
REMARK  8 active torsions:
REMARK  status: ('A' for Active; 'I' for Inactive)
REMARK    1  A    between atoms: C_1  and  O_19
REMARK    2  A    between atoms: C_4  and  C_7
REMARK    3  A    between atoms: C_10  and  C_15
REMARK    4  A    between atoms: O_19  and  C_20
REMARK    5  A    between atoms: C_20  and  C_24
REMARK    6  A    between atoms: C_23  and  C_28
REMARK    7  A    between atoms: C_28  and  C_30
REMARK    8  A    between atoms: C_30  and  O_31
REMARK                            x       y       z     vdW  Elec       q    Type
REMARK                         _______ _______ _______ _____ _____    ______ ____
ROOT
ATOM      1  C   UNL     1      35.103 -20.892 -19.758  0.00  0.00    +0.139 C 
ATOM      2  C   UNL     1      35.745 -21.602 -18.750  0.00  0.00    +0.037 C 
ATOM      3  C   UNL     1      33.717 -20.805 -19.795  0.00  0.00    +0.037 C 
ATOM      4  C   UNL     1      33.597 -22.155 -17.795  0.00  0.00    +0.000 C 
ATOM      5  C   UNL     1      34.989 -22.236 -17.766  0.00  0.00    +0.003 C 
ATOM      6  C   UNL     1      32.961 -21.440 -18.810  0.00  0.00    +0.003 C 
ENDROOT
BRANCH   4   7
ATOM      7  C   UNL     1      32.811 -22.814 -16.774  0.00  0.00    +0.000 C 
ATOM      8  C   UNL     1      31.419 -22.731 -16.804  0.00  0.00    +0.000 C 
ATOM      9  C   UNL     1      33.446 -23.532 -15.761  0.00  0.00    +0.000 C 
ATOM     10  C   UNL     1      31.296 -24.086 -14.807  0.00  0.00    +0.031 C 
ATOM     11  C   UNL     1      30.661 -23.367 -15.820  0.00  0.00    +0.003 C 
ATOM     12  C   UNL     1      32.688 -24.168 -14.777  0.00  0.00    +0.003 C 
BRANCH  10  15
ATOM     13  N   UNL     1      29.345 -25.449 -14.099  0.00  0.00    -0.343 N 
ATOM     14  N   UNL     1      30.886 -24.687 -12.516  0.00  0.00    -0.285 NA
ATOM     15  C   UNL     1      30.506 -24.748 -13.781  0.00  0.00    +0.117 C 
ATOM     16  H   UNL     1      28.825 -25.889 -13.388  0.00  0.00    +0.144 HD
ATOM     17  H   UNL     1      29.044 -25.503 -15.034  0.00  0.00    +0.144 HD
ATOM     18  H   UNL     1      30.353 -25.134 -11.820  0.00  0.00    +0.188 HD
ENDBRANCH  10  15
ENDBRANCH   4   7
BRANCH   1  19
ATOM     19  O   UNL     1      35.848 -20.268 -20.728  0.00  0.00    -0.474 OA
BRANCH  19  20
ATOM     20  C   UNL     1      35.296 -19.101 -21.312  0.00  0.00    +0.225 C 
BRANCH  20  24
ATOM     21  O   UNL     1      33.301 -18.221 -25.122  0.00  0.00    -0.275 OA
ATOM     22  N   UNL     1      34.791 -19.329 -23.697  0.00  0.00    -0.302 N 
ATOM     23  C   UNL     1      34.839 -16.989 -23.676  0.00  0.00    +0.089 C 
ATOM     24  C   UNL     1      35.812 -18.980 -22.740  0.00  0.00    +0.116 C 
ATOM     25  C   UNL     1      36.157 -17.546 -23.127  0.00  0.00    +0.033 C 
ATOM     26  C   UNL     1      34.196 -18.218 -24.291  0.00  0.00    +0.223 C 
ATOM     27  H   UNL     1      34.540 -20.256 -23.909  0.00  0.00    +0.149 HD
BRANCH  23  28
ATOM     28  C   UNL     1      35.035 -15.864 -24.675  0.00  0.00    +0.118 C 
BRANCH  28  30
ATOM     29  O   UNL     1      33.435 -14.139 -24.042  0.00  0.00    -0.250 OA
ATOM     30  C   UNL     1      33.801 -15.010 -24.816  0.00  0.00    +0.314 C 
BRANCH  30  31
ATOM     31  O   UNL     1      33.131 -15.343 -25.949  0.00  0.00    -0.480 OA
ATOM     32  H   UNL     1      33.449 -16.034 -26.496  0.00  0.00    +0.295 HD
ENDBRANCH  30  31
ENDBRANCH  28  30
ENDBRANCH  23  28
ENDBRANCH  20  24
ENDBRANCH  19  20
ENDBRANCH   1  19
TORSDOF 8
ENDMDL
MODEL 6
REMARK VINA RESULT:     -11.0      1.622      2.484
REMARK  Name = 66000
REMARK  8 active torsions:
REMARK  status: ('A' for Active; 'I' for Inactive)
REMARK    1  A    between atoms: C_1  and  O_19
REMARK    2  A    between atoms: C_4  and  C_7
REMARK    3  A    between atoms: C_10  and  C_15
REMARK    4  A    between atoms: O_19  and  C_20
REMARK    5  A    between atoms: C_20  and  C_24
REMARK    6  A    between atoms: C_23  and  C_28
REMARK    7  A    between atoms: C_28  and  C_30
REMARK    8  A    between atoms: C_30  and  O_31
REMARK                            x       y       z     vdW  Elec       q    Type
REMARK                         _______ _______ _______ _____ _____    ______ ____
ROOT
ATOM      1  C   UNL     1      34.604 -22.231 -18.572  0.00  0.00    +0.139 C 
ATOM      2  C   UNL     1      33.452 -21.634 -19.070  0.00  0.00    +0.037 C 
ATOM      3  C   UNL     1      35.861 -21.791 -18.966  0.00  0.00    +0.037 C 
ATOM      4  C   UNL     1      34.818 -20.133 -20.379  0.00  0.00    +0.000 C 
ATOM      5  C   UNL     1      33.560 -20.581 -19.977  0.00  0.00    +0.003 C 
ATOM      6  C   UNL     1      35.969 -20.738 -19.874  0.00  0.00    +0.003 C 
ENDROOT
BRANCH   4   7
ATOM      7  C   UNL     1      34.930 -19.040 -21.321  0.00  0.00    +0.000 C 
ATOM      8  C   UNL     1      34.490 -19.204 -22.635  0.00  0.00    +0.000 C 
ATOM      9  C   UNL     1      35.476 -17.822 -20.916  0.00  0.00    +0.000 C 
ATOM     10  C   UNL     1      35.142 -16.933 -23.137  0.00  0.00    +0.031 C 
ATOM     11  C   UNL     1      34.597 -18.150 -23.543  0.00  0.00    +0.003 C 
ATOM     12  C   UNL     1      35.582 -16.768 -21.824  0.00  0.00    +0.003 C 
BRANCH  10  15
ATOM     13  N   UNL     1      35.021 -14.516 -23.698  0.00  0.00    -0.343 N 
ATOM     14  N   UNL     1      35.579 -16.081 -25.342  0.00  0.00    -0.285 NA
ATOM     15  C   UNL     1      35.254 -15.835 -24.084  0.00  0.00    +0.117 C 
ATOM     16  H   UNL     1      35.101 -13.789 -24.356  0.00  0.00    +0.144 HD
ATOM     17  H   UNL     1      34.775 -14.313 -22.767  0.00  0.00    +0.144 HD
ATOM     18  H   UNL     1      35.655 -15.340 -25.985  0.00  0.00    +0.188 HD
ENDBRANCH  10  15
ENDBRANCH   4   7
BRANCH   1  19
ATOM     19  O   UNL     1      34.498 -23.269 -17.679  0.00  0.00    -0.474 OA
BRANCH  19  20
ATOM     20  C   UNL     1      33.722 -23.040 -16.516  0.00  0.00    +0.225 C 
BRANCH  20  24
ATOM     21  O   UNL     1      34.227 -24.451 -12.390  0.00  0.00    -0.275 OA
ATOM     22  N   UNL     1      34.054 -22.860 -14.097  0.00  0.00    -0.302 N 
ATOM     23  C   UNL     1      35.571 -24.611 -14.426  0.00  0.00    +0.089 C 
ATOM     24  C   UNL     1      34.649 -22.608 -15.388  0.00  0.00    +0.116 C 
ATOM     25  C   UNL     1      35.934 -23.427 -15.328  0.00  0.00    +0.033 C 
ATOM     26  C   UNL     1      34.558 -24.000 -13.476  0.00  0.00    +0.223 C 
ATOM     27  H   UNL     1      33.364 -22.284 -13.697  0.00  0.00    +0.149 HD
BRANCH  23  28
ATOM     28  C   UNL     1      36.768 -25.205 -13.708  0.00  0.00    +0.118 C 
BRANCH  28  30
ATOM     29  O   UNL     1      38.493 -26.830 -14.279  0.00  0.00    -0.250 OA
ATOM     30  C   UNL     1      37.402 -26.324 -14.495  0.00  0.00    +0.314 C 
BRANCH  30  31
ATOM     31  O   UNL     1      36.578 -26.710 -15.503  0.00  0.00    -0.480 OA
ATOM     32  H   UNL     1      36.686 -26.348 -16.361  0.00  0.00    +0.295 HD
ENDBRANCH  30  31
ENDBRANCH  28  30
ENDBRANCH  23  28
ENDBRANCH  20  24
ENDBRANCH  19  20
ENDBRANCH   1  19
TORSDOF 8
ENDMDL
MODEL 7
REMARK VINA RESULT:     -11.0      4.775     10.775
REMARK  Name = 66000
REMARK  8 active torsions:
REMARK  status: ('A' for Active; 'I' for Inactive)
REMARK    1  A    between atoms: C_1  and  O_19
REMARK    2  A    between atoms: C_4  and  C_7
REMARK    3  A    between atoms: C_10  and  C_15
REMARK    4  A    between atoms: O_19  and  C_20
REMARK    5  A    between atoms: C_20  and  C_24
REMARK    6  A    between atoms: C_23  and  C_28
REMARK    7  A    between atoms: C_28  and  C_30
REMARK    8  A    between atoms: C_30  and  O_31
REMARK                            x       y       z     vdW  Elec       q    Type
REMARK                         _______ _______ _______ _____ _____    ______ ____
ROOT
ATOM      1  C   UNL     1      35.246 -20.460 -20.397  0.00  0.00    +0.139 C 
ATOM      2  C   UNL     1      33.865 -20.486 -20.238  0.00  0.00    +0.037 C 
ATOM      3  C   UNL     1      36.078 -21.120 -19.502  0.00  0.00    +0.037 C 
ATOM      4  C   UNL     1      34.137 -21.846 -18.261  0.00  0.00    +0.000 C 
ATOM      5  C   UNL     1      33.310 -21.182 -19.165  0.00  0.00    +0.003 C 
ATOM      6  C   UNL     1      35.522 -21.815 -18.428  0.00  0.00    +0.003 C 
ENDROOT
BRANCH   4   7
ATOM      7  C   UNL     1      33.561 -22.568 -17.147  0.00  0.00    +0.000 C 
ATOM      8  C   UNL     1      34.390 -23.148 -16.187  0.00  0.00    +0.000 C 
ATOM      9  C   UNL     1      32.175 -22.682 -17.032  0.00  0.00    +0.000 C 
ATOM     10  C   UNL     1      32.449 -23.956 -14.997  0.00  0.00    +0.031 C 
ATOM     11  C   UNL     1      33.834 -23.843 -15.112  0.00  0.00    +0.003 C 
ATOM     12  C   UNL     1      31.619 -23.377 -15.957  0.00  0.00    +0.003 C 
BRANCH  10  15
ATOM     13  N   UNL     1      30.529 -25.060 -13.873  0.00  0.00    -0.343 N 
ATOM     14  N   UNL     1      32.620 -24.989 -12.834  0.00  0.00    -0.285 NA
ATOM     15  C   UNL     1      31.870 -24.681 -13.877  0.00  0.00    +0.117 C 
ATOM     16  H   UNL     1      30.158 -25.549 -13.104  0.00  0.00    +0.144 HD
ATOM     17  H   UNL     1      29.953 -24.837 -14.639  0.00  0.00    +0.144 HD
ATOM     18  H   UNL     1      32.231 -25.479 -12.074  0.00  0.00    +0.188 HD
ENDBRANCH  10  15
ENDBRANCH   4   7
BRANCH   1  19
ATOM     19  O   UNL     1      35.793 -19.775 -21.454  0.00  0.00    -0.474 OA
BRANCH  19  20
ATOM     20  C   UNL     1      34.900 -19.055 -22.285  0.00  0.00    +0.225 C 
BRANCH  20  24
ATOM     21  O   UNL     1      33.746 -16.304 -25.506  0.00  0.00    -0.275 OA
ATOM     22  N   UNL     1      35.010 -17.990 -24.487  0.00  0.00    -0.302 N 
ATOM     23  C   UNL     1      34.695 -16.015 -23.273  0.00  0.00    +0.089 C 
ATOM     24  C   UNL     1      35.713 -18.194 -23.243  0.00  0.00    +0.116 C 
ATOM     25  C   UNL     1      35.916 -16.770 -22.737  0.00  0.00    +0.033 C 
ATOM     26  C   UNL     1      34.410 -16.737 -24.576  0.00  0.00    +0.223 C 
ATOM     27  H   UNL     1      34.960 -18.667 -25.200  0.00  0.00    +0.149 HD
BRANCH  23  28
ATOM     28  C   UNL     1      34.946 -14.531 -23.463  0.00  0.00    +0.118 C 
BRANCH  28  30
ATOM     29  O   UNL     1      33.390 -13.133 -22.212  0.00  0.00    -0.250 OA
ATOM     30  C   UNL     1      33.700 -13.712 -23.242  0.00  0.00    +0.314 C 
BRANCH  30  31
ATOM     31  O   UNL     1      32.944 -13.699 -24.371  0.00  0.00    -0.480 OA
ATOM     32  H   UNL     1      33.161 -14.263 -25.086  0.00  0.00    +0.295 HD
ENDBRANCH  30  31
ENDBRANCH  28  30
ENDBRANCH  23  28
ENDBRANCH  20  24
ENDBRANCH  19  20
ENDBRANCH   1  19
TORSDOF 8
ENDMDL
MODEL 8
REMARK VINA RESULT:     -11.0      6.275     12.021
REMARK  Name = 66000
REMARK  8 active torsions:
REMARK  status: ('A' for Active; 'I' for Inactive)
REMARK    1  A    between atoms: C_1  and  O_19
REMARK    2  A    between atoms: C_4  and  C_7
REMARK    3  A    between atoms: C_10  and  C_15
REMARK    4  A    between atoms: O_19  and  C_20
REMARK    5  A    between atoms: C_20  and  C_24
REMARK    6  A    between atoms: C_23  and  C_28
REMARK    7  A    between atoms: C_28  and  C_30
REMARK    8  A    between atoms: C_30  and  O_31
REMARK                            x       y       z     vdW  Elec       q    Type
REMARK                         _______ _______ _______ _____ _____    ______ ____
ROOT
ATOM      1  C   UNL     1      35.050 -17.183 -23.939  0.00  0.00    +0.139 C 
ATOM      2  C   UNL     1      34.503 -18.440 -24.166  0.00  0.00    +0.037 C 
ATOM      3  C   UNL     1      35.490 -16.815 -22.674  0.00  0.00    +0.037 C 
ATOM      4  C   UNL     1      34.832 -18.983 -21.835  0.00  0.00    +0.000 C 
ATOM      5  C   UNL     1      34.394 -19.344 -23.110  0.00  0.00    +0.003 C 
ATOM      6  C   UNL     1      35.380 -17.719 -21.617  0.00  0.00    +0.003 C 
ENDROOT
BRANCH   4   7
ATOM      7  C   UNL     1      34.719 -19.920 -20.739  0.00  0.00    +0.000 C 
ATOM      8  C   UNL     1      35.868 -20.460 -20.161  0.00  0.00    +0.000 C 
ATOM      9  C   UNL     1      33.460 -20.284 -20.259  0.00  0.00    +0.000 C 
ATOM     10  C   UNL     1      34.500 -21.725 -18.623  0.00  0.00    +0.031 C 
ATOM     11  C   UNL     1      35.758 -21.363 -19.102  0.00  0.00    +0.003 C 
ATOM     12  C   UNL     1      33.351 -21.186 -19.201  0.00  0.00    +0.003 C 
BRANCH  10  15
ATOM     13  N   UNL     1      33.225 -23.409 -17.316  0.00  0.00    -0.343 N 
ATOM     14  N   UNL     1      35.398 -22.827 -16.684  0.00  0.00    -0.285 NA
ATOM     15  C   UNL     1      34.386 -22.667 -17.520  0.00  0.00    +0.117 C 
ATOM     16  H   UNL     1      33.170 -24.040 -16.563  0.00  0.00    +0.144 HD
ATOM     17  H   UNL     1      32.459 -23.302 -17.925  0.00  0.00    +0.144 HD
ATOM     18  H   UNL     1      35.323 -23.463 -15.937  0.00  0.00    +0.188 HD
ENDBRANCH  10  15
ENDBRANCH   4   7
BRANCH   1  19
ATOM     19  O   UNL     1      35.157 -16.293 -24.980  0.00  0.00    -0.474 OA
BRANCH  19  20
ATOM     20  C   UNL     1      35.277 -14.922 -24.643  0.00  0.00    +0.225 C 
BRANCH  20  24
ATOM     21  O   UNL     1      33.061 -12.055 -22.164  0.00  0.00    -0.275 OA
ATOM     22  N   UNL     1      33.333 -13.941 -23.523  0.00  0.00    -0.302 N 
ATOM     23  C   UNL     1      34.204 -11.921 -24.320  0.00  0.00    +0.089 C 
ATOM     24  C   UNL     1      33.915 -14.259 -24.805  0.00  0.00    +0.116 C 
ATOM     25  C   UNL     1      33.993 -12.896 -25.483  0.00  0.00    +0.033 C 
ATOM     26  C   UNL     1      33.452 -12.594 -23.188  0.00  0.00    +0.223 C 
ATOM     27  H   UNL     1      32.896 -14.607 -22.945  0.00  0.00    +0.149 HD
BRANCH  23  28
ATOM     28  C   UNL     1      33.698 -10.521 -24.615  0.00  0.00    +0.118 C 
BRANCH  28  30
ATOM     29  O   UNL     1      33.935  -8.600 -23.134  0.00  0.00    -0.250 OA
ATOM     30  C   UNL     1      34.439  -9.473 -23.824  0.00  0.00    +0.314 C 
BRANCH  30  31
ATOM     31  O   UNL     1      35.779  -9.631 -23.980  0.00  0.00    -0.480 OA
ATOM     32  H   UNL     1      36.199  -9.326 -24.759  0.00  0.00    +0.295 HD
ENDBRANCH  30  31
ENDBRANCH  28  30
ENDBRANCH  23  28
ENDBRANCH  20  24
ENDBRANCH  19  20
ENDBRANCH   1  19
TORSDOF 8
ENDMDL
MODEL 9
REMARK VINA RESULT:     -10.6      4.296     10.673
REMARK  Name = 66000
REMARK  8 active torsions:
REMARK  status: ('A' for Active; 'I' for Inactive)
REMARK    1  A    between atoms: C_1  and  O_19
REMARK    2  A    between atoms: C_4  and  C_7
REMARK    3  A    between atoms: C_10  and  C_15
REMARK    4  A    between atoms: O_19  and  C_20
REMARK    5  A    between atoms: C_20  and  C_24
REMARK    6  A    between atoms: C_23  and  C_28
REMARK    7  A    between atoms: C_28  and  C_30
REMARK    8  A    between atoms: C_30  and  O_31
REMARK                            x       y       z     vdW  Elec       q    Type
REMARK                         _______ _______ _______ _____ _____    ______ ____
ROOT
ATOM      1  C   UNL     1      34.911 -20.995 -19.762  0.00  0.00    +0.139 C 
ATOM      2  C   UNL     1      33.843 -21.621 -19.128  0.00  0.00    +0.037 C 
ATOM      3  C   UNL     1      36.175 -20.992 -19.188  0.00  0.00    +0.037 C 
ATOM      4  C   UNL     1      35.311 -22.253 -17.317  0.00  0.00    +0.000 C 
ATOM      5  C   UNL     1      34.044 -22.252 -17.902  0.00  0.00    +0.003 C 
ATOM      6  C   UNL     1      36.376 -21.622 -17.960  0.00  0.00    +0.003 C 
ENDROOT
BRANCH   4   7
ATOM      7  C   UNL     1      35.520 -22.907 -16.043  0.00  0.00    +0.000 C 
ATOM      8  C   UNL     1      36.755 -22.808 -15.403  0.00  0.00    +0.000 C 
ATOM      9  C   UNL     1      34.486 -23.635 -15.455  0.00  0.00    +0.000 C 
ATOM     10  C   UNL     1      35.922 -24.165 -13.586  0.00  0.00    +0.031 C 
ATOM     11  C   UNL     1      36.957 -23.438 -14.174  0.00  0.00    +0.003 C 
ATOM     12  C   UNL     1      34.687 -24.264 -14.226  0.00  0.00    +0.003 C 
BRANCH  10  15
ATOM     13  N   UNL     1      37.310 -25.514 -12.030  0.00  0.00    -0.343 N 
ATOM     14  N   UNL     1      35.193 -24.771 -11.378  0.00  0.00    -0.285 NA
ATOM     15  C   UNL     1      36.133 -24.822 -12.306  0.00  0.00    +0.117 C 
ATOM     16  H   UNL     1      37.431 -25.952 -11.156  0.00  0.00    +0.144 HD
ATOM     17  H   UNL     1      38.020 -25.566 -12.709  0.00  0.00    +0.144 HD
ATOM     18  H   UNL     1      35.333 -25.215 -10.510  0.00  0.00    +0.188 HD
ENDBRANCH  10  15
ENDBRANCH   4   7
BRANCH   1  19
ATOM     19  O   UNL     1      34.712 -20.374 -20.970  0.00  0.00    -0.474 OA
BRANCH  19  20
ATOM     20  C   UNL     1      35.206 -19.053 -21.102  0.00  0.00    +0.225 C 
BRANCH  20  24
ATOM     21  O   UNL     1      33.590 -18.358 -25.124  0.00  0.00    -0.275 OA
ATOM     22  N   UNL     1      34.984 -19.344 -23.523  0.00  0.00    -0.302 N 
ATOM     23  C   UNL     1      34.874 -17.006 -23.543  0.00  0.00    +0.089 C 
ATOM     24  C   UNL     1      35.868 -18.914 -22.466  0.00  0.00    +0.116 C 
ATOM     25  C   UNL     1      36.157 -17.465 -22.842  0.00  0.00    +0.033 C 
ATOM     26  C   UNL     1      34.386 -18.284 -24.200  0.00  0.00    +0.223 C 
ATOM     27  H   UNL     1      34.820 -20.289 -23.742  0.00  0.00    +0.149 HD
BRANCH  23  28
ATOM     28  C   UNL     1      35.104 -15.883 -24.537  0.00  0.00    +0.118 C 
BRANCH  28  30
ATOM     29  O   UNL     1      33.511 -14.110 -24.030  0.00  0.00    -0.250 OA
ATOM     30  C   UNL     1      33.870 -15.040 -24.735  0.00  0.00    +0.314 C 
BRANCH  30  31
ATOM     31  O   UNL     1      33.189 -15.461 -25.832  0.00  0.00    -0.480 OA
ATOM     32  H   UNL     1      32.290 -15.713 -25.758  0.00  0.00    +0.295 HD
ENDBRANCH  30  31
ENDBRANCH  28  30
ENDBRANCH  23  28
ENDBRANCH  20  24
ENDBRANCH  19  20
ENDBRANCH   1  19
TORSDOF 8
ENDMDL
