MODEL 1
REMARK VINA RESULT:     -12.2      0.000      0.000
REMARK  Name = 9826451
REMARK  9 active torsions:
REMARK  status: ('A' for Active; 'I' for Inactive)
REMARK    1  A    between atoms: C_1  and  N_2
REMARK    2  A    between atoms: C_1  and  C_19
REMARK    3  A    between atoms: C_8  and  O_10
REMARK    4  A    between atoms: O_10  and  C_11
REMARK    5  A    between atoms: C_14  and  O_17
REMARK    6  A    between atoms: C_19  and  O_20
REMARK    7  A    between atoms: O_20  and  C_24
REMARK    8  A    between atoms: C_21  and  C_27
REMARK    9  A    between atoms: C_27  and  C_32
REMARK                            x       y       z     vdW  Elec       q    Type
REMARK                         _______ _______ _______ _____ _____    ______ ____
ROOT
ATOM      1  C   UNL     1      34.073 -14.601 -24.740  0.00  0.00    +0.139 C 
ENDROOT
BRANCH   1   2
ATOM      2  N   UNL     1      34.615 -15.268 -23.581  0.00  0.00    -0.291 N 
ATOM      3  C   UNL     1      34.911 -14.470 -22.389  0.00  0.00    +0.113 C 
ATOM      4  N   UNL     1      34.589 -17.358 -24.694  0.00  0.00    -0.233 NA
ATOM      5  N   UNL     1      35.381 -19.327 -23.554  0.00  0.00    -0.214 NA
ATOM      6  C   UNL     1      34.871 -16.645 -23.583  0.00  0.00    +0.115 C 
ATOM      7  C   UNL     1      35.403 -17.195 -22.434  0.00  0.00    +0.146 C 
ATOM      8  C   UNL     1      35.639 -18.555 -22.478  0.00  0.00    +0.210 C 
ATOM      9  C   UNL     1      34.865 -18.673 -24.611  0.00  0.00    +0.254 C 
BRANCH   8  10
ATOM     10  O   UNL     1      36.166 -19.177 -21.376  0.00  0.00    -0.440 OA
BRANCH  10  11
ATOM     11  C   UNL     1      35.323 -19.984 -20.640  0.00  0.00    +0.147 C 
ATOM     12  C   UNL     1      35.849 -20.997 -19.839  0.00  0.00    +0.041 C 
ATOM     13  C   UNL     1      33.942 -19.786 -20.696  0.00  0.00    +0.041 C 
ATOM     14  C   UNL     1      33.618 -21.614 -19.151  0.00  0.00    +0.139 C 
ATOM     15  C   UNL     1      34.997 -21.813 -19.095  0.00  0.00    +0.040 C 
ATOM     16  C   UNL     1      33.090 -20.600 -19.951  0.00  0.00    +0.040 C 
BRANCH  14  17
ATOM     17  O   UNL     1      32.785 -22.409 -18.424  0.00  0.00    -0.471 OA
ATOM     18  C   UNL     1      33.269 -22.879 -17.166  0.00  0.00    +0.252 C 
ENDBRANCH  14  17
ENDBRANCH  10  11
ENDBRANCH   8  10
ENDBRANCH   1   2
BRANCH   1  19
ATOM     19  C   UNL     1      33.492 -13.255 -24.342  0.00  0.00    +0.227 C 
BRANCH  19  20
ATOM     20  O   UNL     1      34.265 -12.211 -24.931  0.00  0.00    -0.474 OA
BRANCH  20  24
ATOM     21  C   UNL     1      34.009  -8.452 -23.190  0.00  0.00    -0.021 C 
ATOM     22  C   UNL     1      33.050  -9.422 -22.899  0.00  0.00    -0.001 C 
ATOM     23  C   UNL     1      35.054  -8.745 -24.067  0.00  0.00    -0.001 C 
ATOM     24  C   UNL     1      34.180 -10.978 -24.360  0.00  0.00    +0.139 C 
ATOM     25  C   UNL     1      33.135 -10.685 -23.484  0.00  0.00    +0.037 C 
ATOM     26  C   UNL     1      35.139 -10.008 -24.652  0.00  0.00    +0.037 C 
BRANCH  21  27
ATOM     27  C   UNL     1      33.915  -7.087 -22.558  0.00  0.00    +0.047 C 
BRANCH  27  32
ATOM     28  S   UNL     1      31.643  -5.653 -23.163  0.00  0.00    -0.048 S 
ATOM     29  O   UNL     1      33.107  -6.574 -19.714  0.00  0.00    -0.274 OA
ATOM     30  O   UNL     1      30.709  -3.436 -22.105  0.00  0.00    -0.263 OA
ATOM     31  N   UNL     1      31.881  -4.900 -20.735  0.00  0.00    -0.246 N 
ATOM     32  C   UNL     1      32.516  -6.794 -22.046  0.00  0.00    +0.137 C 
ATOM     33  C   UNL     1      32.552  -6.104 -20.701  0.00  0.00    +0.239 C 
ATOM     34  C   UNL     1      31.327  -4.471 -21.912  0.00  0.00    +0.279 C 
ATOM     35  H   UNL     1      31.803  -4.352 -19.920  0.00  0.00    +0.158 HD
ENDBRANCH  27  32
ENDBRANCH  21  27
ENDBRANCH  20  24
ENDBRANCH  19  20
ENDBRANCH   1  19
TORSDOF 9
ENDMDL
MODEL 2
REMARK VINA RESULT:     -11.4      4.187     12.879
REMARK  Name = 9826451
REMARK  9 active torsions:
REMARK  status: ('A' for Active; 'I' for Inactive)
REMARK    1  A    between atoms: C_1  and  N_2
REMARK    2  A    between atoms: C_1  and  C_19
REMARK    3  A    between atoms: C_8  and  O_10
REMARK    4  A    between atoms: O_10  and  C_11
REMARK    5  A    between atoms: C_14  and  O_17
REMARK    6  A    between atoms: C_19  and  O_20
REMARK    7  A    between atoms: O_20  and  C_24
REMARK    8  A    between atoms: C_21  and  C_27
REMARK    9  A    between atoms: C_27  and  C_32
REMARK                            x       y       z     vdW  Elec       q    Type
REMARK                         _______ _______ _______ _____ _____    ______ ____
ROOT
ATOM      1  C   UNL     1      35.512 -16.924 -21.493  0.00  0.00    +0.139 C 
ENDROOT
BRANCH   1   2
ATOM      2  N   UNL     1      35.240 -16.011 -22.578  0.00  0.00    -0.291 N 
ATOM      3  C   UNL     1      35.680 -16.375 -23.926  0.00  0.00    +0.113 C 
ATOM      4  N   UNL     1      34.189 -14.481 -21.107  0.00  0.00    -0.233 NA
ATOM      5  N   UNL     1      33.306 -12.412 -21.970  0.00  0.00    -0.214 NA
ATOM      6  C   UNL     1      34.584 -14.793 -22.360  0.00  0.00    +0.115 C 
ATOM      7  C   UNL     1      34.378 -13.976 -23.453  0.00  0.00    +0.146 C 
ATOM      8  C   UNL     1      33.728 -12.786 -23.196  0.00  0.00    +0.210 C 
ATOM      9  C   UNL     1      33.566 -13.293 -20.987  0.00  0.00    +0.254 C 
BRANCH   8  10
ATOM     10  O   UNL     1      33.486 -11.920 -24.230  0.00  0.00    -0.440 OA
BRANCH  10  11
ATOM     11  C   UNL     1      33.982 -10.637 -24.112  0.00  0.00    +0.147 C 
ATOM     12  C   UNL     1      33.255  -9.668 -23.421  0.00  0.00    +0.041 C 
ATOM     13  C   UNL     1      35.212 -10.310 -24.684  0.00  0.00    +0.041 C 
ATOM     14  C   UNL     1      34.986  -8.046 -23.874  0.00  0.00    +0.139 C 
ATOM     15  C   UNL     1      33.757  -8.372 -23.302  0.00  0.00    +0.040 C 
ATOM     16  C   UNL     1      35.714  -9.015 -24.565  0.00  0.00    +0.040 C 
BRANCH  14  17
ATOM     17  O   UNL     1      35.477  -6.781 -23.758  0.00  0.00    -0.471 OA
ATOM     18  C   UNL     1      34.666  -5.720 -24.261  0.00  0.00    +0.252 C 
ENDBRANCH  14  17
ENDBRANCH  10  11
ENDBRANCH   8  10
ENDBRANCH   1   2
BRANCH   1  19
ATOM     19  C   UNL     1      35.294 -18.356 -21.952  0.00  0.00    +0.227 C 
BRANCH  19  20
ATOM     20  O   UNL     1      36.104 -19.233 -21.172  0.00  0.00    -0.474 OA
BRANCH  20  24
ATOM     21  C   UNL     1      34.137 -22.006 -18.790  0.00  0.00    -0.021 C 
ATOM     22  C   UNL     1      35.530 -21.937 -18.775  0.00  0.00    -0.001 C 
ATOM     23  C   UNL     1      33.405 -21.142 -19.606  0.00  0.00    -0.001 C 
ATOM     24  C   UNL     1      35.460 -20.143 -20.391  0.00  0.00    +0.139 C 
ATOM     25  C   UNL     1      36.192 -21.006 -19.575  0.00  0.00    +0.037 C 
ATOM     26  C   UNL     1      34.067 -20.212 -20.406  0.00  0.00    +0.037 C 
BRANCH  21  27
ATOM     27  C   UNL     1      33.424 -23.012 -17.925  0.00  0.00    +0.047 C 
BRANCH  27  32
ATOM     28  S   UNL     1      33.946 -23.232 -15.229  0.00  0.00    -0.048 S 
ATOM     29  O   UNL     1      30.657 -22.290 -17.015  0.00  0.00    -0.274 OA
ATOM     30  O   UNL     1      32.519 -24.326 -13.313  0.00  0.00    -0.263 OA
ATOM     31  N   UNL     1      31.398 -23.336 -15.090  0.00  0.00    -0.246 N 
ATOM     32  C   UNL     1      33.030 -22.427 -16.581  0.00  0.00    +0.137 C 
ATOM     33  C   UNL     1      31.566 -22.662 -16.282  0.00  0.00    +0.239 C 
ATOM     34  C   UNL     1      32.500 -23.725 -14.376  0.00  0.00    +0.279 C 
ATOM     35  H   UNL     1      30.493 -23.536 -14.757  0.00  0.00    +0.158 HD
ENDBRANCH  27  32
ENDBRANCH  21  27
ENDBRANCH  20  24
ENDBRANCH  19  20
ENDBRANCH   1  19
TORSDOF 9
ENDMDL
MODEL 3
REMARK VINA RESULT:     -11.3      5.041      9.308
REMARK  Name = 9826451
REMARK  9 active torsions:
REMARK  status: ('A' for Active; 'I' for Inactive)
REMARK    1  A    between atoms: C_1  and  N_2
REMARK    2  A    between atoms: C_1  and  C_19
REMARK    3  A    between atoms: C_8  and  O_10
REMARK    4  A    between atoms: O_10  and  C_11
REMARK    5  A    between atoms: C_14  and  O_17
REMARK    6  A    between atoms: C_19  and  O_20
REMARK    7  A    between atoms: O_20  and  C_24
REMARK    8  A    between atoms: C_21  and  C_27
REMARK    9  A    between atoms: C_27  and  C_32
REMARK                            x       y       z     vdW  Elec       q    Type
REMARK                         _______ _______ _______ _____ _____    ______ ____
ROOT
ATOM      1  C   UNL     1      36.154 -21.660 -18.071  0.00  0.00    +0.139 C 
ENDROOT
BRANCH   1   2
ATOM      2  N   UNL     1      35.026 -22.350 -17.491  0.00  0.00    -0.291 N 
ATOM      3  C   UNL     1      33.825 -22.535 -18.306  0.00  0.00    +0.113 C 
ATOM      4  N   UNL     1      36.180 -22.644 -15.443  0.00  0.00    -0.233 NA
ATOM      5  N   UNL     1      35.092 -23.770 -13.612  0.00  0.00    -0.214 NA
ATOM      6  C   UNL     1      35.060 -22.827 -16.174  0.00  0.00    +0.115 C 
ATOM      7  C   UNL     1      33.931 -23.463 -15.699  0.00  0.00    +0.146 C 
ATOM      8  C   UNL     1      34.006 -23.919 -14.398  0.00  0.00    +0.210 C 
ATOM      9  C   UNL     1      36.127 -23.132 -14.190  0.00  0.00    +0.254 C 
BRANCH   8  10
ATOM     10  O   UNL     1      32.926 -24.562 -13.852  0.00  0.00    -0.440 OA
BRANCH  10  11
ATOM     11  C   UNL     1      31.673 -24.180 -14.289  0.00  0.00    +0.147 C 
ATOM     12  C   UNL     1      31.305 -22.835 -14.266  0.00  0.00    +0.041 C 
ATOM     13  C   UNL     1      30.774 -25.141 -14.756  0.00  0.00    +0.041 C 
ATOM     14  C   UNL     1      29.142 -23.410 -15.173  0.00  0.00    +0.139 C 
ATOM     15  C   UNL     1      30.040 -22.449 -14.707  0.00  0.00    +0.040 C 
ATOM     16  C   UNL     1      29.510 -24.755 -15.198  0.00  0.00    +0.040 C 
BRANCH  14  17
ATOM     17  O   UNL     1      27.907 -23.034 -15.605  0.00  0.00    -0.471 OA
ATOM     18  C   UNL     1      27.817 -22.485 -16.919  0.00  0.00    +0.252 C 
ENDBRANCH  14  17
ENDBRANCH  10  11
ENDBRANCH   8  10
ENDBRANCH   1   2
BRANCH   1  19
ATOM     19  C   UNL     1      35.867 -21.324 -19.524  0.00  0.00    +0.227 C 
BRANCH  19  20
ATOM     20  O   UNL     1      36.512 -20.098 -19.865  0.00  0.00    -0.474 OA
BRANCH  20  24
ATOM     21  C   UNL     1      35.092 -18.073 -23.197  0.00  0.00    -0.021 C 
ATOM     22  C   UNL     1      34.229 -18.869 -22.445  0.00  0.00    -0.001 C 
ATOM     23  C   UNL     1      36.433 -17.957 -22.829  0.00  0.00    -0.001 C 
ATOM     24  C   UNL     1      36.046 -19.435 -20.958  0.00  0.00    +0.139 C 
ATOM     25  C   UNL     1      34.705 -19.550 -21.325  0.00  0.00    +0.037 C 
ATOM     26  C   UNL     1      36.910 -18.639 -21.711  0.00  0.00    +0.037 C 
BRANCH  21  27
ATOM     27  C   UNL     1      34.576 -17.337 -24.407  0.00  0.00    +0.047 C 
BRANCH  27  32
ATOM     28  S   UNL     1      35.009 -15.280 -22.627  0.00  0.00    -0.048 S 
ATOM     29  O   UNL     1      33.433 -15.177 -26.148  0.00  0.00    -0.274 OA
ATOM     30  O   UNL     1      33.448 -13.281 -21.937  0.00  0.00    -0.263 OA
ATOM     31  N   UNL     1      33.304 -14.090 -24.110  0.00  0.00    -0.246 N 
ATOM     32  C   UNL     1      34.899 -15.855 -24.350  0.00  0.00    +0.137 C 
ATOM     33  C   UNL     1      33.807 -15.026 -24.990  0.00  0.00    +0.239 C 
ATOM     34  C   UNL     1      33.788 -14.043 -22.830  0.00  0.00    +0.279 C 
ATOM     35  H   UNL     1      32.603 -13.463 -24.400  0.00  0.00    +0.158 HD
ENDBRANCH  27  32
ENDBRANCH  21  27
ENDBRANCH  20  24
ENDBRANCH  19  20
ENDBRANCH   1  19
TORSDOF 9
ENDMDL
MODEL 4
REMARK VINA RESULT:     -11.1      2.316      3.283
REMARK  Name = 9826451
REMARK  9 active torsions:
REMARK  status: ('A' for Active; 'I' for Inactive)
REMARK    1  A    between atoms: C_1  and  N_2
REMARK    2  A    between atoms: C_1  and  C_19
REMARK    3  A    between atoms: C_8  and  O_10
REMARK    4  A    between atoms: O_10  and  C_11
REMARK    5  A    between atoms: C_14  and  O_17
REMARK    6  A    between atoms: C_19  and  O_20
REMARK    7  A    between atoms: O_20  and  C_24
REMARK    8  A    between atoms: C_21  and  C_27
REMARK    9  A    between atoms: C_27  and  C_32
REMARK                            x       y       z     vdW  Elec       q    Type
REMARK                         _______ _______ _______ _____ _____    ______ ____
ROOT
ATOM      1  C   UNL     1      33.041 -12.529 -21.859  0.00  0.00    +0.139 C 
ENDROOT
BRANCH   1   2
ATOM      2  N   UNL     1      33.888 -13.698 -21.867  0.00  0.00    -0.291 N 
ATOM      3  C   UNL     1      34.589 -14.063 -20.635  0.00  0.00    +0.113 C 
ATOM      4  N   UNL     1      33.398 -14.112 -24.147  0.00  0.00    -0.233 NA
ATOM      5  N   UNL     1      34.405 -15.996 -25.260  0.00  0.00    -0.214 NA
ATOM      6  C   UNL     1      34.055 -14.470 -23.024  0.00  0.00    +0.115 C 
ATOM      7  C   UNL     1      34.894 -15.563 -22.943  0.00  0.00    +0.146 C 
ATOM      8  C   UNL     1      35.032 -16.297 -24.104  0.00  0.00    +0.210 C 
ATOM      9  C   UNL     1      33.615 -14.907 -25.211  0.00  0.00    +0.254 C 
BRANCH   8  10
ATOM     10  O   UNL     1      35.848 -17.398 -24.105  0.00  0.00    -0.440 OA
BRANCH  10  11
ATOM     11  C   UNL     1      35.858 -18.181 -22.968  0.00  0.00    +0.147 C 
ATOM     12  C   UNL     1      37.001 -18.241 -22.172  0.00  0.00    +0.041 C 
ATOM     13  C   UNL     1      34.723 -18.912 -22.615  0.00  0.00    +0.041 C 
ATOM     14  C   UNL     1      35.876 -19.763 -20.671  0.00  0.00    +0.139 C 
ATOM     15  C   UNL     1      37.011 -19.032 -21.024  0.00  0.00    +0.040 C 
ATOM     16  C   UNL     1      34.732 -19.702 -21.467  0.00  0.00    +0.040 C 
BRANCH  14  17
ATOM     17  O   UNL     1      35.885 -20.534 -19.549  0.00  0.00    -0.471 OA
ATOM     18  C   UNL     1      34.727 -21.329 -19.298  0.00  0.00    +0.252 C 
ENDBRANCH  14  17
ENDBRANCH  10  11
ENDBRANCH   8  10
ENDBRANCH   1   2
BRANCH   1  19
ATOM     19  C   UNL     1      32.309 -12.425 -20.531  0.00  0.00    +0.227 C 
BRANCH  19  20
ATOM     20  O   UNL     1      31.298 -11.424 -20.624  0.00  0.00    -0.474 OA
BRANCH  20  24
ATOM     21  C   UNL     1      32.535  -7.557 -21.486  0.00  0.00    -0.021 C 
ATOM     22  C   UNL     1      32.018  -8.366 -22.498  0.00  0.00    -0.001 C 
ATOM     23  C   UNL     1      32.637  -8.048 -20.184  0.00  0.00    -0.001 C 
ATOM     24  C   UNL     1      31.704 -10.156 -20.907  0.00  0.00    +0.139 C 
ATOM     25  C   UNL     1      31.602  -9.665 -22.209  0.00  0.00    +0.037 C 
ATOM     26  C   UNL     1      32.222  -9.347 -19.895  0.00  0.00    +0.037 C 
BRANCH  21  27
ATOM     27  C   UNL     1      32.984  -6.153 -21.800  0.00  0.00    +0.047 C 
BRANCH  27  32
ATOM     28  S   UNL     1      33.319  -4.656 -24.088  0.00  0.00    -0.048 S 
ATOM     29  O   UNL     1      30.312  -4.794 -21.673  0.00  0.00    -0.274 OA
ATOM     30  O   UNL     1      32.745  -2.135 -24.560  0.00  0.00    -0.263 OA
ATOM     31  N   UNL     1      31.393  -3.313 -23.084  0.00  0.00    -0.246 N 
ATOM     32  C   UNL     1      32.209  -5.556 -22.961  0.00  0.00    +0.137 C 
ATOM     33  C   UNL     1      31.195  -4.540 -22.485  0.00  0.00    +0.239 C 
ATOM     34  C   UNL     1      32.437  -3.150 -23.955  0.00  0.00    +0.279 C 
ATOM     35  H   UNL     1      30.789  -2.561 -22.885  0.00  0.00    +0.158 HD
ENDBRANCH  27  32
ENDBRANCH  21  27
ENDBRANCH  20  24
ENDBRANCH  19  20
ENDBRANCH   1  19
TORSDOF 9
ENDMDL
MODEL 5
REMARK VINA RESULT:     -11.0      4.452     12.123
REMARK  Name = 9826451
REMARK  9 active torsions:
REMARK  status: ('A' for Active; 'I' for Inactive)
REMARK    1  A    between atoms: C_1  and  N_2
REMARK    2  A    between atoms: C_1  and  C_19
REMARK    3  A    between atoms: C_8  and  O_10
REMARK    4  A    between atoms: O_10  and  C_11
REMARK    5  A    between atoms: C_14  and  O_17
REMARK    6  A    between atoms: C_19  and  O_20
REMARK    7  A    between atoms: O_20  and  C_24
REMARK    8  A    between atoms: C_21  and  C_27
REMARK    9  A    between atoms: C_27  and  C_32
REMARK                            x       y       z     vdW  Elec       q    Type
REMARK                         _______ _______ _______ _____ _____    ______ ____
ROOT
ATOM      1  C   UNL     1      34.904 -18.501 -23.804  0.00  0.00    +0.139 C 
ENDROOT
BRANCH   1   2
ATOM      2  N   UNL     1      35.169 -17.133 -23.429  0.00  0.00    -0.291 N 
ATOM      3  C   UNL     1      36.075 -16.877 -22.308  0.00  0.00    +0.113 C 
ATOM      4  N   UNL     1      33.738 -16.323 -25.134  0.00  0.00    -0.233 NA
ATOM      5  N   UNL     1      33.418 -13.950 -25.396  0.00  0.00    -0.214 NA
ATOM      6  C   UNL     1      34.569 -16.061 -24.103  0.00  0.00    +0.115 C 
ATOM      7  C   UNL     1      34.870 -14.787 -23.667  0.00  0.00    +0.146 C 
ATOM      8  C   UNL     1      34.259 -13.759 -24.359  0.00  0.00    +0.210 C 
ATOM      9  C   UNL     1      33.205 -15.238 -25.725  0.00  0.00    +0.254 C 
BRANCH   8  10
ATOM     10  O   UNL     1      34.507 -12.464 -23.987  0.00  0.00    -0.440 OA
BRANCH  10  11
ATOM     11  C   UNL     1      33.603 -11.866 -23.132  0.00  0.00    +0.147 C 
ATOM     12  C   UNL     1      33.279 -10.519 -23.290  0.00  0.00    +0.041 C 
ATOM     13  C   UNL     1      33.014 -12.610 -22.108  0.00  0.00    +0.041 C 
ATOM     14  C   UNL     1      31.777 -10.658 -21.404  0.00  0.00    +0.139 C 
ATOM     15  C   UNL     1      32.366  -9.915 -22.426  0.00  0.00    +0.040 C 
ATOM     16  C   UNL     1      32.100 -12.006 -21.245  0.00  0.00    +0.040 C 
BRANCH  14  17
ATOM     17  O   UNL     1      30.885 -10.069 -20.561  0.00  0.00    -0.471 OA
ATOM     18  C   UNL     1      31.284  -9.910 -19.200  0.00  0.00    +0.252 C 
ENDBRANCH  14  17
ENDBRANCH  10  11
ENDBRANCH   8  10
ENDBRANCH   1   2
BRANCH   1  19
ATOM     19  C   UNL     1      35.329 -19.439 -22.687  0.00  0.00    +0.227 C 
BRANCH  19  20
ATOM     20  O   UNL     1      34.690 -19.050 -21.472  0.00  0.00    -0.474 OA
BRANCH  20  24
ATOM     21  C   UNL     1      33.891 -22.045 -18.713  0.00  0.00    -0.021 C 
ATOM     22  C   UNL     1      32.841 -21.330 -19.289  0.00  0.00    -0.001 C 
ATOM     23  C   UNL     1      35.209 -21.754 -19.064  0.00  0.00    -0.001 C 
ATOM     24  C   UNL     1      34.428 -20.032 -20.567  0.00  0.00    +0.139 C 
ATOM     25  C   UNL     1      33.109 -20.323 -20.216  0.00  0.00    +0.037 C 
ATOM     26  C   UNL     1      35.477 -20.747 -19.990  0.00  0.00    +0.037 C 
BRANCH  21  27
ATOM     27  C   UNL     1      33.600 -23.133 -17.711  0.00  0.00    +0.047 C 
BRANCH  27  32
ATOM     28  S   UNL     1      34.152 -23.329 -15.020  0.00  0.00    -0.048 S 
ATOM     29  O   UNL     1      30.809 -22.541 -16.780  0.00  0.00    -0.274 OA
ATOM     30  O   UNL     1      32.793 -24.491 -13.093  0.00  0.00    -0.263 OA
ATOM     31  N   UNL     1      31.614 -23.553 -14.861  0.00  0.00    -0.246 N 
ATOM     32  C   UNL     1      33.190 -22.568 -16.363  0.00  0.00    +0.137 C 
ATOM     33  C   UNL     1      31.741 -22.871 -16.053  0.00  0.00    +0.239 C 
ATOM     34  C   UNL     1      32.738 -23.890 -14.155  0.00  0.00    +0.279 C 
ATOM     35  H   UNL     1      30.722 -23.796 -14.521  0.00  0.00    +0.158 HD
ENDBRANCH  27  32
ENDBRANCH  21  27
ENDBRANCH  20  24
ENDBRANCH  19  20
ENDBRANCH   1  19
TORSDOF 9
ENDMDL
MODEL 6
REMARK VINA RESULT:     -10.9      3.770     12.549
REMARK  Name = 9826451
REMARK  9 active torsions:
REMARK  status: ('A' for Active; 'I' for Inactive)
REMARK    1  A    between atoms: C_1  and  N_2
REMARK    2  A    between atoms: C_1  and  C_19
REMARK    3  A    between atoms: C_8  and  O_10
REMARK    4  A    between atoms: O_10  and  C_11
REMARK    5  A    between atoms: C_14  and  O_17
REMARK    6  A    between atoms: C_19  and  O_20
REMARK    7  A    between atoms: O_20  and  C_24
REMARK    8  A    between atoms: C_21  and  C_27
REMARK    9  A    between atoms: C_27  and  C_32
REMARK                            x       y       z     vdW  Elec       q    Type
REMARK                         _______ _______ _______ _____ _____    ______ ____
ROOT
ATOM      1  C   UNL     1      33.506 -13.002 -23.599  0.00  0.00    +0.139 C 
ENDROOT
BRANCH   1   2
ATOM      2  N   UNL     1      33.584 -11.566 -23.468  0.00  0.00    -0.291 N 
ATOM      3  C   UNL     1      34.472 -10.829 -24.367  0.00  0.00    +0.113 C 
ATOM      4  N   UNL     1      32.029 -11.583 -21.681  0.00  0.00    -0.233 NA
ATOM      5  N   UNL     1      31.409  -9.511 -20.620  0.00  0.00    -0.214 NA
ATOM      6  C   UNL     1      32.841 -10.880 -22.498  0.00  0.00    +0.115 C 
ATOM      7  C   UNL     1      32.989  -9.509 -22.437  0.00  0.00    +0.146 C 
ATOM      8  C   UNL     1      32.240  -8.871 -21.468  0.00  0.00    +0.210 C 
ATOM      9  C   UNL     1      31.353 -10.847 -20.779  0.00  0.00    +0.254 C 
BRANCH   8  10
ATOM     10  O   UNL     1      32.330  -7.509 -21.344  0.00  0.00    -0.440 OA
BRANCH  10  11
ATOM     11  C   UNL     1      32.543  -6.780 -22.496  0.00  0.00    +0.147 C 
ATOM     12  C   UNL     1      31.495  -6.565 -23.391  0.00  0.00    +0.041 C 
ATOM     13  C   UNL     1      33.808  -6.256 -22.766  0.00  0.00    +0.041 C 
ATOM     14  C   UNL     1      32.974  -5.304 -24.824  0.00  0.00    +0.139 C 
ATOM     15  C   UNL     1      31.710  -5.828 -24.554  0.00  0.00    +0.040 C 
ATOM     16  C   UNL     1      34.023  -5.518 -23.929  0.00  0.00    +0.040 C 
BRANCH  14  17
ATOM     17  O   UNL     1      33.185  -4.583 -25.959  0.00  0.00    -0.471 OA
ATOM     18  C   UNL     1      34.540  -4.338 -26.331  0.00  0.00    +0.252 C 
ENDBRANCH  14  17
ENDBRANCH  10  11
ENDBRANCH   8  10
ENDBRANCH   1   2
BRANCH   1  19
ATOM     19  C   UNL     1      34.641 -13.657 -22.830  0.00  0.00    +0.227 C 
BRANCH  19  20
ATOM     20  O   UNL     1      35.260 -14.647 -23.649  0.00  0.00    -0.474 OA
BRANCH  20  24
ATOM     21  C   UNL     1      35.179 -18.562 -22.274  0.00  0.00    -0.021 C 
ATOM     22  C   UNL     1      35.343 -17.510 -21.373  0.00  0.00    -0.001 C 
ATOM     23  C   UNL     1      35.042 -18.298 -23.637  0.00  0.00    -0.001 C 
ATOM     24  C   UNL     1      35.234 -15.931 -23.198  0.00  0.00    +0.139 C 
ATOM     25  C   UNL     1      35.370 -16.194 -21.835  0.00  0.00    +0.037 C 
ATOM     26  C   UNL     1      35.070 -16.983 -24.098  0.00  0.00    +0.037 C 
BRANCH  21  27
ATOM     27  C   UNL     1      35.149 -19.983 -21.774  0.00  0.00    +0.047 C 
BRANCH  27  32
ATOM     28  S   UNL     1      35.560 -21.329 -19.405  0.00  0.00    -0.048 S 
ATOM     29  O   UNL     1      32.287 -19.904 -20.874  0.00  0.00    -0.274 OA
ATOM     30  O   UNL     1      34.149 -23.238 -18.277  0.00  0.00    -0.263 OA
ATOM     31  N   UNL     1      33.029 -21.640 -19.537  0.00  0.00    -0.246 N 
ATOM     32  C   UNL     1      34.640 -20.072 -20.346  0.00  0.00    +0.137 C 
ATOM     33  C   UNL     1      33.191 -20.504 -20.301  0.00  0.00    +0.239 C 
ATOM     34  C   UNL     1      34.126 -22.234 -18.972  0.00  0.00    +0.279 C 
ATOM     35  H   UNL     1      32.131 -22.022 -19.399  0.00  0.00    +0.158 HD
ENDBRANCH  27  32
ENDBRANCH  21  27
ENDBRANCH  20  24
ENDBRANCH  19  20
ENDBRANCH   1  19
TORSDOF 9
ENDMDL
MODEL 7
REMARK VINA RESULT:     -10.9      5.576     13.770
REMARK  Name = 9826451
REMARK  9 active torsions:
REMARK  status: ('A' for Active; 'I' for Inactive)
REMARK    1  A    between atoms: C_1  and  N_2
REMARK    2  A    between atoms: C_1  and  C_19
REMARK    3  A    between atoms: C_8  and  O_10
REMARK    4  A    between atoms: O_10  and  C_11
REMARK    5  A    between atoms: C_14  and  O_17
REMARK    6  A    between atoms: C_19  and  O_20
REMARK    7  A    between atoms: O_20  and  C_24
REMARK    8  A    between atoms: C_21  and  C_27
REMARK    9  A    between atoms: C_27  and  C_32
REMARK                            x       y       z     vdW  Elec       q    Type
REMARK                         _______ _______ _______ _____ _____    ______ ____
ROOT
ATOM      1  C   UNL     1      34.564 -21.158 -18.983  0.00  0.00    +0.139 C 
ENDROOT
BRANCH   1   2
ATOM      2  N   UNL     1      34.204 -20.426 -20.174  0.00  0.00    -0.291 N 
ATOM      3  C   UNL     1      32.814 -20.471 -20.629  0.00  0.00    +0.113 C 
ATOM      4  N   UNL     1      36.431 -19.669 -20.456  0.00  0.00    -0.233 NA
ATOM      5  N   UNL     1      36.983 -18.259 -22.329  0.00  0.00    -0.214 NA
ATOM      6  C   UNL     1      35.155 -19.695 -20.897  0.00  0.00    +0.115 C 
ATOM      7  C   UNL     1      34.724 -19.036 -22.031  0.00  0.00    +0.146 C 
ATOM      8  C   UNL     1      35.691 -18.327 -22.714  0.00  0.00    +0.210 C 
ATOM      9  C   UNL     1      37.278 -18.943 -21.209  0.00  0.00    +0.254 C 
BRANCH   8  10
ATOM     10  O   UNL     1      35.342 -17.645 -23.850  0.00  0.00    -0.440 OA
BRANCH  10  11
ATOM     11  C   UNL     1      34.984 -16.319 -23.710  0.00  0.00    +0.147 C 
ATOM     12  C   UNL     1      34.404 -15.636 -24.778  0.00  0.00    +0.041 C 
ATOM     13  C   UNL     1      35.203 -15.663 -22.498  0.00  0.00    +0.041 C 
ATOM     14  C   UNL     1      34.261 -13.640 -23.425  0.00  0.00    +0.139 C 
ATOM     15  C   UNL     1      34.043 -14.296 -24.636  0.00  0.00    +0.040 C 
ATOM     16  C   UNL     1      34.841 -14.324 -22.355  0.00  0.00    +0.040 C 
BRANCH  14  17
ATOM     17  O   UNL     1      33.908 -12.333 -23.285  0.00  0.00    -0.471 OA
ATOM     18  C   UNL     1      34.099 -11.484 -24.415  0.00  0.00    +0.252 C 
ENDBRANCH  14  17
ENDBRANCH  10  11
ENDBRANCH   8  10
ENDBRANCH   1   2
BRANCH   1  19
ATOM     19  C   UNL     1      33.735 -22.427 -18.881  0.00  0.00    +0.227 C 
BRANCH  19  20
ATOM     20  O   UNL     1      32.906 -22.361 -17.721  0.00  0.00    -0.474 OA
BRANCH  20  24
ATOM     21  C   UNL     1      34.373 -24.090 -14.245  0.00  0.00    -0.021 C 
ATOM     22  C   UNL     1      35.179 -24.017 -15.381  0.00  0.00    -0.001 C 
ATOM     23  C   UNL     1      33.074 -23.582 -14.278  0.00  0.00    -0.001 C 
ATOM     24  C   UNL     1      33.387 -22.928 -16.582  0.00  0.00    +0.139 C 
ATOM     25  C   UNL     1      34.686 -23.436 -16.550  0.00  0.00    +0.037 C 
ATOM     26  C   UNL     1      32.581 -23.002 -15.446  0.00  0.00    +0.037 C 
BRANCH  21  27
ATOM     27  C   UNL     1      34.906 -24.718 -12.983  0.00  0.00    +0.047 C 
BRANCH  27  32
ATOM     28  S   UNL     1      37.106 -23.062 -12.924  0.00  0.00    -0.048 S 
ATOM     29  O   UNL     1      35.355 -24.909 -10.023  0.00  0.00    -0.274 OA
ATOM     30  O   UNL     1      39.380 -23.314 -11.630  0.00  0.00    -0.263 OA
ATOM     31  N   UNL     1      37.456 -24.171 -10.650  0.00  0.00    -0.246 N 
ATOM     32  C   UNL     1      35.616 -23.706 -12.102  0.00  0.00    +0.137 C 
ATOM     33  C   UNL     1      36.096 -24.335 -10.813  0.00  0.00    +0.239 C 
ATOM     34  C   UNL     1      38.179 -23.534 -11.624  0.00  0.00    +0.279 C 
ATOM     35  H   UNL     1      37.903 -24.511  -9.841  0.00  0.00    +0.158 HD
ENDBRANCH  27  32
ENDBRANCH  21  27
ENDBRANCH  20  24
ENDBRANCH  19  20
ENDBRANCH   1  19
TORSDOF 9
ENDMDL
MODEL 8
REMARK VINA RESULT:     -10.8      3.139      6.195
REMARK  Name = 9826451
REMARK  9 active torsions:
REMARK  status: ('A' for Active; 'I' for Inactive)
REMARK    1  A    between atoms: C_1  and  N_2
REMARK    2  A    between atoms: C_1  and  C_19
REMARK    3  A    between atoms: C_8  and  O_10
REMARK    4  A    between atoms: O_10  and  C_11
REMARK    5  A    between atoms: C_14  and  O_17
REMARK    6  A    between atoms: C_19  and  O_20
REMARK    7  A    between atoms: O_20  and  C_24
REMARK    8  A    between atoms: C_21  and  C_27
REMARK    9  A    between atoms: C_27  and  C_32
REMARK                            x       y       z     vdW  Elec       q    Type
REMARK                         _______ _______ _______ _____ _____    ______ ____
ROOT
ATOM      1  C   UNL     1      35.166 -19.175 -20.992  0.00  0.00    +0.139 C 
ENDROOT
BRANCH   1   2
ATOM      2  N   UNL     1      34.495 -20.197 -20.224  0.00  0.00    -0.291 N 
ATOM      3  C   UNL     1      33.085 -20.472 -20.507  0.00  0.00    +0.113 C 
ATOM      4  N   UNL     1      36.460 -20.637 -18.977  0.00  0.00    -0.233 NA
ATOM      5  N   UNL     1      36.426 -22.317 -17.251  0.00  0.00    -0.214 NA
ATOM      6  C   UNL     1      35.160 -20.910 -19.218  0.00  0.00    +0.115 C 
ATOM      7  C   UNL     1      34.436 -21.859 -18.526  0.00  0.00    +0.146 C 
ATOM      8  C   UNL     1      35.128 -22.539 -17.543  0.00  0.00    +0.210 C 
ATOM      9  C   UNL     1      37.021 -21.366 -17.995  0.00  0.00    +0.254 C 
BRANCH   8  10
ATOM     10  O   UNL     1      34.478 -23.498 -16.812  0.00  0.00    -0.440 OA
BRANCH  10  11
ATOM     11  C   UNL     1      33.259 -23.158 -16.260  0.00  0.00    +0.147 C 
ATOM     12  C   UNL     1      33.099 -23.144 -14.875  0.00  0.00    +0.041 C 
ATOM     13  C   UNL     1      32.187 -22.827 -17.090  0.00  0.00    +0.041 C 
ATOM     14  C   UNL     1      30.796 -22.470 -15.147  0.00  0.00    +0.139 C 
ATOM     15  C   UNL     1      31.868 -22.801 -14.318  0.00  0.00    +0.040 C 
ATOM     16  C   UNL     1      30.956 -22.483 -16.533  0.00  0.00    +0.040 C 
BRANCH  14  17
ATOM     17  O   UNL     1      29.594 -22.134 -14.604  0.00  0.00    -0.471 OA
ATOM     18  C   UNL     1      28.424 -22.531 -15.318  0.00  0.00    +0.252 C 
ENDBRANCH  14  17
ENDBRANCH  10  11
ENDBRANCH   8  10
ENDBRANCH   1   2
BRANCH   1  19
ATOM     19  C   UNL     1      34.808 -19.310 -22.463  0.00  0.00    +0.227 C 
BRANCH  19  20
ATOM     20  O   UNL     1      35.643 -18.450 -23.235  0.00  0.00    -0.474 OA
BRANCH  20  24
ATOM     21  C   UNL     1      34.153 -14.687 -24.152  0.00  0.00    -0.021 C 
ATOM     22  C   UNL     1      34.938 -14.867 -23.013  0.00  0.00    -0.001 C 
ATOM     23  C   UNL     1      33.869 -15.771 -24.983  0.00  0.00    -0.001 C 
ATOM     24  C   UNL     1      35.155 -17.216 -23.535  0.00  0.00    +0.139 C 
ATOM     25  C   UNL     1      35.439 -16.132 -22.705  0.00  0.00    +0.037 C 
ATOM     26  C   UNL     1      34.369 -17.035 -24.674  0.00  0.00    +0.037 C 
BRANCH  21  27
ATOM     27  C   UNL     1      33.613 -13.320 -24.485  0.00  0.00    +0.047 C 
BRANCH  27  32
ATOM     28  S   UNL     1      32.650 -12.128 -22.195  0.00  0.00    -0.048 S 
ATOM     29  O   UNL     1      34.944 -10.668 -24.934  0.00  0.00    -0.274 OA
ATOM     30  O   UNL     1      31.661  -9.721 -21.828  0.00  0.00    -0.263 OA
ATOM     31  N   UNL     1      33.319  -9.996 -23.431  0.00  0.00    -0.246 N 
ATOM     32  C   UNL     1      33.979 -12.293 -23.428  0.00  0.00    +0.137 C 
ATOM     33  C   UNL     1      34.153 -10.916 -24.031  0.00  0.00    +0.239 C 
ATOM     34  C   UNL     1      32.457 -10.407 -22.450  0.00  0.00    +0.279 C 
ATOM     35  H   UNL     1      33.343  -9.051 -23.708  0.00  0.00    +0.158 HD
ENDBRANCH  27  32
ENDBRANCH  21  27
ENDBRANCH  20  24
ENDBRANCH  19  20
ENDBRANCH   1  19
TORSDOF 9
ENDMDL
MODEL 9
REMARK VINA RESULT:     -10.6      3.964     12.234
REMARK  Name = 9826451
REMARK  9 active torsions:
REMARK  status: ('A' for Active; 'I' for Inactive)
REMARK    1  A    between atoms: C_1  and  N_2
REMARK    2  A    between atoms: C_1  and  C_19
REMARK    3  A    between atoms: C_8  and  O_10
REMARK    4  A    between atoms: O_10  and  C_11
REMARK    5  A    between atoms: C_14  and  O_17
REMARK    6  A    between atoms: C_19  and  O_20
REMARK    7  A    between atoms: O_20  and  C_24
REMARK    8  A    between atoms: C_21  and  C_27
REMARK    9  A    between atoms: C_27  and  C_32
REMARK                            x       y       z     vdW  Elec       q    Type
REMARK                         _______ _______ _______ _____ _____    ______ ____
ROOT
ATOM      1  C   UNL     1      35.433 -15.669 -24.074  0.00  0.00    +0.139 C 
ENDROOT
BRANCH   1   2
ATOM      2  N   UNL     1      34.364 -14.701 -24.023  0.00  0.00    -0.291 N 
ATOM      3  C   UNL     1      33.690 -14.336 -25.271  0.00  0.00    +0.113 C 
ATOM      4  N   UNL     1      34.611 -14.458 -21.680  0.00  0.00    -0.233 NA
ATOM      5  N   UNL     1      33.192 -12.923 -20.483  0.00  0.00    -0.214 NA
ATOM      6  C   UNL     1      33.975 -14.104 -22.816  0.00  0.00    +0.115 C 
ATOM      7  C   UNL     1      32.952 -13.179 -22.865  0.00  0.00    +0.146 C 
ATOM      8  C   UNL     1      32.599 -12.616 -21.655  0.00  0.00    +0.210 C 
ATOM      9  C   UNL     1      34.176 -13.838 -20.567  0.00  0.00    +0.254 C 
BRANCH   8  10
ATOM     10  O   UNL     1      31.591 -11.688 -21.619  0.00  0.00    -0.440 OA
BRANCH  10  11
ATOM     11  C   UNL     1      31.955 -10.358 -21.547  0.00  0.00    +0.147 C 
ATOM     12  C   UNL     1      31.854  -9.671 -20.337  0.00  0.00    +0.041 C 
ATOM     13  C   UNL     1      32.424  -9.701 -22.685  0.00  0.00    +0.041 C 
ATOM     14  C   UNL     1      32.691  -7.672 -21.402  0.00  0.00    +0.139 C 
ATOM     15  C   UNL     1      32.221  -8.328 -20.264  0.00  0.00    +0.040 C 
ATOM     16  C   UNL     1      32.793  -8.359 -22.612  0.00  0.00    +0.040 C 
BRANCH  14  17
ATOM     17  O   UNL     1      33.051  -6.361 -21.331  0.00  0.00    -0.471 OA
ATOM     18  C   UNL     1      32.149  -5.473 -20.672  0.00  0.00    +0.252 C 
ENDBRANCH  14  17
ENDBRANCH  10  11
ENDBRANCH   8  10
ENDBRANCH   1   2
BRANCH   1  19
ATOM     19  C   UNL     1      35.078 -16.881 -23.230  0.00  0.00    +0.227 C 
BRANCH  19  20
ATOM     20  O   UNL     1      36.199 -17.245 -22.426  0.00  0.00    -0.474 OA
BRANCH  20  24
ATOM     21  C   UNL     1      35.845 -20.684 -20.131  0.00  0.00    -0.021 C 
ATOM     22  C   UNL     1      37.037 -19.961 -20.124  0.00  0.00    -0.001 C 
ATOM     23  C   UNL     1      34.771 -20.251 -20.909  0.00  0.00    -0.001 C 
ATOM     24  C   UNL     1      36.084 -18.373 -21.673  0.00  0.00    +0.139 C 
ATOM     25  C   UNL     1      37.157 -18.806 -20.895  0.00  0.00    +0.037 C 
ATOM     26  C   UNL     1      34.891 -19.096 -21.681  0.00  0.00    +0.037 C 
BRANCH  21  27
ATOM     27  C   UNL     1      35.716 -21.933 -19.297  0.00  0.00    +0.047 C 
BRANCH  27  32
ATOM     28  S   UNL     1      35.865 -22.289 -16.569  0.00  0.00    -0.048 S 
ATOM     29  O   UNL     1      32.768 -22.300 -18.872  0.00  0.00    -0.274 OA
ATOM     30  O   UNL     1      34.642 -24.024 -15.019  0.00  0.00    -0.263 OA
ATOM     31  N   UNL     1      33.528 -23.261 -16.910  0.00  0.00    -0.246 N 
ATOM     32  C   UNL     1      34.942 -21.682 -18.015  0.00  0.00    +0.137 C 
ATOM     33  C   UNL     1      33.628 -22.430 -18.007  0.00  0.00    +0.239 C 
ATOM     34  C   UNL     1      34.574 -23.340 -16.029  0.00  0.00    +0.279 C 
ATOM     35  H   UNL     1      32.713 -23.793 -16.763  0.00  0.00    +0.158 HD
ENDBRANCH  27  32
ENDBRANCH  21  27
ENDBRANCH  20  24
ENDBRANCH  19  20
ENDBRANCH   1  19
TORSDOF 9
ENDMDL
