MODEL 1
REMARK VINA RESULT:     -12.4      0.000      0.000
REMARK  Name = 11634458
REMARK  5 active torsions:
REMARK  status: ('A' for Active; 'I' for Inactive)
REMARK    1  A    between atoms: N_3  and  C_11
REMARK    2  A    between atoms: C_4  and  C_19
REMARK    3  A    between atoms: C_5  and  O_35
REMARK    4  A    between atoms: N_18  and  C_22
REMARK    5  A    between atoms: C_25  and  N_29
REMARK                            x       y       z     vdW  Elec       q    Type
REMARK                         _______ _______ _______ _____ _____    ______ ____
ROOT
ATOM      1  O   UNL     1      32.046 -23.349 -12.707  0.00  0.00    -0.252 OA
ATOM      2  N   UNL     1      33.939 -23.874 -13.895  0.00  0.00    -0.255 N 
ATOM      3  N   UNL     1      31.946 -23.392 -15.035  0.00  0.00    -0.268 N 
ATOM      4  C   UNL     1      34.683 -24.268 -15.091  0.00  0.00    +0.156 C 
ATOM      5  C   UNL     1      36.160 -24.318 -13.190  0.00  0.00    +0.137 C 
ATOM      6  C   UNL     1      35.945 -24.952 -14.562  0.00  0.00    +0.061 C 
ATOM      7  C   UNL     1      34.750 -24.044 -12.691  0.00  0.00    +0.125 C 
ATOM      8  C   UNL     1      32.584 -23.523 -13.801  0.00  0.00    +0.308 C 
ATOM      9  H   UNL     1      32.502 -23.560 -15.830  0.00  0.00    +0.156 HD
ENDROOT
BRANCH   3  11
ATOM     10 CL   UNL     1      26.298 -21.938 -16.071  0.00  0.00    -0.082 Cl
ATOM     11  C   UNL     1      30.595 -23.044 -15.283  0.00  0.00    +0.052 C 
ATOM     12  C   UNL     1      29.893 -22.285 -14.350  0.00  0.00    +0.016 C 
ATOM     13  C   UNL     1      29.976 -23.464 -16.458  0.00  0.00    +0.016 C 
ATOM     14  C   UNL     1      28.562 -21.943 -14.594  0.00  0.00    +0.013 C 
ATOM     15  C   UNL     1      28.647 -23.121 -16.701  0.00  0.00    +0.013 C 
ATOM     16  C   UNL     1      27.940 -22.361 -15.769  0.00  0.00    +0.058 C 
ENDBRANCH   3  11
BRANCH   4  19
ATOM     17  O   UNL     1      35.554 -22.071 -15.320  0.00  0.00    -0.273 OA
ATOM     18  N   UNL     1      34.662 -23.165 -17.203  0.00  0.00    -0.281 N 
ATOM     19  C   UNL     1      35.025 -23.033 -15.869  0.00  0.00    +0.244 C 
ATOM     20  H   UNL     1      34.243 -24.018 -17.458  0.00  0.00    +0.155 HD
BRANCH  18  22
ATOM     21  F   UNL     1      32.468 -21.979 -18.424  0.00  0.00    -0.203 F 
ATOM     22  C   UNL     1      34.824 -22.214 -18.238  0.00  0.00    +0.078 C 
ATOM     23  C   UNL     1      33.705 -21.645 -18.821  0.00  0.00    +0.155 C 
ATOM     24  C   UNL     1      36.104 -21.873 -18.647  0.00  0.00    +0.018 C 
ATOM     25  C   UNL     1      35.149 -20.355 -20.266  0.00  0.00    +0.061 C 
ATOM     26  C   UNL     1      33.868 -20.709 -19.843  0.00  0.00    +0.046 C 
ATOM     27  C   UNL     1      36.267 -20.937 -19.668  0.00  0.00    +0.017 C 
BRANCH  25  29
ATOM     28  O   UNL     1      37.144 -18.262 -20.313  0.00  0.00    -0.269 OA
ATOM     29  N   UNL     1      35.319 -19.382 -21.328  0.00  0.00    -0.233 N 
ATOM     30  C   UNL     1      36.365 -18.427 -21.251  0.00  0.00    +0.257 C 
ATOM     31  C   UNL     1      34.446 -19.363 -22.418  0.00  0.00    +0.072 C 
ATOM     32  C   UNL     1      36.499 -17.492 -22.410  0.00  0.00    +0.059 C 
ATOM     33  C   UNL     1      34.566 -18.494 -23.426  0.00  0.00    +0.017 C 
ATOM     34  C   UNL     1      35.630 -17.536 -23.423  0.00  0.00    +0.006 C 
ENDBRANCH  25  29
ENDBRANCH  18  22
ENDBRANCH   4  19
BRANCH   5  35
ATOM     35  O   UNL     1      36.880 -23.099 -13.333  0.00  0.00    -0.352 OA
ATOM     36  C   UNL     1      37.582 -22.766 -12.143  0.00  0.00    +0.174 C 
ENDBRANCH   5  35
TORSDOF 5
ENDMDL
MODEL 2
REMARK VINA RESULT:     -12.3      0.853      1.186
REMARK  Name = 11634458
REMARK  5 active torsions:
REMARK  status: ('A' for Active; 'I' for Inactive)
REMARK    1  A    between atoms: N_3  and  C_11
REMARK    2  A    between atoms: C_4  and  C_19
REMARK    3  A    between atoms: C_5  and  O_35
REMARK    4  A    between atoms: N_18  and  C_22
REMARK    5  A    between atoms: C_25  and  N_29
REMARK                            x       y       z     vdW  Elec       q    Type
REMARK                         _______ _______ _______ _____ _____    ______ ____
ROOT
ATOM      1  O   UNL     1      32.062 -23.404 -12.584  0.00  0.00    -0.252 OA
ATOM      2  N   UNL     1      33.968 -23.895 -13.768  0.00  0.00    -0.255 N 
ATOM      3  N   UNL     1      31.969 -23.448 -14.913  0.00  0.00    -0.268 N 
ATOM      4  C   UNL     1      34.721 -24.275 -14.962  0.00  0.00    +0.156 C 
ATOM      5  C   UNL     1      36.194 -24.300 -13.057  0.00  0.00    +0.137 C 
ATOM      6  C   UNL     1      35.993 -24.936 -14.430  0.00  0.00    +0.061 C 
ATOM      7  C   UNL     1      34.778 -24.050 -12.562  0.00  0.00    +0.125 C 
ATOM      8  C   UNL     1      32.606 -23.568 -13.678  0.00  0.00    +0.308 C 
ATOM      9  H   UNL     1      32.530 -23.606 -15.706  0.00  0.00    +0.156 HD
ENDROOT
BRANCH   3  11
ATOM     10 CL   UNL     1      26.299 -22.094 -15.962  0.00  0.00    -0.082 Cl
ATOM     11  C   UNL     1      30.613 -23.124 -15.164  0.00  0.00    +0.052 C 
ATOM     12  C   UNL     1      29.986 -22.134 -14.412  0.00  0.00    +0.016 C 
ATOM     13  C   UNL     1      29.913 -23.798 -16.161  0.00  0.00    +0.016 C 
ATOM     14  C   UNL     1      28.651 -21.814 -14.659  0.00  0.00    +0.013 C 
ATOM     15  C   UNL     1      28.578 -23.479 -16.408  0.00  0.00    +0.013 C 
ATOM     16  C   UNL     1      27.947 -22.487 -15.657  0.00  0.00    +0.058 C 
ENDBRANCH   3  11
BRANCH   4  19
ATOM     17  O   UNL     1      35.501 -22.043 -15.178  0.00  0.00    -0.273 OA
ATOM     18  N   UNL     1      34.750 -23.196 -17.087  0.00  0.00    -0.281 N 
ATOM     19  C   UNL     1      35.043 -23.034 -15.739  0.00  0.00    +0.244 C 
ATOM     20  H   UNL     1      34.383 -24.071 -17.350  0.00  0.00    +0.155 HD
BRANCH  18  22
ATOM     21  F   UNL     1      37.258 -22.191 -17.728  0.00  0.00    -0.203 F 
ATOM     22  C   UNL     1      34.918 -22.250 -18.126  0.00  0.00    +0.078 C 
ATOM     23  C   UNL     1      36.185 -21.774 -18.414  0.00  0.00    +0.155 C 
ATOM     24  C   UNL     1      33.806 -21.820 -18.832  0.00  0.00    +0.018 C 
ATOM     25  C   UNL     1      35.237 -20.397 -20.159  0.00  0.00    +0.061 C 
ATOM     26  C   UNL     1      36.346 -20.840 -19.438  0.00  0.00    +0.046 C 
ATOM     27  C   UNL     1      33.967 -20.887 -19.855  0.00  0.00    +0.017 C 
BRANCH  25  29
ATOM     28  O   UNL     1      37.326 -18.400 -20.286  0.00  0.00    -0.269 OA
ATOM     29  N   UNL     1      35.405 -19.425 -21.223  0.00  0.00    -0.233 N 
ATOM     30  C   UNL     1      36.498 -18.522 -21.189  0.00  0.00    +0.257 C 
ATOM     31  C   UNL     1      34.486 -19.357 -22.272  0.00  0.00    +0.072 C 
ATOM     32  C   UNL     1      36.624 -17.587 -22.349  0.00  0.00    +0.059 C 
ATOM     33  C   UNL     1      34.602 -18.488 -23.281  0.00  0.00    +0.017 C 
ATOM     34  C   UNL     1      35.710 -17.582 -23.321  0.00  0.00    +0.006 C 
ENDBRANCH  25  29
ENDBRANCH  18  22
ENDBRANCH   4  19
BRANCH   5  35
ATOM     35  O   UNL     1      36.893 -23.068 -13.198  0.00  0.00    -0.352 OA
ATOM     36  C   UNL     1      37.557 -22.705 -11.995  0.00  0.00    +0.174 C 
ENDBRANCH   5  35
TORSDOF 5
ENDMDL
MODEL 3
REMARK VINA RESULT:     -11.1      1.878      2.512
REMARK  Name = 11634458
REMARK  5 active torsions:
REMARK  status: ('A' for Active; 'I' for Inactive)
REMARK    1  A    between atoms: N_3  and  C_11
REMARK    2  A    between atoms: C_4  and  C_19
REMARK    3  A    between atoms: C_5  and  O_35
REMARK    4  A    between atoms: N_18  and  C_22
REMARK    5  A    between atoms: C_25  and  N_29
REMARK                            x       y       z     vdW  Elec       q    Type
REMARK                         _______ _______ _______ _____ _____    ______ ____
ROOT
ATOM      1  O   UNL     1      33.103 -23.118 -12.359  0.00  0.00    -0.252 OA
ATOM      2  N   UNL     1      35.008 -24.269 -12.926  0.00  0.00    -0.255 N 
ATOM      3  N   UNL     1      33.155 -24.305 -14.365  0.00  0.00    -0.268 N 
ATOM      4  C   UNL     1      35.785 -25.245 -13.687  0.00  0.00    +0.156 C 
ATOM      5  C   UNL     1      37.119 -24.428 -11.856  0.00  0.00    +0.137 C 
ATOM      6  C   UNL     1      36.932 -25.646 -12.758  0.00  0.00    +0.061 C 
ATOM      7  C   UNL     1      35.714 -23.863 -11.713  0.00  0.00    +0.125 C 
ATOM      8  C   UNL     1      33.693 -23.842 -13.163  0.00  0.00    +0.308 C 
ATOM      9  H   UNL     1      33.743 -24.876 -14.910  0.00  0.00    +0.156 HD
ENDROOT
BRANCH   3  11
ATOM     10 CL   UNL     1      27.768 -23.242 -16.587  0.00  0.00    -0.082 Cl
ATOM     11  C   UNL     1      31.867 -24.051 -14.896  0.00  0.00    +0.052 C 
ATOM     12  C   UNL     1      31.640 -22.897 -15.642  0.00  0.00    +0.016 C 
ATOM     13  C   UNL     1      30.833 -24.956 -14.669  0.00  0.00    +0.016 C 
ATOM     14  C   UNL     1      30.371 -22.646 -16.166  0.00  0.00    +0.013 C 
ATOM     15  C   UNL     1      29.565 -24.705 -15.192  0.00  0.00    +0.013 C 
ATOM     16  C   UNL     1      29.334 -23.550 -15.941  0.00  0.00    +0.058 C 
ENDBRANCH   3  11
BRANCH   4  19
ATOM     17  O   UNL     1      37.375 -24.919 -15.420  0.00  0.00    -0.273 OA
ATOM     18  N   UNL     1      35.428 -23.599 -15.372  0.00  0.00    -0.281 N 
ATOM     19  C   UNL     1      36.303 -24.581 -14.927  0.00  0.00    +0.244 C 
ATOM     20  H   UNL     1      34.611 -23.469 -14.838  0.00  0.00    +0.155 HD
BRANCH  18  22
ATOM     21  F   UNL     1      37.666 -21.986 -15.691  0.00  0.00    -0.203 F 
ATOM     22  C   UNL     1      35.574 -22.762 -16.504  0.00  0.00    +0.078 C 
ATOM     23  C   UNL     1      36.705 -21.974 -16.626  0.00  0.00    +0.155 C 
ATOM     24  C   UNL     1      34.578 -22.751 -17.467  0.00  0.00    +0.018 C 
ATOM     25  C   UNL     1      35.852 -21.126 -18.722  0.00  0.00    +0.061 C 
ATOM     26  C   UNL     1      36.845 -21.150 -17.743  0.00  0.00    +0.046 C 
ATOM     27  C   UNL     1      34.718 -21.927 -18.584  0.00  0.00    +0.017 C 
BRANCH  25  29
ATOM     28  O   UNL     1      33.715 -20.364 -20.517  0.00  0.00    -0.269 OA
ATOM     29  N   UNL     1      35.998 -20.269 -19.883  0.00  0.00    -0.233 N 
ATOM     30  C   UNL     1      34.860 -19.936 -20.663  0.00  0.00    +0.257 C 
ATOM     31  C   UNL     1      37.254 -19.785 -20.253  0.00  0.00    +0.072 C 
ATOM     32  C   UNL     1      35.091 -19.009 -21.814  0.00  0.00    +0.059 C 
ATOM     33  C   UNL     1      37.439 -18.984 -21.307  0.00  0.00    +0.017 C 
ATOM     34  C   UNL     1      36.321 -18.580 -22.105  0.00  0.00    +0.006 C 
ENDBRANCH  25  29
ENDBRANCH  18  22
ENDBRANCH   4  19
BRANCH   5  35
ATOM     35  O   UNL     1      37.968 -23.483 -12.498  0.00  0.00    -0.352 OA
ATOM     36  C   UNL     1      38.142 -22.317 -11.705  0.00  0.00    +0.174 C 
ENDBRANCH   5  35
TORSDOF 5
ENDMDL
MODEL 4
REMARK VINA RESULT:     -10.1     10.372     15.612
REMARK  Name = 11634458
REMARK  5 active torsions:
REMARK  status: ('A' for Active; 'I' for Inactive)
REMARK    1  A    between atoms: N_3  and  C_11
REMARK    2  A    between atoms: C_4  and  C_19
REMARK    3  A    between atoms: C_5  and  O_35
REMARK    4  A    between atoms: N_18  and  C_22
REMARK    5  A    between atoms: C_25  and  N_29
REMARK                            x       y       z     vdW  Elec       q    Type
REMARK                         _______ _______ _______ _____ _____    ______ ____
ROOT
ATOM      1  O   UNL     1      33.814  -4.779 -22.210  0.00  0.00    -0.252 OA
ATOM      2  N   UNL     1      32.665  -6.732 -21.837  0.00  0.00    -0.255 N 
ATOM      3  N   UNL     1      33.302  -6.155 -24.021  0.00  0.00    -0.268 N 
ATOM      4  C   UNL     1      31.881  -7.900 -22.233  0.00  0.00    +0.156 C 
ATOM      5  C   UNL     1      31.926  -7.756 -19.830  0.00  0.00    +0.137 C 
ATOM      6  C   UNL     1      31.076  -8.274 -20.987  0.00  0.00    +0.061 C 
ATOM      7  C   UNL     1      32.588  -6.509 -20.395  0.00  0.00    +0.125 C 
ATOM      8  C   UNL     1      33.304  -5.802 -22.671  0.00  0.00    +0.308 C 
ATOM      9  H   UNL     1      32.857  -7.004 -24.244  0.00  0.00    +0.156 HD
ENDROOT
BRANCH   3  11
ATOM     10 CL   UNL     1      35.653  -3.172 -28.566  0.00  0.00    -0.082 Cl
ATOM     11  C   UNL     1      33.864  -5.442 -25.107  0.00  0.00    +0.052 C 
ATOM     12  C   UNL     1      33.055  -4.627 -25.894  0.00  0.00    +0.016 C 
ATOM     13  C   UNL     1      35.224  -5.559 -25.384  0.00  0.00    +0.016 C 
ATOM     14  C   UNL     1      33.608  -3.924 -26.965  0.00  0.00    +0.013 C 
ATOM     15  C   UNL     1      35.777  -4.857 -26.454  0.00  0.00    +0.013 C 
ATOM     16  C   UNL     1      34.969  -4.039 -27.245  0.00  0.00    +0.058 C 
ENDBRANCH   3  11
BRANCH   4  19
ATOM     17  O   UNL     1      33.914  -8.748 -23.118  0.00  0.00    -0.273 OA
ATOM     18  N   UNL     1      32.284 -10.247 -22.325  0.00  0.00    -0.281 N 
ATOM     19  C   UNL     1      32.824  -9.002 -22.615  0.00  0.00    +0.244 C 
ATOM     20  H   UNL     1      31.386 -10.250 -21.922  0.00  0.00    +0.155 HD
BRANCH  18  22
ATOM     21  F   UNL     1      31.887 -12.345 -20.550  0.00  0.00    -0.203 F 
ATOM     22  C   UNL     1      32.874 -11.515 -22.543  0.00  0.00    +0.078 C 
ATOM     23  C   UNL     1      32.651 -12.535 -21.635  0.00  0.00    +0.155 C 
ATOM     24  C   UNL     1      33.665 -11.706 -23.665  0.00  0.00    +0.018 C 
ATOM     25  C   UNL     1      34.035 -13.992 -22.976  0.00  0.00    +0.061 C 
ATOM     26  C   UNL     1      33.236 -13.783 -21.852  0.00  0.00    +0.046 C 
ATOM     27  C   UNL     1      34.249 -12.954 -23.882  0.00  0.00    +0.017 C 
BRANCH  25  29
ATOM     28  O   UNL     1      33.903 -15.493 -25.445  0.00  0.00    -0.269 OA
ATOM     29  N   UNL     1      34.643 -15.290 -23.202  0.00  0.00    -0.233 N 
ATOM     30  C   UNL     1      34.539 -15.907 -24.475  0.00  0.00    +0.257 C 
ATOM     31  C   UNL     1      35.311 -15.949 -22.168  0.00  0.00    +0.072 C 
ATOM     32  C   UNL     1      35.235 -17.221 -24.637  0.00  0.00    +0.059 C 
ATOM     33  C   UNL     1      35.896 -17.140 -22.329  0.00  0.00    +0.017 C 
ATOM     34  C   UNL     1      35.861 -17.789 -23.604  0.00  0.00    +0.006 C 
ENDBRANCH  25  29
ENDBRANCH  18  22
ENDBRANCH   4  19
BRANCH   5  35
ATOM     35  O   UNL     1      32.909  -8.726 -19.485  0.00  0.00    -0.352 OA
ATOM     36  C   UNL     1      32.338  -9.818 -18.778  0.00  0.00    +0.174 C 
ENDBRANCH   5  35
TORSDOF 5
ENDMDL
