MODEL 1
REMARK VINA RESULT:     -11.6      0.000      0.000
REMARK  Name = 5288527
REMARK  4 active torsions:
REMARK  status: ('A' for Active; 'I' for Inactive)
REMARK    1  A    between atoms: N_1  and  C_18
REMARK    2  A    between atoms: C_4  and  C_11
REMARK    3  A    between atoms: C_19  and  S_24
REMARK    4  A    between atoms: S_24  and  N_27
REMARK                            x       y       z     vdW  Elec       q    Type
REMARK                         _______ _______ _______ _____ _____    ______ ____
ROOT
ATOM      1  N   UNL     1      35.126 -24.829 -12.826  0.00  0.00    -0.247 N 
ATOM      2  N   UNL     1      34.225 -23.773 -14.717  0.00  0.00    -0.336 NA
ATOM      3  N   UNL     1      32.879 -24.158 -12.757  0.00  0.00    -0.170 NA
ATOM      4  C   UNL     1      33.149 -23.201 -15.293  0.00  0.00    +0.161 C 
ATOM      5  C   UNL     1      34.022 -24.224 -13.465  0.00  0.00    +0.149 C 
ATOM      6  C   UNL     1      31.923 -23.071 -14.680  0.00  0.00    +0.056 C 
ATOM      7  C   UNL     1      31.845 -23.573 -13.397  0.00  0.00    +0.114 C 
ATOM      8  H   UNL     1      34.932 -25.143 -11.913  0.00  0.00    +0.165 HD
ENDROOT
BRANCH   4  11
ATOM      9  N   UNL     1      34.582 -22.313 -17.136  0.00  0.00    -0.246 N 
ATOM     10  N   UNL     1      33.100 -22.074 -18.794  0.00  0.00    -0.227 NA
ATOM     11  C   UNL     1      33.371 -22.720 -16.636  0.00  0.00    +0.107 C 
ATOM     12  C   UNL     1      34.365 -21.929 -18.456  0.00  0.00    +0.139 C 
ATOM     13  C   UNL     1      32.481 -22.564 -17.672  0.00  0.00    +0.118 C 
ATOM     14  C   UNL     1      35.827 -22.264 -16.513  0.00  0.00    +0.071 C 
ATOM     15  C   UNL     1      35.496 -21.463 -19.189  0.00  0.00    +0.035 C 
ATOM     16  C   UNL     1      36.887 -21.824 -17.210  0.00  0.00    +0.017 C 
ATOM     17  C   UNL     1      36.703 -21.411 -18.593  0.00  0.00    +0.004 C 
ENDBRANCH   4  11
BRANCH   1  18
ATOM     18  C   UNL     1      36.450 -25.071 -13.238  0.00  0.00    +0.058 C 
ATOM     19  C   UNL     1      39.076 -25.553 -14.056  0.00  0.00    +0.122 C 
ATOM     20  C   UNL     1      37.513 -24.451 -12.579  0.00  0.00    +0.017 C 
ATOM     21  C   UNL     1      36.704 -25.934 -14.307  0.00  0.00    +0.017 C 
ATOM     22  C   UNL     1      38.825 -24.691 -12.988  0.00  0.00    +0.021 C 
ATOM     23  C   UNL     1      38.015 -26.174 -14.715  0.00  0.00    +0.021 C 
BRANCH  19  24
ATOM     24  S   UNL     1      40.718 -25.853 -14.568  0.00  0.00    +0.057 S 
ATOM     25  O   UNL     1      41.392 -24.572 -14.723  0.00  0.00    -0.153 OA
ATOM     26  O   UNL     1      41.294 -26.873 -13.704  0.00  0.00    -0.153 OA
BRANCH  24  27
ATOM     27  N   UNL     1      40.458 -26.530 -16.116  0.00  0.00    -0.203 NA
ATOM     28  H   UNL     1      39.631 -26.107 -16.536  0.00  0.00    +0.144 HD
ATOM     29  H   UNL     1      40.319 -27.537 -16.028  0.00  0.00    +0.144 HD
ENDBRANCH  24  27
ENDBRANCH  19  24
ENDBRANCH   1  18
TORSDOF 4
ENDMDL
MODEL 2
REMARK VINA RESULT:     -11.3      4.947      6.945
REMARK  Name = 5288527
REMARK  4 active torsions:
REMARK  status: ('A' for Active; 'I' for Inactive)
REMARK    1  A    between atoms: N_1  and  C_18
REMARK    2  A    between atoms: C_4  and  C_11
REMARK    3  A    between atoms: C_19  and  S_24
REMARK    4  A    between atoms: S_24  and  N_27
REMARK                            x       y       z     vdW  Elec       q    Type
REMARK                         _______ _______ _______ _____ _____    ______ ____
ROOT
ATOM      1  N   UNL     1      33.059 -24.386 -13.086  0.00  0.00    -0.247 N 
ATOM      2  N   UNL     1      34.746 -23.496 -14.451  0.00  0.00    -0.336 NA
ATOM      3  N   UNL     1      35.290 -24.654 -12.409  0.00  0.00    -0.170 NA
ATOM      4  C   UNL     1      36.067 -23.309 -14.647  0.00  0.00    +0.161 C 
ATOM      5  C   UNL     1      34.433 -24.168 -13.328  0.00  0.00    +0.149 C 
ATOM      6  C   UNL     1      37.046 -23.754 -13.787  0.00  0.00    +0.056 C 
ATOM      7  C   UNL     1      36.594 -24.428 -12.672  0.00  0.00    +0.114 C 
ATOM      8  H   UNL     1      32.877 -24.880 -12.254  0.00  0.00    +0.165 HD
ENDROOT
BRANCH   4  11
ATOM      9  N   UNL     1      35.547 -22.388 -16.910  0.00  0.00    -0.246 N 
ATOM     10  N   UNL     1      37.474 -21.390 -17.452  0.00  0.00    -0.227 NA
ATOM     11  C   UNL     1      36.398 -22.587 -15.853  0.00  0.00    +0.107 C 
ATOM     12  C   UNL     1      36.250 -21.652 -17.861  0.00  0.00    +0.139 C 
ATOM     13  C   UNL     1      37.571 -21.965 -16.211  0.00  0.00    +0.118 C 
ATOM     14  C   UNL     1      34.229 -22.805 -17.077  0.00  0.00    +0.071 C 
ATOM     15  C   UNL     1      35.558 -21.321 -19.062  0.00  0.00    +0.035 C 
ATOM     16  C   UNL     1      33.585 -22.490 -18.212  0.00  0.00    +0.017 C 
ATOM     17  C   UNL     1      34.283 -21.722 -19.232  0.00  0.00    +0.004 C 
ENDBRANCH   4  11
BRANCH   1  18
ATOM     18  C   UNL     1      31.899 -24.036 -13.802  0.00  0.00    +0.058 C 
ATOM     19  C   UNL     1      29.597 -23.341 -15.222  0.00  0.00    +0.122 C 
ATOM     20  C   UNL     1      30.954 -25.012 -14.124  0.00  0.00    +0.017 C 
ATOM     21  C   UNL     1      31.689 -22.712 -14.191  0.00  0.00    +0.017 C 
ATOM     22  C   UNL     1      29.804 -24.665 -14.834  0.00  0.00    +0.021 C 
ATOM     23  C   UNL     1      30.540 -22.365 -14.900  0.00  0.00    +0.021 C 
BRANCH  19  24
ATOM     24  S   UNL     1      28.158 -22.906 -16.110  0.00  0.00    +0.057 S 
ATOM     25  O   UNL     1      27.053 -22.798 -15.169  0.00  0.00    -0.153 OA
ATOM     26  O   UNL     1      28.475 -21.787 -16.985  0.00  0.00    -0.153 OA
BRANCH  24  27
ATOM     27  N   UNL     1      27.932 -24.304 -17.068  0.00  0.00    -0.203 NA
ATOM     28  H   UNL     1      27.565 -24.034 -17.980  0.00  0.00    +0.144 HD
ATOM     29  H   UNL     1      27.271 -24.929 -16.606  0.00  0.00    +0.144 HD
ENDBRANCH  24  27
ENDBRANCH  19  24
ENDBRANCH   1  18
TORSDOF 4
ENDMDL
MODEL 3
REMARK VINA RESULT:     -11.1      4.131      7.250
REMARK  Name = 5288527
REMARK  4 active torsions:
REMARK  status: ('A' for Active; 'I' for Inactive)
REMARK    1  A    between atoms: N_1  and  C_18
REMARK    2  A    between atoms: C_4  and  C_11
REMARK    3  A    between atoms: C_19  and  S_24
REMARK    4  A    between atoms: S_24  and  N_27
REMARK                            x       y       z     vdW  Elec       q    Type
REMARK                         _______ _______ _______ _____ _____    ______ ____
ROOT
ATOM      1  N   UNL     1      32.721 -22.198 -18.214  0.00  0.00    -0.247 N 
ATOM      2  N   UNL     1      34.148 -22.714 -16.425  0.00  0.00    -0.336 NA
ATOM      3  N   UNL     1      31.878 -23.520 -16.469  0.00  0.00    -0.170 NA
ATOM      4  C   UNL     1      34.304 -23.344 -15.243  0.00  0.00    +0.161 C 
ATOM      5  C   UNL     1      32.926 -22.843 -16.975  0.00  0.00    +0.149 C 
ATOM      6  C   UNL     1      33.315 -24.069 -14.618  0.00  0.00    +0.056 C 
ATOM      7  C   UNL     1      32.108 -24.124 -15.285  0.00  0.00    +0.114 C 
ATOM      8  H   UNL     1      31.814 -22.319 -18.579  0.00  0.00    +0.165 HD
ENDROOT
BRANCH   4  11
ATOM      9  N   UNL     1      35.938 -23.522 -13.362  0.00  0.00    -0.246 N 
ATOM     10  N   UNL     1      37.817 -22.769 -14.315  0.00  0.00    -0.227 NA
ATOM     11  C   UNL     1      35.616 -23.203 -14.657  0.00  0.00    +0.107 C 
ATOM     12  C   UNL     1      37.292 -23.240 -13.202  0.00  0.00    +0.139 C 
ATOM     13  C   UNL     1      36.785 -22.744 -15.218  0.00  0.00    +0.118 C 
ATOM     14  C   UNL     1      35.131 -24.032 -12.349  0.00  0.00    +0.071 C 
ATOM     15  C   UNL     1      37.858 -23.496 -11.919  0.00  0.00    +0.035 C 
ATOM     16  C   UNL     1      35.672 -24.270 -11.143  0.00  0.00    +0.017 C 
ATOM     17  C   UNL     1      37.084 -23.988 -10.933  0.00  0.00    +0.004 C 
ENDBRANCH   4  11
BRANCH   1  18
ATOM     18  C   UNL     1      33.560 -21.418 -19.032  0.00  0.00    +0.058 C 
ATOM     19  C   UNL     1      35.222 -19.868 -20.655  0.00  0.00    +0.122 C 
ATOM     20  C   UNL     1      34.946 -21.578 -18.971  0.00  0.00    +0.017 C 
ATOM     21  C   UNL     1      33.008 -20.480 -19.908  0.00  0.00    +0.017 C 
ATOM     22  C   UNL     1      35.776 -20.805 -19.781  0.00  0.00    +0.021 C 
ATOM     23  C   UNL     1      33.838 -19.706 -20.718  0.00  0.00    +0.021 C 
BRANCH  19  24
ATOM     24  S   UNL     1      36.261 -18.899 -21.669  0.00  0.00    +0.057 S 
ATOM     25  O   UNL     1      37.636 -19.084 -21.227  0.00  0.00    -0.153 OA
ATOM     26  O   UNL     1      35.910 -19.144 -23.060  0.00  0.00    -0.153 OA
BRANCH  24  27
ATOM     27  N   UNL     1      35.753 -17.323 -21.245  0.00  0.00    -0.203 NA
ATOM     28  H   UNL     1      36.537 -16.678 -21.336  0.00  0.00    +0.144 HD
ATOM     29  H   UNL     1      35.421 -17.322 -20.280  0.00  0.00    +0.144 HD
ENDBRANCH  24  27
ENDBRANCH  19  24
ENDBRANCH   1  18
TORSDOF 4
ENDMDL
MODEL 4
REMARK VINA RESULT:     -10.9      4.094      7.082
REMARK  Name = 5288527
REMARK  4 active torsions:
REMARK  status: ('A' for Active; 'I' for Inactive)
REMARK    1  A    between atoms: N_1  and  C_18
REMARK    2  A    between atoms: C_4  and  C_11
REMARK    3  A    between atoms: C_19  and  S_24
REMARK    4  A    between atoms: S_24  and  N_27
REMARK                            x       y       z     vdW  Elec       q    Type
REMARK                         _______ _______ _______ _____ _____    ______ ____
ROOT
ATOM      1  N   UNL     1      32.715 -22.230 -18.085  0.00  0.00    -0.247 N 
ATOM      2  N   UNL     1      34.227 -22.887 -16.417  0.00  0.00    -0.336 NA
ATOM      3  N   UNL     1      31.919 -23.574 -16.335  0.00  0.00    -0.170 NA
ATOM      4  C   UNL     1      34.427 -23.570 -15.272  0.00  0.00    +0.161 C 
ATOM      5  C   UNL     1      32.966 -22.931 -16.886  0.00  0.00    +0.149 C 
ATOM      6  C   UNL     1      33.444 -24.267 -14.607  0.00  0.00    +0.056 C 
ATOM      7  C   UNL     1      32.194 -24.234 -15.191  0.00  0.00    +0.114 C 
ATOM      8  H   UNL     1      31.781 -22.289 -18.392  0.00  0.00    +0.165 HD
ENDROOT
BRANCH   4  11
ATOM      9  N   UNL     1      36.647 -24.581 -14.737  0.00  0.00    -0.246 N 
ATOM     10  N   UNL     1      37.753 -22.834 -13.883  0.00  0.00    -0.227 NA
ATOM     11  C   UNL     1      35.780 -23.519 -14.771  0.00  0.00    +0.107 C 
ATOM     12  C   UNL     1      37.838 -24.113 -14.186  0.00  0.00    +0.139 C 
ATOM     13  C   UNL     1      36.483 -22.461 -14.243  0.00  0.00    +0.118 C 
ATOM     14  C   UNL     1      36.454 -25.896 -15.150  0.00  0.00    +0.071 C 
ATOM     15  C   UNL     1      38.900 -25.053 -14.050  0.00  0.00    +0.035 C 
ATOM     16  C   UNL     1      37.459 -26.776 -15.018  0.00  0.00    +0.017 C 
ATOM     17  C   UNL     1      38.720 -26.328 -14.447  0.00  0.00    +0.004 C 
ENDBRANCH   4  11
BRANCH   1  18
ATOM     18  C   UNL     1      33.539 -21.462 -18.930  0.00  0.00    +0.058 C 
ATOM     19  C   UNL     1      35.171 -19.937 -20.606  0.00  0.00    +0.122 C 
ATOM     20  C   UNL     1      34.926 -21.612 -18.882  0.00  0.00    +0.017 C 
ATOM     21  C   UNL     1      32.970 -20.546 -19.819  0.00  0.00    +0.017 C 
ATOM     22  C   UNL     1      35.741 -20.851 -19.719  0.00  0.00    +0.021 C 
ATOM     23  C   UNL     1      33.785 -19.785 -20.656  0.00  0.00    +0.021 C 
BRANCH  19  24
ATOM     24  S   UNL     1      36.191 -18.983 -21.654  0.00  0.00    +0.057 S 
ATOM     25  O   UNL     1      37.573 -19.154 -21.228  0.00  0.00    -0.153 OA
ATOM     26  O   UNL     1      35.821 -19.256 -23.035  0.00  0.00    -0.153 OA
BRANCH  24  27
ATOM     27  N   UNL     1      35.683 -17.401 -21.252  0.00  0.00    -0.203 NA
ATOM     28  H   UNL     1      35.337 -17.389 -20.293  0.00  0.00    +0.144 HD
ATOM     29  H   UNL     1      34.938 -17.112 -21.886  0.00  0.00    +0.144 HD
ENDBRANCH  24  27
ENDBRANCH  19  24
ENDBRANCH   1  18
TORSDOF 4
ENDMDL
MODEL 5
REMARK VINA RESULT:     -10.4      1.735      2.902
REMARK  Name = 5288527
REMARK  4 active torsions:
REMARK  status: ('A' for Active; 'I' for Inactive)
REMARK    1  A    between atoms: N_1  and  C_18
REMARK    2  A    between atoms: C_4  and  C_11
REMARK    3  A    between atoms: C_19  and  S_24
REMARK    4  A    between atoms: S_24  and  N_27
REMARK                            x       y       z     vdW  Elec       q    Type
REMARK                         _______ _______ _______ _____ _____    ______ ____
ROOT
ATOM      1  N   UNL     1      34.861 -24.664 -14.923  0.00  0.00    -0.247 N 
ATOM      2  N   UNL     1      34.852 -23.171 -16.732  0.00  0.00    -0.336 NA
ATOM      3  N   UNL     1      32.803 -23.781 -15.620  0.00  0.00    -0.170 NA
ATOM      4  C   UNL     1      34.125 -22.385 -17.551  0.00  0.00    +0.161 C 
ATOM      5  C   UNL     1      34.136 -23.831 -15.802  0.00  0.00    +0.149 C 
ATOM      6  C   UNL     1      32.757 -22.245 -17.473  0.00  0.00    +0.056 C 
ATOM      7  C   UNL     1      32.142 -22.974 -16.477  0.00  0.00    +0.114 C 
ATOM      8  H   UNL     1      34.298 -25.127 -14.260  0.00  0.00    +0.165 HD
ENDROOT
BRANCH   4  11
ATOM      9  N   UNL     1      34.366 -20.933 -19.569  0.00  0.00    -0.246 N 
ATOM     10  N   UNL     1      36.590 -20.817 -19.785  0.00  0.00    -0.227 NA
ATOM     11  C   UNL     1      34.896 -21.680 -18.547  0.00  0.00    +0.107 C 
ATOM     12  C   UNL     1      35.441 -20.427 -20.296  0.00  0.00    +0.139 C 
ATOM     13  C   UNL     1      36.259 -21.592 -18.703  0.00  0.00    +0.118 C 
ATOM     14  C   UNL     1      33.034 -20.681 -19.884  0.00  0.00    +0.071 C 
ATOM     15  C   UNL     1      35.131 -19.609 -21.422  0.00  0.00    +0.035 C 
ATOM     16  C   UNL     1      32.751 -19.910 -20.945  0.00  0.00    +0.017 C 
ATOM     17  C   UNL     1      33.844 -19.361 -21.733  0.00  0.00    +0.004 C 
ENDBRANCH   4  11
BRANCH   1  18
ATOM     18  C   UNL     1      36.232 -24.964 -14.807  0.00  0.00    +0.058 C 
ATOM     19  C   UNL     1      38.951 -25.557 -14.578  0.00  0.00    +0.122 C 
ATOM     20  C   UNL     1      36.694 -26.252 -15.088  0.00  0.00    +0.017 C 
ATOM     21  C   UNL     1      37.134 -23.974 -14.412  0.00  0.00    +0.017 C 
ATOM     22  C   UNL     1      38.052 -26.548 -14.973  0.00  0.00    +0.021 C 
ATOM     23  C   UNL     1      38.492 -24.270 -14.297  0.00  0.00    +0.021 C 
BRANCH  19  24
ATOM     24  S   UNL     1      40.651 -25.927 -14.433  0.00  0.00    +0.057 S 
ATOM     25  O   UNL     1      41.403 -24.687 -14.560  0.00  0.00    -0.153 OA
ATOM     26  O   UNL     1      40.843 -26.773 -13.264  0.00  0.00    -0.153 OA
BRANCH  24  27
ATOM     27  N   UNL     1      40.900 -26.869 -15.837  0.00  0.00    -0.203 NA
ATOM     28  H   UNL     1      40.229 -27.637 -15.855  0.00  0.00    +0.144 HD
ATOM     29  H   UNL     1      41.849 -27.246 -15.830  0.00  0.00    +0.144 HD
ENDBRANCH  24  27
ENDBRANCH  19  24
ENDBRANCH   1  18
TORSDOF 4
ENDMDL
MODEL 6
REMARK VINA RESULT:      -9.6      5.226      7.135
REMARK  Name = 5288527
REMARK  4 active torsions:
REMARK  status: ('A' for Active; 'I' for Inactive)
REMARK    1  A    between atoms: N_1  and  C_18
REMARK    2  A    between atoms: C_4  and  C_11
REMARK    3  A    between atoms: C_19  and  S_24
REMARK    4  A    between atoms: S_24  and  N_27
REMARK                            x       y       z     vdW  Elec       q    Type
REMARK                         _______ _______ _______ _____ _____    ______ ____
ROOT
ATOM      1  N   UNL     1      34.507 -23.194 -15.702  0.00  0.00    -0.247 N 
ATOM      2  N   UNL     1      34.806 -21.941 -17.663  0.00  0.00    -0.336 NA
ATOM      3  N   UNL     1      36.691 -22.592 -16.311  0.00  0.00    -0.170 NA
ATOM      4  C   UNL     1      35.670 -21.333 -18.500  0.00  0.00    +0.161 C 
ATOM      5  C   UNL     1      35.378 -22.543 -16.604  0.00  0.00    +0.149 C 
ATOM      6  C   UNL     1      37.035 -21.308 -18.318  0.00  0.00    +0.056 C 
ATOM      7  C   UNL     1      37.494 -21.961 -17.193  0.00  0.00    +0.114 C 
ATOM      8  H   UNL     1      34.967 -23.620 -14.944  0.00  0.00    +0.165 HD
ENDROOT
BRANCH   4  11
ATOM      9  N   UNL     1      35.705 -19.879 -20.531  0.00  0.00    -0.246 N 
ATOM     10  N   UNL     1      33.570 -19.968 -21.194  0.00  0.00    -0.227 NA
ATOM     11  C   UNL     1      35.053 -20.687 -19.635  0.00  0.00    +0.107 C 
ATOM     12  C   UNL     1      34.757 -19.465 -21.464  0.00  0.00    +0.139 C 
ATOM     13  C   UNL     1      33.747 -20.726 -20.064  0.00  0.00    +0.118 C 
ATOM     14  C   UNL     1      37.043 -19.499 -20.571  0.00  0.00    +0.071 C 
ATOM     15  C   UNL     1      35.209 -18.605 -22.507  0.00  0.00    +0.035 C 
ATOM     16  C   UNL     1      37.461 -18.689 -21.556  0.00  0.00    +0.017 C 
ATOM     17  C   UNL     1      36.503 -18.232 -22.551  0.00  0.00    +0.004 C 
ENDBRANCH   4  11
BRANCH   1  18
ATOM     18  C   UNL     1      33.108 -23.353 -15.677  0.00  0.00    +0.058 C 
ATOM     19  C   UNL     1      30.334 -23.669 -15.626  0.00  0.00    +0.122 C 
ATOM     20  C   UNL     1      32.514 -24.174 -14.716  0.00  0.00    +0.017 C 
ATOM     21  C   UNL     1      32.311 -22.691 -16.612  0.00  0.00    +0.017 C 
ATOM     22  C   UNL     1      31.129 -24.332 -14.691  0.00  0.00    +0.021 C 
ATOM     23  C   UNL     1      30.926 -22.848 -16.587  0.00  0.00    +0.021 C 
BRANCH  19  24
ATOM     24  S   UNL     1      28.600 -23.867 -15.596  0.00  0.00    +0.057 S 
ATOM     25  O   UNL     1      28.150 -24.181 -16.945  0.00  0.00    -0.153 OA
ATOM     26  O   UNL     1      28.254 -24.753 -14.494  0.00  0.00    -0.153 OA
BRANCH  24  27
ATOM     27  N   UNL     1      28.098 -22.281 -15.202  0.00  0.00    -0.203 NA
ATOM     28  H   UNL     1      28.258 -21.667 -16.000  0.00  0.00    +0.144 HD
ATOM     29  H   UNL     1      28.631 -21.945 -14.400  0.00  0.00    +0.144 HD
ENDBRANCH  24  27
ENDBRANCH  19  24
ENDBRANCH   1  18
TORSDOF 4
ENDMDL
MODEL 7
REMARK VINA RESULT:      -9.5      4.808      7.547
REMARK  Name = 5288527
REMARK  4 active torsions:
REMARK  status: ('A' for Active; 'I' for Inactive)
REMARK    1  A    between atoms: N_1  and  C_18
REMARK    2  A    between atoms: C_4  and  C_11
REMARK    3  A    between atoms: C_19  and  S_24
REMARK    4  A    between atoms: S_24  and  N_27
REMARK                            x       y       z     vdW  Elec       q    Type
REMARK                         _______ _______ _______ _____ _____    ______ ____
ROOT
ATOM      1  N   UNL     1      36.967 -21.696 -17.797  0.00  0.00    -0.247 N 
ATOM      2  N   UNL     1      34.897 -22.390 -16.938  0.00  0.00    -0.336 NA
ATOM      3  N   UNL     1      36.959 -23.035 -15.870  0.00  0.00    -0.170 NA
ATOM      4  C   UNL     1      34.238 -23.081 -15.987  0.00  0.00    +0.161 C 
ATOM      5  C   UNL     1      36.238 -22.409 -16.820  0.00  0.00    +0.149 C 
ATOM      6  C   UNL     1      34.853 -23.764 -14.961  0.00  0.00    +0.056 C 
ATOM      7  C   UNL     1      36.231 -23.705 -14.953  0.00  0.00    +0.114 C 
ATOM      8  H   UNL     1      37.943 -21.737 -17.672  0.00  0.00    +0.165 HD
ENDROOT
BRANCH   4  11
ATOM      9  N   UNL     1      31.925 -23.718 -15.292  0.00  0.00    -0.246 N 
ATOM     10  N   UNL     1      30.680 -22.650 -16.813  0.00  0.00    -0.227 NA
ATOM     11  C   UNL     1      32.800 -23.058 -16.117  0.00  0.00    +0.107 C 
ATOM     12  C   UNL     1      30.643 -23.437 -15.758  0.00  0.00    +0.139 C 
ATOM     13  C   UNL     1      32.011 -22.412 -17.040  0.00  0.00    +0.118 C 
ATOM     14  C   UNL     1      32.185 -24.525 -14.188  0.00  0.00    +0.071 C 
ATOM     15  C   UNL     1      29.554 -24.022 -15.047  0.00  0.00    +0.035 C 
ATOM     16  C   UNL     1      31.154 -25.072 -13.524  0.00  0.00    +0.017 C 
ATOM     17  C   UNL     1      29.798 -24.805 -13.978  0.00  0.00    +0.004 C 
ENDBRANCH   4  11
BRANCH   1  18
ATOM     18  C   UNL     1      36.572 -20.937 -18.915  0.00  0.00    +0.058 C 
ATOM     19  C   UNL     1      35.790 -19.431 -21.132  0.00  0.00    +0.122 C 
ATOM     20  C   UNL     1      35.297 -21.104 -19.460  0.00  0.00    +0.017 C 
ATOM     21  C   UNL     1      37.454 -20.015 -19.482  0.00  0.00    +0.017 C 
ATOM     22  C   UNL     1      34.907 -20.352 -20.567  0.00  0.00    +0.021 C 
ATOM     23  C   UNL     1      37.064 -19.263 -20.589  0.00  0.00    +0.021 C 
BRANCH  19  24
ATOM     24  S   UNL     1      35.302 -18.490 -22.519  0.00  0.00    +0.057 S 
ATOM     25  O   UNL     1      36.358 -18.564 -23.519  0.00  0.00    -0.153 OA
ATOM     26  O   UNL     1      33.941 -18.864 -22.877  0.00  0.00    -0.153 OA
BRANCH  24  27
ATOM     27  N   UNL     1      35.281 -16.916 -21.854  0.00  0.00    -0.203 NA
ATOM     28  H   UNL     1      35.795 -16.282 -22.465  0.00  0.00    +0.144 HD
ATOM     29  H   UNL     1      35.718 -16.930 -20.932  0.00  0.00    +0.144 HD
ENDBRANCH  24  27
ENDBRANCH  19  24
ENDBRANCH   1  18
TORSDOF 4
ENDMDL
MODEL 8
REMARK VINA RESULT:      -9.0      4.930      6.881
REMARK  Name = 5288527
REMARK  4 active torsions:
REMARK  status: ('A' for Active; 'I' for Inactive)
REMARK    1  A    between atoms: N_1  and  C_18
REMARK    2  A    between atoms: C_4  and  C_11
REMARK    3  A    between atoms: C_19  and  S_24
REMARK    4  A    between atoms: S_24  and  N_27
REMARK                            x       y       z     vdW  Elec       q    Type
REMARK                         _______ _______ _______ _____ _____    ______ ____
ROOT
ATOM      1  N   UNL     1      34.650 -23.668 -14.929  0.00  0.00    -0.247 N 
ATOM      2  N   UNL     1      35.541 -22.410 -16.697  0.00  0.00    -0.336 NA
ATOM      3  N   UNL     1      36.982 -23.453 -15.072  0.00  0.00    -0.170 NA
ATOM      4  C   UNL     1      36.645 -21.936 -17.309  0.00  0.00    +0.161 C 
ATOM      5  C   UNL     1      35.780 -23.151 -15.599  0.00  0.00    +0.149 C 
ATOM      6  C   UNL     1      37.930 -22.171 -16.874  0.00  0.00    +0.056 C 
ATOM      7  C   UNL     1      38.040 -22.945 -15.738  0.00  0.00    +0.114 C 
ATOM      8  H   UNL     1      34.872 -24.203 -14.133  0.00  0.00    +0.165 HD
ENDROOT
BRANCH   4  11
ATOM      9  N   UNL     1      35.159 -21.005 -19.087  0.00  0.00    -0.246 N 
ATOM     10  N   UNL     1      36.593 -19.775 -20.285  0.00  0.00    -0.227 NA
ATOM     11  C   UNL     1      36.384 -21.141 -18.486  0.00  0.00    +0.107 C 
ATOM     12  C   UNL     1      35.338 -20.161 -20.181  0.00  0.00    +0.139 C 
ATOM     13  C   UNL     1      37.245 -20.377 -19.239  0.00  0.00    +0.118 C 
ATOM     14  C   UNL     1      33.933 -21.563 -18.738  0.00  0.00    +0.071 C 
ATOM     15  C   UNL     1      34.186 -19.870 -20.969  0.00  0.00    +0.035 C 
ATOM     16  C   UNL     1      32.853 -21.285 -19.485  0.00  0.00    +0.017 C 
ATOM     17  C   UNL     1      32.997 -20.408 -20.637  0.00  0.00    +0.004 C 
ENDBRANCH   4  11
BRANCH   1  18
ATOM     18  C   UNL     1      33.268 -23.568 -15.176  0.00  0.00    +0.058 C 
ATOM     19  C   UNL     1      30.526 -23.370 -15.668  0.00  0.00    +0.122 C 
ATOM     20  C   UNL     1      32.358 -24.225 -14.345  0.00  0.00    +0.017 C 
ATOM     21  C   UNL     1      32.802 -22.812 -16.254  0.00  0.00    +0.017 C 
ATOM     22  C   UNL     1      30.989 -24.126 -14.590  0.00  0.00    +0.021 C 
ATOM     23  C   UNL     1      31.434 -22.713 -16.500  0.00  0.00    +0.021 C 
BRANCH  19  24
ATOM     24  S   UNL     1      28.812 -23.246 -15.976  0.00  0.00    +0.057 S 
ATOM     25  O   UNL     1      28.332 -21.997 -15.402  0.00  0.00    -0.153 OA
ATOM     26  O   UNL     1      28.573 -23.535 -17.383  0.00  0.00    -0.153 OA
BRANCH  24  27
ATOM     27  N   UNL     1      28.218 -24.548 -15.041  0.00  0.00    -0.203 NA
ATOM     28  H   UNL     1      28.815 -24.679 -14.225  0.00  0.00    +0.144 HD
ATOM     29  H   UNL     1      28.218 -25.399 -15.605  0.00  0.00    +0.144 HD
ENDBRANCH  24  27
ENDBRANCH  19  24
ENDBRANCH   1  18
TORSDOF 4
ENDMDL
MODEL 9
REMARK VINA RESULT:      -8.9      4.126      6.875
REMARK  Name = 5288527
REMARK  4 active torsions:
REMARK  status: ('A' for Active; 'I' for Inactive)
REMARK    1  A    between atoms: N_1  and  C_18
REMARK    2  A    between atoms: C_4  and  C_11
REMARK    3  A    between atoms: C_19  and  S_24
REMARK    4  A    between atoms: S_24  and  N_27
REMARK                            x       y       z     vdW  Elec       q    Type
REMARK                         _______ _______ _______ _____ _____    ______ ____
ROOT
ATOM      1  N   UNL     1      32.216 -21.653 -18.413  0.00  0.00    -0.247 N 
ATOM      2  N   UNL     1      33.542 -22.801 -16.855  0.00  0.00    -0.336 NA
ATOM      3  N   UNL     1      31.137 -22.915 -16.755  0.00  0.00    -0.170 NA
ATOM      4  C   UNL     1      33.583 -23.610 -15.778  0.00  0.00    +0.161 C 
ATOM      5  C   UNL     1      32.303 -22.498 -17.285  0.00  0.00    +0.149 C 
ATOM      6  C   UNL     1      32.467 -24.107 -15.142  0.00  0.00    +0.056 C 
ATOM      7  C   UNL     1      31.257 -23.721 -15.680  0.00  0.00    +0.114 C 
ATOM      8  H   UNL     1      31.292 -21.458 -18.692  0.00  0.00    +0.165 HD
ENDROOT
BRANCH   4  11
ATOM      9  N   UNL     1      36.054 -23.261 -15.681  0.00  0.00    -0.246 N 
ATOM     10  N   UNL     1      36.693 -24.890 -14.287  0.00  0.00    -0.227 NA
ATOM     11  C   UNL     1      34.914 -23.932 -15.320  0.00  0.00    +0.107 C 
ATOM     12  C   UNL     1      37.113 -23.883 -15.024  0.00  0.00    +0.139 C 
ATOM     13  C   UNL     1      35.333 -24.925 -14.465  0.00  0.00    +0.118 C 
ATOM     14  C   UNL     1      36.208 -22.167 -16.528  0.00  0.00    +0.071 C 
ATOM     15  C   UNL     1      38.416 -23.351 -15.250  0.00  0.00    +0.035 C 
ATOM     16  C   UNL     1      37.439 -21.672 -16.736  0.00  0.00    +0.017 C 
ATOM     17  C   UNL     1      38.573 -22.293 -16.070  0.00  0.00    +0.004 C 
ENDBRANCH   4  11
BRANCH   1  18
ATOM     18  C   UNL     1      33.192 -21.034 -19.217  0.00  0.00    +0.058 C 
ATOM     19  C   UNL     1      35.127 -19.806 -20.813  0.00  0.00    +0.122 C 
ATOM     20  C   UNL     1      34.539 -21.373 -19.071  0.00  0.00    +0.017 C 
ATOM     21  C   UNL     1      32.816 -20.079 -20.164  0.00  0.00    +0.017 C 
ATOM     22  C   UNL     1      35.505 -20.760 -19.868  0.00  0.00    +0.021 C 
ATOM     23  C   UNL     1      33.782 -19.466 -20.961  0.00  0.00    +0.021 C 
BRANCH  19  24
ATOM     24  S   UNL     1      36.336 -19.037 -21.811  0.00  0.00    +0.057 S 
ATOM     25  O   UNL     1      37.641 -19.263 -21.205  0.00  0.00    -0.153 OA
ATOM     26  O   UNL     1      36.105 -19.421 -23.196  0.00  0.00    -0.153 OA
BRANCH  24  27
ATOM     27  N   UNL     1      35.917 -17.391 -21.621  0.00  0.00    -0.203 NA
ATOM     28  H   UNL     1      36.586 -16.941 -20.997  0.00  0.00    +0.144 HD
ATOM     29  H   UNL     1      34.980 -17.323 -21.223  0.00  0.00    +0.144 HD
ENDBRANCH  24  27
ENDBRANCH  19  24
ENDBRANCH   1  18
TORSDOF 4
ENDMDL
