MODEL 1
REMARK VINA RESULT:     -11.7      0.000      0.000
REMARK  Name = 60795
REMARK  7 active torsions:
REMARK  status: ('A' for Active; 'I' for Inactive)
REMARK    1  A    between atoms: C_1  and  N_2
REMARK    2  A    between atoms: C_1  and  C_17
REMARK    3  A    between atoms: N_3  and  C_11
REMARK    4  A    between atoms: C_17  and  C_18
REMARK    5  A    between atoms: C_18  and  C_19
REMARK    6  A    between atoms: C_19  and  O_20
REMARK    7  A    between atoms: O_20  and  C_26
REMARK                            x       y       z     vdW  Elec       q    Type
REMARK                         _______ _______ _______ _____ _____    ______ ____
ROOT
ATOM      1  C   UNL     1      34.809 -15.906 -24.523  0.00  0.00    -0.077 C 
ENDROOT
BRANCH   1   2
ATOM      2  N   UNL     1      35.346 -16.966 -23.671  0.00  0.00    +0.389 N 
ATOM      3  N   UNL     1      35.284 -18.923 -21.590  0.00  0.00    -0.311 N 
ATOM      4  C   UNL     1      35.331 -16.552 -22.262  0.00  0.00    -0.055 C 
ATOM      5  C   UNL     1      34.572 -18.202 -23.837  0.00  0.00    -0.055 C 
ATOM      6  C   UNL     1      35.944 -17.630 -21.367  0.00  0.00    +0.068 C 
ATOM      7  C   UNL     1      35.159 -19.337 -22.992  0.00  0.00    +0.068 C 
ATOM      8  H   UNL     1      36.310 -17.142 -23.952  0.00  0.00    -0.080 HD
BRANCH   3  11
ATOM      9 CL   UNL     1      32.676 -20.040 -20.586  0.00  0.00    -0.080 Cl
ATOM     10 CL   UNL     1      33.018 -22.252 -18.285  0.00  0.00    -0.081 Cl
ATOM     11  C   UNL     1      35.379 -19.893 -20.587  0.00  0.00    +0.059 C 
ATOM     12  C   UNL     1      34.246 -20.510 -20.013  0.00  0.00    +0.081 C 
ATOM     13  C   UNL     1      36.650 -20.284 -20.116  0.00  0.00    +0.015 C 
ATOM     14  C   UNL     1      34.380 -21.474 -19.013  0.00  0.00    +0.069 C 
ATOM     15  C   UNL     1      36.783 -21.247 -19.116  0.00  0.00    +0.002 C 
ATOM     16  C   UNL     1      35.648 -21.842 -18.565  0.00  0.00    +0.012 C 
ENDBRANCH   3  11
ENDBRANCH   1   2
BRANCH   1  17
ATOM     17  C   UNL     1      34.955 -14.549 -23.838  0.00  0.00    -0.019 C 
BRANCH  17  18
ATOM     18  C   UNL     1      33.664 -13.737 -23.936  0.00  0.00    +0.045 C 
BRANCH  18  19
ATOM     19  C   UNL     1      33.836 -12.336 -23.366  0.00  0.00    +0.205 C 
BRANCH  19  20
ATOM     20  O   UNL     1      34.321 -11.458 -24.379  0.00  0.00    -0.475 OA
BRANCH  20  26
ATOM     21  O   UNL     1      30.742  -5.757 -22.113  0.00  0.00    -0.275 OA
ATOM     22  N   UNL     1      31.894  -7.582 -22.897  0.00  0.00    -0.284 N 
ATOM     23  C   UNL     1      34.225  -7.379 -23.563  0.00  0.00    -0.008 C 
ATOM     24  C   UNL     1      34.135  -5.894 -23.362  0.00  0.00    +0.037 C 
ATOM     25  C   UNL     1      33.085  -8.169 -23.360  0.00  0.00    +0.049 C 
ATOM     26  C   UNL     1      34.288 -10.123 -24.112  0.00  0.00    +0.140 C 
ATOM     27  C   UNL     1      33.126  -5.553 -22.276  0.00  0.00    +0.090 C 
ATOM     28  C   UNL     1      33.112  -9.537 -23.643  0.00  0.00    +0.051 C 
ATOM     29  C   UNL     1      35.394  -7.975 -24.046  0.00  0.00    +0.000 C 
ATOM     30  C   UNL     1      35.427  -9.345 -24.310  0.00  0.00    +0.037 C 
ATOM     31  C   UNL     1      31.805  -6.279 -22.448  0.00  0.00    +0.226 C 
ATOM     32  H   UNL     1      31.077  -8.132 -22.893  0.00  0.00    +0.155 HD
ENDBRANCH  20  26
ENDBRANCH  19  20
ENDBRANCH  18  19
ENDBRANCH  17  18
ENDBRANCH   1  17
TORSDOF 7
ENDMDL
MODEL 2
REMARK VINA RESULT:     -11.5      4.340     11.412
REMARK  Name = 60795
REMARK  7 active torsions:
REMARK  status: ('A' for Active; 'I' for Inactive)
REMARK    1  A    between atoms: C_1  and  N_2
REMARK    2  A    between atoms: C_1  and  C_17
REMARK    3  A    between atoms: N_3  and  C_11
REMARK    4  A    between atoms: C_17  and  C_18
REMARK    5  A    between atoms: C_18  and  C_19
REMARK    6  A    between atoms: C_19  and  O_20
REMARK    7  A    between atoms: O_20  and  C_26
REMARK                            x       y       z     vdW  Elec       q    Type
REMARK                         _______ _______ _______ _____ _____    ______ ____
ROOT
ATOM      1  C   UNL     1      35.066 -16.874 -24.681  0.00  0.00    -0.077 C 
ENDROOT
BRANCH   1   2
ATOM      2  N   UNL     1      34.952 -15.443 -24.403  0.00  0.00    +0.389 N 
ATOM      3  N   UNL     1      33.725 -13.074 -23.380  0.00  0.00    -0.311 N 
ATOM      4  C   UNL     1      33.758 -14.886 -25.051  0.00  0.00    -0.055 C 
ATOM      5  C   UNL     1      34.894 -15.202 -22.956  0.00  0.00    -0.055 C 
ATOM      6  C   UNL     1      33.658 -13.378 -24.816  0.00  0.00    +0.068 C 
ATOM      7  C   UNL     1      34.831 -13.703 -22.650  0.00  0.00    +0.068 C 
ATOM      8  H   UNL     1      35.778 -14.979 -24.781  0.00  0.00    -0.080 HD
BRANCH   3  11
ATOM      9 CL   UNL     1      32.183 -13.139 -20.796  0.00  0.00    -0.080 Cl
ATOM     10 CL   UNL     1      31.054 -10.273 -19.893  0.00  0.00    -0.081 Cl
ATOM     11  C   UNL     1      33.213 -11.849 -22.942  0.00  0.00    +0.059 C 
ATOM     12  C   UNL     1      32.467 -11.716 -21.751  0.00  0.00    +0.081 C 
ATOM     13  C   UNL     1      33.439 -10.687 -23.708  0.00  0.00    +0.015 C 
ATOM     14  C   UNL     1      31.970 -10.476 -21.346  0.00  0.00    +0.069 C 
ATOM     15  C   UNL     1      32.944  -9.447 -23.303  0.00  0.00    +0.002 C 
ATOM     16  C   UNL     1      32.209  -9.342 -22.122  0.00  0.00    +0.012 C 
ENDBRANCH   3  11
ENDBRANCH   1   2
BRANCH   1  17
ATOM     17  C   UNL     1      34.853 -17.681 -23.402  0.00  0.00    -0.019 C 
BRANCH  17  18
ATOM     18  C   UNL     1      36.126 -18.424 -22.997  0.00  0.00    +0.045 C 
BRANCH  18  19
ATOM     19  C   UNL     1      36.052 -18.925 -21.561  0.00  0.00    +0.205 C 
BRANCH  19  20
ATOM     20  O   UNL     1      34.916 -19.772 -21.402  0.00  0.00    -0.475 OA
BRANCH  20  26
ATOM     21  O   UNL     1      31.034 -23.018 -16.417  0.00  0.00    -0.275 OA
ATOM     22  N   UNL     1      32.301 -21.929 -17.993  0.00  0.00    -0.284 N 
ATOM     23  C   UNL     1      34.730 -22.049 -17.925  0.00  0.00    -0.008 C 
ATOM     24  C   UNL     1      34.639 -22.779 -16.616  0.00  0.00    +0.037 C 
ATOM     25  C   UNL     1      33.553 -21.614 -18.550  0.00  0.00    +0.049 C 
ATOM     26  C   UNL     1      34.852 -20.517 -20.264  0.00  0.00    +0.140 C 
ATOM     27  C   UNL     1      33.359 -23.596 -16.537  0.00  0.00    +0.090 C 
ATOM     28  C   UNL     1      33.613 -20.840 -19.712  0.00  0.00    +0.051 C 
ATOM     29  C   UNL     1      35.967 -21.708 -18.479  0.00  0.00    +0.000 C 
ATOM     30  C   UNL     1      36.027 -20.951 -19.651  0.00  0.00    +0.037 C 
ATOM     31  C   UNL     1      32.128 -22.807 -16.941  0.00  0.00    +0.226 C 
ATOM     32  H   UNL     1      31.502 -21.499 -18.375  0.00  0.00    +0.155 HD
ENDBRANCH  20  26
ENDBRANCH  19  20
ENDBRANCH  18  19
ENDBRANCH  17  18
ENDBRANCH   1  17
TORSDOF 7
ENDMDL
MODEL 3
REMARK VINA RESULT:     -11.4      4.440     11.762
REMARK  Name = 60795
REMARK  7 active torsions:
REMARK  status: ('A' for Active; 'I' for Inactive)
REMARK    1  A    between atoms: C_1  and  N_2
REMARK    2  A    between atoms: C_1  and  C_17
REMARK    3  A    between atoms: N_3  and  C_11
REMARK    4  A    between atoms: C_17  and  C_18
REMARK    5  A    between atoms: C_18  and  C_19
REMARK    6  A    between atoms: C_19  and  O_20
REMARK    7  A    between atoms: O_20  and  C_26
REMARK                            x       y       z     vdW  Elec       q    Type
REMARK                         _______ _______ _______ _____ _____    ______ ____
ROOT
ATOM      1  C   UNL     1      35.174 -16.952 -24.401  0.00  0.00    -0.077 C 
ENDROOT
BRANCH   1   2
ATOM      2  N   UNL     1      35.047 -15.514 -24.167  0.00  0.00    +0.389 N 
ATOM      3  N   UNL     1      33.781 -13.124 -23.248  0.00  0.00    -0.311 N 
ATOM      4  C   UNL     1      33.872 -14.980 -24.866  0.00  0.00    -0.055 C 
ATOM      5  C   UNL     1      34.943 -15.234 -22.730  0.00  0.00    -0.055 C 
ATOM      6  C   UNL     1      33.760 -13.466 -24.676  0.00  0.00    +0.068 C 
ATOM      7  C   UNL     1      34.865 -13.727 -22.467  0.00  0.00    +0.068 C 
ATOM      8  H   UNL     1      35.883 -15.058 -24.531  0.00  0.00    -0.080 HD
BRANCH   3  11
ATOM      9 CL   UNL     1      32.138 -13.128 -20.726  0.00  0.00    -0.080 Cl
ATOM     10 CL   UNL     1      30.973 -10.243 -19.937  0.00  0.00    -0.081 Cl
ATOM     11  C   UNL     1      33.251 -11.888 -22.860  0.00  0.00    +0.059 C 
ATOM     12  C   UNL     1      32.459 -11.728 -21.702  0.00  0.00    +0.081 C 
ATOM     13  C   UNL     1      33.507 -10.745 -23.644  0.00  0.00    +0.015 C 
ATOM     14  C   UNL     1      31.946 -10.480 -21.347  0.00  0.00    +0.069 C 
ATOM     15  C   UNL     1      32.996  -9.497 -23.288  0.00  0.00    +0.002 C 
ATOM     16  C   UNL     1      32.215  -9.364 -22.140  0.00  0.00    +0.012 C 
ENDBRANCH   3  11
ENDBRANCH   1   2
BRANCH   1  17
ATOM     17  C   UNL     1      35.519 -17.674 -23.100  0.00  0.00    -0.019 C 
BRANCH  17  18
ATOM     18  C   UNL     1      34.838 -19.040 -23.028  0.00  0.00    +0.045 C 
BRANCH  18  19
ATOM     19  C   UNL     1      34.500 -19.425 -21.594  0.00  0.00    +0.205 C 
BRANCH  19  20
ATOM     20  O   UNL     1      35.611 -20.089 -20.996  0.00  0.00    -0.475 OA
BRANCH  20  26
ATOM     21  O   UNL     1      37.977 -22.880 -14.908  0.00  0.00    -0.275 OA
ATOM     22  N   UNL     1      37.211 -22.028 -16.898  0.00  0.00    -0.284 N 
ATOM     23  C   UNL     1      34.871 -22.254 -17.521  0.00  0.00    -0.008 C 
ATOM     24  C   UNL     1      34.652 -23.121 -16.315  0.00  0.00    +0.037 C 
ATOM     25  C   UNL     1      36.157 -21.768 -17.792  0.00  0.00    +0.049 C 
ATOM     26  C   UNL     1      35.371 -20.797 -19.858  0.00  0.00    +0.140 C 
ATOM     27  C   UNL     1      35.599 -22.735 -15.190  0.00  0.00    +0.090 C 
ATOM     28  C   UNL     1      36.411 -21.049 -18.964  0.00  0.00    +0.051 C 
ATOM     29  C   UNL     1      33.839 -22.007 -18.432  0.00  0.00    +0.000 C 
ATOM     30  C   UNL     1      34.087 -21.272 -19.593  0.00  0.00    +0.037 C 
ATOM     31  C   UNL     1      37.038 -22.593 -15.650  0.00  0.00    +0.226 C 
ATOM     32  H   UNL     1      38.125 -21.792 -17.179  0.00  0.00    +0.155 HD
ENDBRANCH  20  26
ENDBRANCH  19  20
ENDBRANCH  18  19
ENDBRANCH  17  18
ENDBRANCH   1  17
TORSDOF 7
ENDMDL
MODEL 4
REMARK VINA RESULT:     -11.4      4.902     11.331
REMARK  Name = 60795
REMARK  7 active torsions:
REMARK  status: ('A' for Active; 'I' for Inactive)
REMARK    1  A    between atoms: C_1  and  N_2
REMARK    2  A    between atoms: C_1  and  C_17
REMARK    3  A    between atoms: N_3  and  C_11
REMARK    4  A    between atoms: C_17  and  C_18
REMARK    5  A    between atoms: C_18  and  C_19
REMARK    6  A    between atoms: C_19  and  O_20
REMARK    7  A    between atoms: O_20  and  C_26
REMARK                            x       y       z     vdW  Elec       q    Type
REMARK                         _______ _______ _______ _____ _____    ______ ____
ROOT
ATOM      1  C   UNL     1      35.396 -16.838 -24.749  0.00  0.00    -0.077 C 
ENDROOT
BRANCH   1   2
ATOM      2  N   UNL     1      35.085 -15.474 -24.325  0.00  0.00    +0.389 N 
ATOM      3  N   UNL     1      33.596 -13.432 -22.992  0.00  0.00    -0.311 N 
ATOM      4  C   UNL     1      33.769 -15.064 -24.831  0.00  0.00    -0.055 C 
ATOM      5  C   UNL     1      35.112 -15.370 -22.861  0.00  0.00    -0.055 C 
ATOM      6  C   UNL     1      33.458 -13.617 -24.443  0.00  0.00    +0.068 C 
ATOM      7  C   UNL     1      34.843 -13.933 -22.405  0.00  0.00    +0.068 C 
ATOM      8  H   UNL     1      35.795 -14.852 -24.711  0.00  0.00    -0.080 HD
BRANCH   3  11
ATOM      9 CL   UNL     1      33.987 -10.765 -24.332  0.00  0.00    -0.080 Cl
ATOM     10 CL   UNL     1      32.438  -8.353 -22.888  0.00  0.00    -0.081 Cl
ATOM     11  C   UNL     1      32.939 -12.347 -22.402  0.00  0.00    +0.059 C 
ATOM     12  C   UNL     1      33.026 -11.033 -22.911  0.00  0.00    +0.081 C 
ATOM     13  C   UNL     1      32.154 -12.554 -21.249  0.00  0.00    +0.015 C 
ATOM     14  C   UNL     1      32.357  -9.975 -22.294  0.00  0.00    +0.069 C 
ATOM     15  C   UNL     1      31.485 -11.497 -20.632  0.00  0.00    +0.002 C 
ATOM     16  C   UNL     1      31.587 -10.207 -21.155  0.00  0.00    +0.012 C 
ENDBRANCH   3  11
ENDBRANCH   1   2
BRANCH   1  17
ATOM     17  C   UNL     1      34.190 -17.750 -24.528  0.00  0.00    -0.019 C 
BRANCH  17  18
ATOM     18  C   UNL     1      34.621 -19.121 -24.008  0.00  0.00    +0.045 C 
BRANCH  18  19
ATOM     19  C   UNL     1      35.008 -19.069 -22.536  0.00  0.00    +0.205 C 
BRANCH  19  20
ATOM     20  O   UNL     1      33.892 -19.437 -21.729  0.00  0.00    -0.475 OA
BRANCH  20  26
ATOM     21  O   UNL     1      31.496 -23.230 -16.222  0.00  0.00    -0.275 OA
ATOM     22  N   UNL     1      32.285 -21.964 -17.968  0.00  0.00    -0.284 N 
ATOM     23  C   UNL     1      34.675 -21.792 -18.389  0.00  0.00    -0.008 C 
ATOM     24  C   UNL     1      34.935 -22.554 -17.122  0.00  0.00    +0.037 C 
ATOM     25  C   UNL     1      33.354 -21.489 -18.748  0.00  0.00    +0.049 C 
ATOM     26  C   UNL     1      34.146 -20.208 -20.636  0.00  0.00    +0.140 C 
ATOM     27  C   UNL     1      33.799 -23.521 -16.827  0.00  0.00    +0.090 C 
ATOM     28  C   UNL     1      33.089 -20.690 -19.864  0.00  0.00    +0.051 C 
ATOM     29  C   UNL     1      35.727 -21.293 -19.163  0.00  0.00    +0.000 C 
ATOM     30  C   UNL     1      35.462 -20.511 -20.288  0.00  0.00    +0.037 C 
ATOM     31  C   UNL     1      32.430 -22.878 -16.943  0.00  0.00    +0.226 C 
ATOM     32  H   UNL     1      31.381 -21.626 -18.165  0.00  0.00    +0.155 HD
ENDBRANCH  20  26
ENDBRANCH  19  20
ENDBRANCH  18  19
ENDBRANCH  17  18
ENDBRANCH   1  17
TORSDOF 7
ENDMDL
MODEL 5
REMARK VINA RESULT:     -11.4      1.713      2.191
REMARK  Name = 60795
REMARK  7 active torsions:
REMARK  status: ('A' for Active; 'I' for Inactive)
REMARK    1  A    between atoms: C_1  and  N_2
REMARK    2  A    between atoms: C_1  and  C_17
REMARK    3  A    between atoms: N_3  and  C_11
REMARK    4  A    between atoms: C_17  and  C_18
REMARK    5  A    between atoms: C_18  and  C_19
REMARK    6  A    between atoms: C_19  and  O_20
REMARK    7  A    between atoms: O_20  and  C_26
REMARK                            x       y       z     vdW  Elec       q    Type
REMARK                         _______ _______ _______ _____ _____    ______ ____
ROOT
ATOM      1  C   UNL     1      34.774 -15.743 -24.399  0.00  0.00    -0.077 C 
ENDROOT
BRANCH   1   2
ATOM      2  N   UNL     1      35.312 -16.834 -23.587  0.00  0.00    +0.389 N 
ATOM      3  N   UNL     1      35.261 -18.848 -21.562  0.00  0.00    -0.311 N 
ATOM      4  C   UNL     1      35.327 -16.460 -22.168  0.00  0.00    -0.055 C 
ATOM      5  C   UNL     1      34.519 -18.054 -23.774  0.00  0.00    -0.055 C 
ATOM      6  C   UNL     1      35.942 -17.571 -21.314  0.00  0.00    +0.068 C 
ATOM      7  C   UNL     1      35.105 -19.220 -22.972  0.00  0.00    +0.068 C 
ATOM      8  H   UNL     1      36.269 -17.014 -23.891  0.00  0.00    -0.080 HD
BRANCH   3  11
ATOM      9 CL   UNL     1      32.657 -19.980 -20.563  0.00  0.00    -0.080 Cl
ATOM     10 CL   UNL     1      33.010 -22.260 -18.332  0.00  0.00    -0.081 Cl
ATOM     11  C   UNL     1      35.361 -19.848 -20.589  0.00  0.00    +0.059 C 
ATOM     12  C   UNL     1      34.230 -20.475 -20.021  0.00  0.00    +0.081 C 
ATOM     13  C   UNL     1      36.634 -20.259 -20.143  0.00  0.00    +0.015 C 
ATOM     14  C   UNL     1      34.369 -21.468 -19.050  0.00  0.00    +0.069 C 
ATOM     15  C   UNL     1      36.772 -21.253 -19.174  0.00  0.00    +0.002 C 
ATOM     16  C   UNL     1      35.640 -21.857 -18.627  0.00  0.00    +0.012 C 
ENDBRANCH   3  11
ENDBRANCH   1   2
BRANCH   1  17
ATOM     17  C   UNL     1      34.824 -14.429 -23.622  0.00  0.00    -0.019 C 
BRANCH  17  18
ATOM     18  C   UNL     1      33.442 -13.782 -23.538  0.00  0.00    +0.045 C 
BRANCH  18  19
ATOM     19  C   UNL     1      33.221 -13.098 -22.196  0.00  0.00    +0.205 C 
BRANCH  19  20
ATOM     20  O   UNL     1      32.033 -12.311 -22.244  0.00  0.00    -0.475 OA
BRANCH  20  26
ATOM     21  O   UNL     1      33.124  -5.306 -22.688  0.00  0.00    -0.275 OA
ATOM     22  N   UNL     1      32.819  -7.576 -22.519  0.00  0.00    -0.284 N 
ATOM     23  C   UNL     1      32.157  -8.581 -20.405  0.00  0.00    -0.008 C 
ATOM     24  C   UNL     1      32.311  -7.243 -19.741  0.00  0.00    +0.037 C 
ATOM     25  C   UNL     1      32.456  -8.709 -21.768  0.00  0.00    +0.049 C 
ATOM     26  C   UNL     1      32.074 -11.089 -21.644  0.00  0.00    +0.140 C 
ATOM     27  C   UNL     1      32.018  -6.115 -20.719  0.00  0.00    +0.090 C 
ATOM     28  C   UNL     1      32.425  -9.962 -22.386  0.00  0.00    +0.051 C 
ATOM     29  C   UNL     1      31.820  -9.720 -19.668  0.00  0.00    +0.000 C 
ATOM     30  C   UNL     1      31.769 -10.970 -20.289  0.00  0.00    +0.037 C 
ATOM     31  C   UNL     1      32.735  -6.282 -22.045  0.00  0.00    +0.226 C 
ATOM     32  H   UNL     1      33.153  -7.715 -23.435  0.00  0.00    +0.155 HD
ENDBRANCH  20  26
ENDBRANCH  19  20
ENDBRANCH  18  19
ENDBRANCH  17  18
ENDBRANCH   1  17
TORSDOF 7
ENDMDL
MODEL 6
REMARK VINA RESULT:     -11.3      6.467     12.398
REMARK  Name = 60795
REMARK  7 active torsions:
REMARK  status: ('A' for Active; 'I' for Inactive)
REMARK    1  A    between atoms: C_1  and  N_2
REMARK    2  A    between atoms: C_1  and  C_17
REMARK    3  A    between atoms: N_3  and  C_11
REMARK    4  A    between atoms: C_17  and  C_18
REMARK    5  A    between atoms: C_18  and  C_19
REMARK    6  A    between atoms: C_19  and  O_20
REMARK    7  A    between atoms: O_20  and  C_26
REMARK                            x       y       z     vdW  Elec       q    Type
REMARK                         _______ _______ _______ _____ _____    ______ ____
ROOT
ATOM      1  C   UNL     1      35.943 -21.518 -18.797  0.00  0.00    -0.077 C 
ENDROOT
BRANCH   1   2
ATOM      2  N   UNL     1      35.898 -20.754 -20.042  0.00  0.00    +0.389 N 
ATOM      3  N   UNL     1      35.495 -18.441 -21.669  0.00  0.00    -0.311 N 
ATOM      4  C   UNL     1      34.543 -20.244 -20.285  0.00  0.00    -0.055 C 
ATOM      5  C   UNL     1      36.851 -19.638 -19.997  0.00  0.00    -0.055 C 
ATOM      6  C   UNL     1      34.469 -19.491 -21.614  0.00  0.00    +0.068 C 
ATOM      7  C   UNL     1      36.854 -18.863 -21.317  0.00  0.00    +0.068 C 
ATOM      8  H   UNL     1      36.158 -21.377 -20.807  0.00  0.00    -0.080 HD
BRANCH   3  11
ATOM      9 CL   UNL     1      35.057 -15.728 -20.440  0.00  0.00    -0.080 Cl
ATOM     10 CL   UNL     1      34.636 -13.386 -22.594  0.00  0.00    -0.081 Cl
ATOM     11  C   UNL     1      35.308 -17.384 -22.567  0.00  0.00    +0.059 C 
ATOM     12  C   UNL     1      35.089 -16.055 -22.145  0.00  0.00    +0.081 C 
ATOM     13  C   UNL     1      35.334 -17.638 -23.954  0.00  0.00    +0.015 C 
ATOM     14  C   UNL     1      34.905 -15.026 -23.070  0.00  0.00    +0.069 C 
ATOM     15  C   UNL     1      35.151 -16.609 -24.879  0.00  0.00    +0.002 C 
ATOM     16  C   UNL     1      34.936 -15.304 -24.437  0.00  0.00    +0.012 C 
ENDBRANCH   3  11
ENDBRANCH   1   2
BRANCH   1  17
ATOM     17  C   UNL     1      37.089 -21.028 -17.914  0.00  0.00    -0.019 C 
BRANCH  17  18
ATOM     18  C   UNL     1      37.393 -22.025 -16.796  0.00  0.00    +0.045 C 
BRANCH  18  19
ATOM     19  C   UNL     1      36.210 -22.187 -15.850  0.00  0.00    +0.205 C 
BRANCH  19  20
ATOM     20  O   UNL     1      35.547 -23.422 -16.111  0.00  0.00    -0.475 OA
BRANCH  20  26
ATOM     21  O   UNL     1      28.622 -22.043 -16.888  0.00  0.00    -0.275 OA
ATOM     22  N   UNL     1      30.863 -22.452 -16.596  0.00  0.00    -0.284 N 
ATOM     23  C   UNL     1      31.641 -23.804 -14.730  0.00  0.00    -0.008 C 
ATOM     24  C   UNL     1      30.239 -23.839 -14.194  0.00  0.00    +0.037 C 
ATOM     25  C   UNL     1      31.912 -23.075 -15.896  0.00  0.00    +0.049 C 
ATOM     26  C   UNL     1      34.268 -23.545 -15.661  0.00  0.00    +0.140 C 
ATOM     27  C   UNL     1      29.224 -23.760 -15.324  0.00  0.00    +0.090 C 
ATOM     28  C   UNL     1      33.224 -22.937 -16.357  0.00  0.00    +0.051 C 
ATOM     29  C   UNL     1      32.697 -24.398 -14.033  0.00  0.00    +0.000 C 
ATOM     30  C   UNL     1      34.006 -24.277 -14.504  0.00  0.00    +0.037 C 
ATOM     31  C   UNL     1      29.526 -22.650 -16.314  0.00  0.00    +0.226 C 
ATOM     32  H   UNL     1      31.097 -21.839 -17.331  0.00  0.00    +0.155 HD
ENDBRANCH  20  26
ENDBRANCH  19  20
ENDBRANCH  18  19
ENDBRANCH  17  18
ENDBRANCH   1  17
TORSDOF 7
ENDMDL
MODEL 7
REMARK VINA RESULT:     -11.1      4.403     11.444
REMARK  Name = 60795
REMARK  7 active torsions:
REMARK  status: ('A' for Active; 'I' for Inactive)
REMARK    1  A    between atoms: C_1  and  N_2
REMARK    2  A    between atoms: C_1  and  C_17
REMARK    3  A    between atoms: N_3  and  C_11
REMARK    4  A    between atoms: C_17  and  C_18
REMARK    5  A    between atoms: C_18  and  C_19
REMARK    6  A    between atoms: C_19  and  O_20
REMARK    7  A    between atoms: O_20  and  C_26
REMARK                            x       y       z     vdW  Elec       q    Type
REMARK                         _______ _______ _______ _____ _____    ______ ____
ROOT
ATOM      1  C   UNL     1      33.534 -14.458 -25.056  0.00  0.00    -0.077 C 
ENDROOT
BRANCH   1   2
ATOM      2  N   UNL     1      34.080 -13.169 -24.634  0.00  0.00    +0.389 N 
ATOM      3  N   UNL     1      33.994 -10.392 -23.971  0.00  0.00    -0.311 N 
ATOM      4  C   UNL     1      33.890 -12.161 -25.683  0.00  0.00    -0.055 C 
ATOM      5  C   UNL     1      33.441 -12.722 -23.390  0.00  0.00    -0.055 C 
ATOM      6  C   UNL     1      34.509 -10.822 -25.277  0.00  0.00    +0.068 C 
ATOM      7  C   UNL     1      34.044 -11.399 -22.907  0.00  0.00    +0.068 C 
ATOM      8  H   UNL     1      35.079 -13.287 -24.466  0.00  0.00    -0.080 HD
BRANCH   3  11
ATOM      9 CL   UNL     1      31.611  -9.227 -22.549  0.00  0.00    -0.080 Cl
ATOM     10 CL   UNL     1      31.917  -6.108 -21.855  0.00  0.00    -0.081 Cl
ATOM     11  C   UNL     1      34.079  -9.034 -23.644  0.00  0.00    +0.059 C 
ATOM     12  C   UNL     1      33.043  -8.344 -22.978  0.00  0.00    +0.081 C 
ATOM     13  C   UNL     1      35.238  -8.308 -23.987  0.00  0.00    +0.015 C 
ATOM     14  C   UNL     1      33.163  -6.988 -22.670  0.00  0.00    +0.069 C 
ATOM     15  C   UNL     1      35.358  -6.953 -23.678  0.00  0.00    +0.002 C 
ATOM     16  C   UNL     1      34.320  -6.293 -23.019  0.00  0.00    +0.012 C 
ENDBRANCH   3  11
ENDBRANCH   1   2
BRANCH   1  17
ATOM     17  C   UNL     1      34.342 -15.602 -24.448  0.00  0.00    -0.019 C 
BRANCH  17  18
ATOM     18  C   UNL     1      33.890 -16.954 -24.999  0.00  0.00    +0.045 C 
BRANCH  18  19
ATOM     19  C   UNL     1      34.787 -18.087 -24.518  0.00  0.00    +0.205 C 
BRANCH  19  20
ATOM     20  O   UNL     1      35.619 -17.626 -23.455  0.00  0.00    -0.475 OA
BRANCH  20  26
ATOM     21  O   UNL     1      32.749 -22.040 -18.687  0.00  0.00    -0.275 OA
ATOM     22  N   UNL     1      33.681 -20.575 -20.190  0.00  0.00    -0.284 N 
ATOM     23  C   UNL     1      36.075 -20.146 -20.175  0.00  0.00    -0.008 C 
ATOM     24  C   UNL     1      36.198 -20.974 -18.929  0.00  0.00    +0.037 C 
ATOM     25  C   UNL     1      34.809 -19.942 -20.741  0.00  0.00    +0.049 C 
ATOM     26  C   UNL     1      35.766 -18.451 -22.382  0.00  0.00    +0.140 C 
ATOM     27  C   UNL     1      35.138 -22.065 -18.896  0.00  0.00    +0.090 C 
ATOM     28  C   UNL     1      34.651 -19.088 -21.837  0.00  0.00    +0.051 C 
ATOM     29  C   UNL     1      37.183 -19.491 -20.722  0.00  0.00    +0.000 C 
ATOM     30  C   UNL     1      37.029 -18.653 -21.828  0.00  0.00    +0.037 C 
ATOM     31  C   UNL     1      33.747 -21.547 -19.211  0.00  0.00    +0.226 C 
ATOM     32  H   UNL     1      32.792 -20.310 -20.521  0.00  0.00    +0.155 HD
ENDBRANCH  20  26
ENDBRANCH  19  20
ENDBRANCH  18  19
ENDBRANCH  17  18
ENDBRANCH   1  17
TORSDOF 7
ENDMDL
MODEL 8
REMARK VINA RESULT:     -11.0      4.644     11.941
REMARK  Name = 60795
REMARK  7 active torsions:
REMARK  status: ('A' for Active; 'I' for Inactive)
REMARK    1  A    between atoms: C_1  and  N_2
REMARK    2  A    between atoms: C_1  and  C_17
REMARK    3  A    between atoms: N_3  and  C_11
REMARK    4  A    between atoms: C_17  and  C_18
REMARK    5  A    between atoms: C_18  and  C_19
REMARK    6  A    between atoms: C_19  and  O_20
REMARK    7  A    between atoms: O_20  and  C_26
REMARK                            x       y       z     vdW  Elec       q    Type
REMARK                         _______ _______ _______ _____ _____    ______ ____
ROOT
ATOM      1  C   UNL     1      31.918 -10.269 -19.771  0.00  0.00    -0.077 C 
ENDROOT
BRANCH   1   2
ATOM      2  N   UNL     1      31.778  -9.036 -20.544  0.00  0.00    +0.389 N 
ATOM      3  N   UNL     1      32.577  -7.018 -22.403  0.00  0.00    -0.311 N 
ATOM      4  C   UNL     1      32.845  -8.088 -20.199  0.00  0.00    -0.055 C 
ATOM      5  C   UNL     1      31.812  -9.323 -21.983  0.00  0.00    -0.055 C 
ATOM      6  C   UNL     1      32.677  -6.771 -20.958  0.00  0.00    +0.068 C 
ATOM      7  C   UNL     1      31.611  -8.046 -22.804  0.00  0.00    +0.068 C 
ATOM      8  H   UNL     1      30.878  -8.616 -20.314  0.00  0.00    -0.080 HD
BRANCH   3  11
ATOM      9 CL   UNL     1      35.081  -7.316 -24.045  0.00  0.00    -0.080 Cl
ATOM     10 CL   UNL     1      35.648  -4.834 -26.000  0.00  0.00    -0.081 Cl
ATOM     11  C   UNL     1      32.868  -5.962 -23.273  0.00  0.00    +0.059 C 
ATOM     12  C   UNL     1      34.006  -5.954 -24.107  0.00  0.00    +0.081 C 
ATOM     13  C   UNL     1      32.001  -4.851 -23.333  0.00  0.00    +0.015 C 
ATOM     14  C   UNL     1      34.265  -4.882 -24.963  0.00  0.00    +0.069 C 
ATOM     15  C   UNL     1      32.259  -3.780 -24.189  0.00  0.00    +0.002 C 
ATOM     16  C   UNL     1      33.391  -3.796 -25.003  0.00  0.00    +0.012 C 
ENDBRANCH   3  11
ENDBRANCH   1   2
BRANCH   1  17
ATOM     17  C   UNL     1      31.425 -11.464 -20.585  0.00  0.00    -0.019 C 
BRANCH  17  18
ATOM     18  C   UNL     1      32.524 -12.513 -20.748  0.00  0.00    +0.045 C 
BRANCH  18  19
ATOM     19  C   UNL     1      32.863 -12.750 -22.214  0.00  0.00    +0.205 C 
BRANCH  19  20
ATOM     20  O   UNL     1      34.248 -13.062 -22.345  0.00  0.00    -0.475 OA
BRANCH  20  26
ATOM     21  O   UNL     1      36.202 -19.584 -20.319  0.00  0.00    -0.275 OA
ATOM     22  N   UNL     1      35.621 -17.467 -20.992  0.00  0.00    -0.284 N 
ATOM     23  C   UNL     1      35.218 -16.984 -23.342  0.00  0.00    -0.008 C 
ATOM     24  C   UNL     1      35.673 -18.372 -23.687  0.00  0.00    +0.037 C 
ATOM     25  C   UNL     1      35.245 -16.566 -22.004  0.00  0.00    +0.049 C 
ATOM     26  C   UNL     1      34.566 -14.346 -22.669  0.00  0.00    +0.140 C 
ATOM     27  C   UNL     1      35.368 -19.341 -22.554  0.00  0.00    +0.090 C 
ATOM     28  C   UNL     1      34.930 -15.246 -21.668  0.00  0.00    +0.051 C 
ATOM     29  C   UNL     1      34.864 -16.069 -24.339  0.00  0.00    +0.000 C 
ATOM     30  C   UNL     1      34.530 -14.756 -24.001  0.00  0.00    +0.037 C 
ATOM     31  C   UNL     1      35.804 -18.820 -21.198  0.00  0.00    +0.226 C 
ATOM     32  H   UNL     1      35.761 -17.112 -20.084  0.00  0.00    +0.155 HD
ENDBRANCH  20  26
ENDBRANCH  19  20
ENDBRANCH  18  19
ENDBRANCH  17  18
ENDBRANCH   1  17
TORSDOF 7
ENDMDL
MODEL 9
REMARK VINA RESULT:     -10.9      1.320      1.622
REMARK  Name = 60795
REMARK  7 active torsions:
REMARK  status: ('A' for Active; 'I' for Inactive)
REMARK    1  A    between atoms: C_1  and  N_2
REMARK    2  A    between atoms: C_1  and  C_17
REMARK    3  A    between atoms: N_3  and  C_11
REMARK    4  A    between atoms: C_17  and  C_18
REMARK    5  A    between atoms: C_18  and  C_19
REMARK    6  A    between atoms: C_19  and  O_20
REMARK    7  A    between atoms: O_20  and  C_26
REMARK                            x       y       z     vdW  Elec       q    Type
REMARK                         _______ _______ _______ _____ _____    ______ ____
ROOT
ATOM      1  C   UNL     1      35.191 -15.552 -24.812  0.00  0.00    -0.077 C 
ENDROOT
BRANCH   1   2
ATOM      2  N   UNL     1      35.462 -16.682 -23.924  0.00  0.00    +0.389 N 
ATOM      3  N   UNL     1      34.866 -18.614 -21.906  0.00  0.00    -0.311 N 
ATOM      4  C   UNL     1      35.336 -16.274 -22.519  0.00  0.00    -0.055 C 
ATOM      5  C   UNL     1      34.544 -17.791 -24.206  0.00  0.00    -0.055 C 
ATOM      6  C   UNL     1      35.673 -17.432 -21.578  0.00  0.00    +0.068 C 
ATOM      7  C   UNL     1      34.854 -19.002 -23.320  0.00  0.00    +0.068 C 
ATOM      8  H   UNL     1      36.418 -16.995 -24.090  0.00  0.00    -0.080 HD
BRANCH   3  11
ATOM      9 CL   UNL     1      37.374 -19.529 -20.515  0.00  0.00    -0.080 Cl
ATOM     10 CL   UNL     1      36.865 -21.772 -18.275  0.00  0.00    -0.081 Cl
ATOM     11  C   UNL     1      34.697 -19.591 -20.919  0.00  0.00    +0.059 C 
ATOM     12  C   UNL     1      35.777 -20.122 -20.179  0.00  0.00    +0.081 C 
ATOM     13  C   UNL     1      33.404 -20.078 -20.636  0.00  0.00    +0.015 C 
ATOM     14  C   UNL     1      35.570 -21.097 -19.202  0.00  0.00    +0.069 C 
ATOM     15  C   UNL     1      33.198 -21.052 -19.659  0.00  0.00    +0.002 C 
ATOM     16  C   UNL     1      34.281 -21.561 -18.942  0.00  0.00    +0.012 C 
ENDBRANCH   3  11
ENDBRANCH   1   2
BRANCH   1  17
ATOM     17  C   UNL     1      33.720 -15.153 -24.728  0.00  0.00    -0.019 C 
BRANCH  17  18
ATOM     18  C   UNL     1      33.510 -14.019 -23.725  0.00  0.00    +0.045 C 
BRANCH  18  19
ATOM     19  C   UNL     1      34.577 -12.942 -23.862  0.00  0.00    +0.205 C 
BRANCH  19  20
ATOM     20  O   UNL     1      34.151 -11.955 -24.800  0.00  0.00    -0.475 OA
BRANCH  20  26
ATOM     21  O   UNL     1      31.119  -6.231 -21.886  0.00  0.00    -0.275 OA
ATOM     22  N   UNL     1      32.094  -8.058 -22.877  0.00  0.00    -0.284 N 
ATOM     23  C   UNL     1      34.412  -7.976 -23.612  0.00  0.00    -0.008 C 
ATOM     24  C   UNL     1      34.449  -6.514 -23.273  0.00  0.00    +0.037 C 
ATOM     25  C   UNL     1      33.218  -8.691 -23.438  0.00  0.00    +0.049 C 
ATOM     26  C   UNL     1      34.234 -10.653 -24.410  0.00  0.00    +0.140 C 
ATOM     27  C   UNL     1      33.506  -6.200 -22.122  0.00  0.00    +0.090 C 
ATOM     28  C   UNL     1      33.125 -10.024 -23.845  0.00  0.00    +0.051 C 
ATOM     29  C   UNL     1      35.513  -8.613 -24.192  0.00  0.00    +0.000 C 
ATOM     30  C   UNL     1      35.426  -9.951 -24.581  0.00  0.00    +0.037 C 
ATOM     31  C   UNL     1      32.125  -6.800 -22.308  0.00  0.00    +0.226 C 
ATOM     32  H   UNL     1      31.236  -8.541 -22.891  0.00  0.00    +0.155 HD
ENDBRANCH  20  26
ENDBRANCH  19  20
ENDBRANCH  18  19
ENDBRANCH  17  18
ENDBRANCH   1  17
TORSDOF 7
ENDMDL
