MODEL 1
REMARK VINA RESULT:     -11.7      0.000      0.000
REMARK  Name = 445756
REMARK  6 active torsions:
REMARK  status: ('A' for Active; 'I' for Inactive)
REMARK    1  A    between atoms: C_3  and  C_11
REMARK    2  A    between atoms: C_6  and  C_22
REMARK    3  A    between atoms: C_11  and  N_12
REMARK    4  A    between atoms: C_22  and  N_23
REMARK    5  A    between atoms: N_23  and  C_25
REMARK    6  A    between atoms: C_30  and  C_33
REMARK                            x       y       z     vdW  Elec       q    Type
REMARK                         _______ _______ _______ _____ _____    ______ ____
ROOT
ATOM      1  N   UNL     1      34.797 -14.958 -22.745  0.00  0.00    -0.261 N 
ATOM      2  N   UNL     1      34.186 -15.003 -20.608  0.00  0.00    -0.392 NA
ATOM      3  C   UNL     1      32.190 -12.009 -21.619  0.00  0.00    -0.017 C 
ATOM      4  C   UNL     1      33.937 -13.902 -22.588  0.00  0.00    +0.079 C 
ATOM      5  C   UNL     1      33.570 -13.951 -21.245  0.00  0.00    +0.128 C 
ATOM      6  C   UNL     1      34.914 -15.585 -21.535  0.00  0.00    +0.183 C 
ATOM      7  C   UNL     1      32.677 -12.989 -20.744  0.00  0.00    +0.084 C 
ATOM      8  C   UNL     1      32.577 -11.986 -22.960  0.00  0.00    -0.005 C 
ATOM      9  C   UNL     1      33.463 -12.936 -23.477  0.00  0.00    +0.017 C 
ATOM     10  C   UNL     1      35.459 -15.339 -23.972  0.00  0.00    +0.120 C 
ENDROOT
BRANCH   3  11
ATOM     11  C   UNL     1      31.239 -10.977 -21.107  0.00  0.00    +0.120 C 
BRANCH  11  12
ATOM     12  N   UNL     1      31.929  -9.734 -20.746  0.00  0.00    -0.260 N 
ATOM     13  N   UNL     1      32.926  -8.217 -19.497  0.00  0.00    -0.394 NA
ATOM     14  C   UNL     1      32.260  -8.741 -21.613  0.00  0.00    +0.079 C 
ATOM     15  C   UNL     1      32.337  -9.392 -19.500  0.00  0.00    +0.164 C 
ATOM     16  C   UNL     1      32.887  -7.795 -20.806  0.00  0.00    +0.128 C 
ATOM     17  C   UNL     1      32.080  -8.577 -22.987  0.00  0.00    +0.017 C 
ATOM     18  C   UNL     1      32.128 -10.260 -18.323  0.00  0.00    +0.084 C 
ATOM     19  C   UNL     1      33.369  -6.610 -21.388  0.00  0.00    +0.086 C 
ATOM     20  C   UNL     1      32.566  -7.391 -23.548  0.00  0.00    -0.003 C 
ATOM     21  C   UNL     1      33.199  -6.424 -22.765  0.00  0.00    -0.019 C 
ENDBRANCH  11  12
ENDBRANCH   3  11
BRANCH   6  22
ATOM     22  C   UNL     1      35.771 -16.773 -21.345  0.00  0.00    +0.164 C 
BRANCH  22  23
ATOM     23  N   UNL     1      35.221 -18.023 -21.858  0.00  0.00    -0.326 N 
ATOM     24  H   UNL     1      35.001 -18.078 -22.817  0.00  0.00    +0.147 HD
BRANCH  23  25
ATOM     25  C   UNL     1      34.994 -19.128 -21.068  0.00  0.00    +0.045 C 
ATOM     26  C   UNL     1      33.684 -19.595 -20.826  0.00  0.00    +0.014 C 
ATOM     27  C   UNL     1      36.062 -19.831 -20.472  0.00  0.00    +0.014 C 
ATOM     28  C   UNL     1      33.454 -20.713 -20.025  0.00  0.00    +0.004 C 
ATOM     29  C   UNL     1      35.832 -20.949 -19.671  0.00  0.00    +0.004 C 
ATOM     30  C   UNL     1      34.528 -21.390 -19.446  0.00  0.00    +0.031 C 
BRANCH  30  33
ATOM     31  N   UNL     1      34.424 -22.493 -17.224  0.00  0.00    -0.343 N 
ATOM     32  N   UNL     1      33.937 -23.702 -19.163  0.00  0.00    -0.285 NA
ATOM     33  C   UNL     1      34.288 -22.555 -18.610  0.00  0.00    +0.117 C 
ATOM     34  H   UNL     1      34.257 -23.294 -16.677  0.00  0.00    +0.144 HD
ATOM     35  H   UNL     1      34.688 -21.648 -16.793  0.00  0.00    +0.144 HD
ATOM     36  H   UNL     1      33.774 -24.492 -18.599  0.00  0.00    +0.188 HD
ENDBRANCH  30  33
ENDBRANCH  23  25
ENDBRANCH  22  23
ENDBRANCH   6  22
TORSDOF 6
ENDMDL
MODEL 2
REMARK VINA RESULT:     -11.6      2.057      3.180
REMARK  Name = 445756
REMARK  6 active torsions:
REMARK  status: ('A' for Active; 'I' for Inactive)
REMARK    1  A    between atoms: C_3  and  C_11
REMARK    2  A    between atoms: C_6  and  C_22
REMARK    3  A    between atoms: C_11  and  N_12
REMARK    4  A    between atoms: C_22  and  N_23
REMARK    5  A    between atoms: N_23  and  C_25
REMARK    6  A    between atoms: C_30  and  C_33
REMARK                            x       y       z     vdW  Elec       q    Type
REMARK                         _______ _______ _______ _____ _____    ______ ____
ROOT
ATOM      1  N   UNL     1      34.999 -15.745 -22.581  0.00  0.00    -0.261 N 
ATOM      2  N   UNL     1      34.644 -15.832 -24.773  0.00  0.00    -0.392 NA
ATOM      3  C   UNL     1      33.981 -12.182 -24.322  0.00  0.00    -0.017 C 
ATOM      4  C   UNL     1      34.677 -14.465 -22.951  0.00  0.00    +0.079 C 
ATOM      5  C   UNL     1      34.460 -14.546 -24.324  0.00  0.00    +0.128 C 
ATOM      6  C   UNL     1      34.966 -16.525 -23.704  0.00  0.00    +0.183 C 
ATOM      7  C   UNL     1      34.105 -13.384 -25.031  0.00  0.00    +0.084 C 
ATOM      8  C   UNL     1      34.206 -12.133 -22.945  0.00  0.00    -0.005 C 
ATOM      9  C   UNL     1      34.560 -13.278 -22.225  0.00  0.00    +0.017 C 
ATOM     10  C   UNL     1      35.317 -16.187 -21.242  0.00  0.00    +0.120 C 
ENDROOT
BRANCH   3  11
ATOM     11  C   UNL     1      33.606 -10.935 -25.054  0.00  0.00    +0.120 C 
BRANCH  11  12
ATOM     12  N   UNL     1      34.139  -9.738 -24.397  0.00  0.00    -0.260 N 
ATOM     13  N   UNL     1      35.544  -8.117 -23.889  0.00  0.00    -0.394 NA
ATOM     14  C   UNL     1      33.491  -9.006 -23.452  0.00  0.00    +0.079 C 
ATOM     15  C   UNL     1      35.354  -9.185 -24.633  0.00  0.00    +0.164 C 
ATOM     16  C   UNL     1      34.393  -7.990 -23.146  0.00  0.00    +0.128 C 
ATOM     17  C   UNL     1      32.238  -9.126 -22.850  0.00  0.00    +0.017 C 
ATOM     18  C   UNL     1      36.311  -9.741 -25.610  0.00  0.00    +0.084 C 
ATOM     19  C   UNL     1      34.040  -7.029 -22.185  0.00  0.00    +0.086 C 
ATOM     20  C   UNL     1      31.904  -8.160 -21.895  0.00  0.00    -0.003 C 
ATOM     21  C   UNL     1      32.788  -7.129 -21.566  0.00  0.00    -0.019 C 
ENDBRANCH  11  12
ENDBRANCH   3  11
BRANCH   6  22
ATOM     22  C   UNL     1      35.264 -17.971 -23.665  0.00  0.00    +0.164 C 
BRANCH  22  23
ATOM     23  N   UNL     1      34.320 -18.779 -22.900  0.00  0.00    -0.326 N 
ATOM     24  H   UNL     1      33.384 -18.815 -23.202  0.00  0.00    +0.147 HD
BRANCH  23  25
ATOM     25  C   UNL     1      34.675 -19.491 -21.775  0.00  0.00    +0.045 C 
ATOM     26  C   UNL     1      36.029 -19.679 -21.426  0.00  0.00    +0.014 C 
ATOM     27  C   UNL     1      33.695 -20.061 -20.934  0.00  0.00    +0.014 C 
ATOM     28  C   UNL     1      36.388 -20.402 -20.289  0.00  0.00    +0.004 C 
ATOM     29  C   UNL     1      34.054 -20.784 -19.797  0.00  0.00    +0.004 C 
ATOM     30  C   UNL     1      35.400 -20.955 -19.475  0.00  0.00    +0.031 C 
BRANCH  30  33
ATOM     31  N   UNL     1      37.054 -21.623 -17.748  0.00  0.00    -0.343 N 
ATOM     32  N   UNL     1      34.889 -22.501 -17.707  0.00  0.00    -0.285 NA
ATOM     33  C   UNL     1      35.773 -21.710 -18.289  0.00  0.00    +0.117 C 
ATOM     34  H   UNL     1      37.286 -22.144 -16.944  0.00  0.00    +0.144 HD
ATOM     35  H   UNL     1      37.728 -21.042 -18.169  0.00  0.00    +0.144 HD
ATOM     36  H   UNL     1      35.140 -23.014 -16.904  0.00  0.00    +0.188 HD
ENDBRANCH  30  33
ENDBRANCH  23  25
ENDBRANCH  22  23
ENDBRANCH   6  22
TORSDOF 6
ENDMDL
MODEL 3
REMARK VINA RESULT:     -11.5      4.829      8.587
REMARK  Name = 445756
REMARK  6 active torsions:
REMARK  status: ('A' for Active; 'I' for Inactive)
REMARK    1  A    between atoms: C_3  and  C_11
REMARK    2  A    between atoms: C_6  and  C_22
REMARK    3  A    between atoms: C_11  and  N_12
REMARK    4  A    between atoms: C_22  and  N_23
REMARK    5  A    between atoms: N_23  and  C_25
REMARK    6  A    between atoms: C_30  and  C_33
REMARK                            x       y       z     vdW  Elec       q    Type
REMARK                         _______ _______ _______ _____ _____    ______ ____
ROOT
ATOM      1  N   UNL     1      33.351 -21.777 -18.377  0.00  0.00    -0.261 N 
ATOM      2  N   UNL     1      35.554 -22.064 -18.311  0.00  0.00    -0.392 NA
ATOM      3  C   UNL     1      35.466 -19.647 -21.160  0.00  0.00    -0.017 C 
ATOM      4  C   UNL     1      33.853 -20.985 -19.376  0.00  0.00    +0.079 C 
ATOM      5  C   UNL     1      35.230 -21.182 -19.315  0.00  0.00    +0.128 C 
ATOM      6  C   UNL     1      34.405 -22.402 -17.770  0.00  0.00    +0.183 C 
ATOM      7  C   UNL     1      36.060 -20.501 -20.222  0.00  0.00    +0.084 C 
ATOM      8  C   UNL     1      34.082 -19.470 -21.196  0.00  0.00    -0.005 C 
ATOM      9  C   UNL     1      33.240 -20.138 -20.301  0.00  0.00    +0.017 C 
ATOM     10  C   UNL     1      31.955 -21.924 -18.029  0.00  0.00    +0.120 C 
ENDROOT
BRANCH   3  11
ATOM     11  C   UNL     1      36.330 -18.913 -22.133  0.00  0.00    +0.120 C 
BRANCH  11  12
ATOM     12  N   UNL     1      35.537 -18.263 -23.181  0.00  0.00    -0.260 N 
ATOM     13  N   UNL     1      34.388 -18.019 -25.046  0.00  0.00    -0.394 NA
ATOM     14  C   UNL     1      35.161 -16.956 -23.183  0.00  0.00    +0.079 C 
ATOM     15  C   UNL     1      35.064 -18.864 -24.299  0.00  0.00    +0.164 C 
ATOM     16  C   UNL     1      34.438 -16.824 -24.366  0.00  0.00    +0.128 C 
ATOM     17  C   UNL     1      35.373 -15.903 -22.293  0.00  0.00    +0.017 C 
ATOM     18  C   UNL     1      35.298 -20.291 -24.601  0.00  0.00    +0.084 C 
ATOM     19  C   UNL     1      33.887 -15.574 -24.695  0.00  0.00    +0.086 C 
ATOM     20  C   UNL     1      34.818 -14.666 -22.637  0.00  0.00    -0.003 C 
ATOM     21  C   UNL     1      34.088 -14.502 -23.816  0.00  0.00    -0.019 C 
ENDBRANCH  11  12
ENDBRANCH   3  11
BRANCH   6  22
ATOM     22  C   UNL     1      34.220 -23.338 -16.642  0.00  0.00    +0.164 C 
BRANCH  22  23
ATOM     23  N   UNL     1      35.038 -23.061 -15.466  0.00  0.00    -0.326 N 
ATOM     24  H   UNL     1      34.712 -22.397 -14.816  0.00  0.00    +0.147 HD
BRANCH  23  25
ATOM     25  C   UNL     1      36.244 -23.681 -15.222  0.00  0.00    +0.045 C 
ATOM     26  C   UNL     1      37.467 -23.013 -15.445  0.00  0.00    +0.014 C 
ATOM     27  C   UNL     1      36.298 -25.007 -14.742  0.00  0.00    +0.014 C 
ATOM     28  C   UNL     1      38.687 -23.642 -15.200  0.00  0.00    +0.004 C 
ATOM     29  C   UNL     1      37.518 -25.636 -14.497  0.00  0.00    +0.004 C 
ATOM     30  C   UNL     1      38.713 -24.954 -14.726  0.00  0.00    +0.031 C 
BRANCH  30  33
ATOM     31  N   UNL     1      40.139 -26.984 -14.641  0.00  0.00    -0.343 N 
ATOM     32  N   UNL     1      41.023 -24.899 -14.067  0.00  0.00    -0.285 NA
ATOM     33  C   UNL     1      39.985 -25.610 -14.471  0.00  0.00    +0.117 C 
ATOM     34  H   UNL     1      41.010 -27.408 -14.463  0.00  0.00    +0.144 HD
ATOM     35  H   UNL     1      39.377 -27.532 -14.939  0.00  0.00    +0.144 HD
ATOM     36  H   UNL     1      41.886 -25.341 -13.894  0.00  0.00    +0.188 HD
ENDBRANCH  30  33
ENDBRANCH  23  25
ENDBRANCH  22  23
ENDBRANCH   6  22
TORSDOF 6
ENDMDL
MODEL 4
REMARK VINA RESULT:     -11.4      6.005     13.195
REMARK  Name = 445756
REMARK  6 active torsions:
REMARK  status: ('A' for Active; 'I' for Inactive)
REMARK    1  A    between atoms: C_3  and  C_11
REMARK    2  A    between atoms: C_6  and  C_22
REMARK    3  A    between atoms: C_11  and  N_12
REMARK    4  A    between atoms: C_22  and  N_23
REMARK    5  A    between atoms: N_23  and  C_25
REMARK    6  A    between atoms: C_30  and  C_33
REMARK                            x       y       z     vdW  Elec       q    Type
REMARK                         _______ _______ _______ _____ _____    ______ ____
ROOT
ATOM      1  N   UNL     1      34.645 -22.033 -18.325  0.00  0.00    -0.261 N 
ATOM      2  N   UNL     1      36.757 -22.017 -17.632  0.00  0.00    -0.392 NA
ATOM      3  C   UNL     1      35.258 -23.575 -14.583  0.00  0.00    -0.017 C 
ATOM      4  C   UNL     1      34.622 -22.585 -17.071  0.00  0.00    +0.079 C 
ATOM      5  C   UNL     1      35.952 -22.564 -16.659  0.00  0.00    +0.128 C 
ATOM      6  C   UNL     1      35.941 -21.710 -18.616  0.00  0.00    +0.183 C 
ATOM      7  C   UNL     1      36.285 -23.068 -15.390  0.00  0.00    +0.084 C 
ATOM      8  C   UNL     1      33.933 -23.583 -15.024  0.00  0.00    -0.005 C 
ATOM      9  C   UNL     1      33.584 -23.086 -16.284  0.00  0.00    +0.017 C 
ATOM     10  C   UNL     1      33.501 -21.831 -19.186  0.00  0.00    +0.120 C 
ENDROOT
BRANCH   3  11
ATOM     11  C   UNL     1      35.589 -24.118 -13.231  0.00  0.00    +0.120 C 
BRANCH  11  12
ATOM     12  N   UNL     1      37.031 -24.327 -13.067  0.00  0.00    -0.260 N 
ATOM     13  N   UNL     1      39.075 -24.076 -12.282  0.00  0.00    -0.394 NA
ATOM     14  C   UNL     1      37.779 -25.218 -13.770  0.00  0.00    +0.079 C 
ATOM     15  C   UNL     1      37.829 -23.666 -12.194  0.00  0.00    +0.164 C 
ATOM     16  C   UNL     1      39.063 -25.044 -13.261  0.00  0.00    +0.128 C 
ATOM     17  C   UNL     1      37.471 -26.136 -14.775  0.00  0.00    +0.017 C 
ATOM     18  C   UNL     1      37.323 -22.625 -11.276  0.00  0.00    +0.084 C 
ATOM     19  C   UNL     1      40.113 -25.824 -13.772  0.00  0.00    +0.086 C 
ATOM     20  C   UNL     1      38.529 -26.903 -15.273  0.00  0.00    -0.003 C 
ATOM     21  C   UNL     1      39.828 -26.752 -14.781  0.00  0.00    -0.019 C 
ENDBRANCH  11  12
ENDBRANCH   3  11
BRANCH   6  22
ATOM     22  C   UNL     1      36.328 -21.090 -19.899  0.00  0.00    +0.164 C 
BRANCH  22  23
ATOM     23  N   UNL     1      36.181 -19.640 -19.957  0.00  0.00    -0.326 N 
ATOM     24  H   UNL     1      36.380 -19.117 -19.146  0.00  0.00    +0.147 HD
BRANCH  23  25
ATOM     25  C   UNL     1      35.774 -18.966 -21.088  0.00  0.00    +0.045 C 
ATOM     26  C   UNL     1      36.133 -17.618 -21.304  0.00  0.00    +0.014 C 
ATOM     27  C   UNL     1      34.984 -19.600 -22.070  0.00  0.00    +0.014 C 
ATOM     28  C   UNL     1      35.719 -16.936 -22.447  0.00  0.00    +0.004 C 
ATOM     29  C   UNL     1      34.571 -18.918 -23.214  0.00  0.00    +0.004 C 
ATOM     30  C   UNL     1      34.938 -17.586 -23.402  0.00  0.00    +0.031 C 
BRANCH  30  33
ATOM     31  N   UNL     1      33.242 -17.081 -25.145  0.00  0.00    -0.343 N 
ATOM     32  N   UNL     1      35.321 -16.014 -25.180  0.00  0.00    -0.285 NA
ATOM     33  C   UNL     1      34.506 -16.874 -24.595  0.00  0.00    +0.117 C 
ATOM     34  H   UNL     1      32.970 -16.588 -25.953  0.00  0.00    +0.144 HD
ATOM     35  H   UNL     1      32.621 -17.719 -24.725  0.00  0.00    +0.144 HD
ATOM     36  H   UNL     1      35.030 -15.531 -25.988  0.00  0.00    +0.188 HD
ENDBRANCH  30  33
ENDBRANCH  23  25
ENDBRANCH  22  23
ENDBRANCH   6  22
TORSDOF 6
ENDMDL
MODEL 5
REMARK VINA RESULT:     -11.3      4.734      8.576
REMARK  Name = 445756
REMARK  6 active torsions:
REMARK  status: ('A' for Active; 'I' for Inactive)
REMARK    1  A    between atoms: C_3  and  C_11
REMARK    2  A    between atoms: C_6  and  C_22
REMARK    3  A    between atoms: C_11  and  N_12
REMARK    4  A    between atoms: C_22  and  N_23
REMARK    5  A    between atoms: N_23  and  C_25
REMARK    6  A    between atoms: C_30  and  C_33
REMARK                            x       y       z     vdW  Elec       q    Type
REMARK                         _______ _______ _______ _____ _____    ______ ____
ROOT
ATOM      1  N   UNL     1      33.404 -21.760 -18.549  0.00  0.00    -0.261 N 
ATOM      2  N   UNL     1      35.607 -22.053 -18.546  0.00  0.00    -0.392 NA
ATOM      3  C   UNL     1      35.465 -19.476 -21.250  0.00  0.00    -0.017 C 
ATOM      4  C   UNL     1      33.886 -20.912 -19.512  0.00  0.00    +0.079 C 
ATOM      5  C   UNL     1      35.264 -21.114 -19.491  0.00  0.00    +0.128 C 
ATOM      6  C   UNL     1      34.468 -22.420 -18.001  0.00  0.00    +0.183 C 
ATOM      7  C   UNL     1      36.076 -20.384 -20.375  0.00  0.00    +0.084 C 
ATOM      8  C   UNL     1      34.080 -19.296 -21.247  0.00  0.00    -0.005 C 
ATOM      9  C   UNL     1      33.256 -20.013 -20.374  0.00  0.00    +0.017 C 
ATOM     10  C   UNL     1      32.015 -21.924 -18.181  0.00  0.00    +0.120 C 
ENDROOT
BRANCH   3  11
ATOM     11  C   UNL     1      36.309 -18.689 -22.198  0.00  0.00    +0.120 C 
BRANCH  11  12
ATOM     12  N   UNL     1      35.505 -18.065 -23.253  0.00  0.00    -0.260 N 
ATOM     13  N   UNL     1      34.345 -17.864 -25.116  0.00  0.00    -0.394 NA
ATOM     14  C   UNL     1      35.116 -16.762 -23.275  0.00  0.00    +0.079 C 
ATOM     15  C   UNL     1      35.033 -18.690 -24.358  0.00  0.00    +0.164 C 
ATOM     16  C   UNL     1      34.387 -16.657 -24.457  0.00  0.00    +0.128 C 
ATOM     17  C   UNL     1      35.323 -15.692 -22.404  0.00  0.00    +0.017 C 
ATOM     18  C   UNL     1      35.279 -20.119 -24.637  0.00  0.00    +0.084 C 
ATOM     19  C   UNL     1      33.823 -15.418 -24.804  0.00  0.00    +0.086 C 
ATOM     20  C   UNL     1      34.755 -14.466 -22.767  0.00  0.00    -0.003 C 
ATOM     21  C   UNL     1      34.017 -14.330 -23.945  0.00  0.00    -0.019 C 
ENDBRANCH  11  12
ENDBRANCH   3  11
BRANCH   6  22
ATOM     22  C   UNL     1      34.305 -23.418 -16.925  0.00  0.00    +0.164 C 
BRANCH  22  23
ATOM     23  N   UNL     1      34.001 -22.867 -15.609  0.00  0.00    -0.326 N 
ATOM     24  H   UNL     1      33.229 -22.261 -15.522  0.00  0.00    +0.147 HD
BRANCH  23  25
ATOM     25  C   UNL     1      34.741 -23.151 -14.482  0.00  0.00    +0.045 C 
ATOM     26  C   UNL     1      34.187 -23.882 -13.409  0.00  0.00    +0.014 C 
ATOM     27  C   UNL     1      36.079 -22.720 -14.359  0.00  0.00    +0.014 C 
ATOM     28  C   UNL     1      34.935 -24.168 -12.268  0.00  0.00    +0.004 C 
ATOM     29  C   UNL     1      36.827 -23.005 -13.218  0.00  0.00    +0.004 C 
ATOM     30  C   UNL     1      36.255 -23.728 -12.172  0.00  0.00    +0.031 C 
BRANCH  30  33
ATOM     31  N   UNL     1      38.411 -24.239 -11.050  0.00  0.00    -0.343 N 
ATOM     32  N   UNL     1      36.439 -24.099  -9.804  0.00  0.00    -0.285 NA
ATOM     33  C   UNL     1      37.036 -24.025 -10.981  0.00  0.00    +0.117 C 
ATOM     34  H   UNL     1      38.920 -24.438 -10.230  0.00  0.00    +0.144 HD
ATOM     35  H   UNL     1      38.874 -24.191 -11.917  0.00  0.00    +0.144 HD
ATOM     36  H   UNL     1      36.965 -24.300  -8.997  0.00  0.00    +0.188 HD
ENDBRANCH  30  33
ENDBRANCH  23  25
ENDBRANCH  22  23
ENDBRANCH   6  22
TORSDOF 6
ENDMDL
MODEL 6
REMARK VINA RESULT:     -10.8      1.197      2.056
REMARK  Name = 445756
REMARK  6 active torsions:
REMARK  status: ('A' for Active; 'I' for Inactive)
REMARK    1  A    between atoms: C_3  and  C_11
REMARK    2  A    between atoms: C_6  and  C_22
REMARK    3  A    between atoms: C_11  and  N_12
REMARK    4  A    between atoms: C_22  and  N_23
REMARK    5  A    between atoms: N_23  and  C_25
REMARK    6  A    between atoms: C_30  and  C_33
REMARK                            x       y       z     vdW  Elec       q    Type
REMARK                         _______ _______ _______ _____ _____    ______ ____
ROOT
ATOM      1  N   UNL     1      34.663 -15.094 -21.774  0.00  0.00    -0.261 N 
ATOM      2  N   UNL     1      34.258 -14.136 -23.739  0.00  0.00    -0.392 NA
ATOM      3  C   UNL     1      32.151 -11.864 -21.649  0.00  0.00    -0.017 C 
ATOM      4  C   UNL     1      33.814 -14.052 -21.505  0.00  0.00    +0.079 C 
ATOM      5  C   UNL     1      33.576 -13.469 -22.747  0.00  0.00    +0.128 C 
ATOM      6  C   UNL     1      34.899 -15.103 -23.121  0.00  0.00    +0.183 C 
ATOM      7  C   UNL     1      32.728 -12.352 -22.829  0.00  0.00    +0.084 C 
ATOM      8  C   UNL     1      32.410 -12.469 -20.418  0.00  0.00    -0.005 C 
ATOM      9  C   UNL     1      33.251 -13.582 -20.318  0.00  0.00    +0.017 C 
ATOM     10  C   UNL     1      35.211 -16.015 -20.805  0.00  0.00    +0.120 C 
ENDROOT
BRANCH   3  11
ATOM     11  C   UNL     1      31.247 -10.676 -21.712  0.00  0.00    +0.120 C 
BRANCH  11  12
ATOM     12  N   UNL     1      31.902  -9.467 -21.202  0.00  0.00    -0.260 N 
ATOM     13  N   UNL     1      32.549  -7.920 -19.773  0.00  0.00    -0.394 NA
ATOM     14  C   UNL     1      32.642  -8.603 -21.945  0.00  0.00    +0.079 C 
ATOM     15  C   UNL     1      31.866  -9.033 -19.919  0.00  0.00    +0.164 C 
ATOM     16  C   UNL     1      33.041  -7.636 -21.026  0.00  0.00    +0.128 C 
ATOM     17  C   UNL     1      32.996  -8.570 -23.295  0.00  0.00    +0.017 C 
ATOM     18  C   UNL     1      31.141  -9.751 -18.851  0.00  0.00    +0.084 C 
ATOM     19  C   UNL     1      33.840  -6.566 -21.462  0.00  0.00    +0.086 C 
ATOM     20  C   UNL     1      33.791  -7.496 -23.710  0.00  0.00    -0.003 C 
ATOM     21  C   UNL     1      34.207  -6.511 -22.812  0.00  0.00    -0.019 C 
ENDBRANCH  11  12
ENDBRANCH   3  11
BRANCH   6  22
ATOM     22  C   UNL     1      35.778 -16.105 -23.758  0.00  0.00    +0.164 C 
BRANCH  22  23
ATOM     23  N   UNL     1      35.276 -17.474 -23.735  0.00  0.00    -0.326 N 
ATOM     24  H   UNL     1      34.772 -17.801 -24.516  0.00  0.00    +0.147 HD
BRANCH  23  25
ATOM     25  C   UNL     1      35.471 -18.333 -22.675  0.00  0.00    +0.045 C 
ATOM     26  C   UNL     1      36.742 -18.478 -22.077  0.00  0.00    +0.014 C 
ATOM     27  C   UNL     1      34.408 -19.098 -22.151  0.00  0.00    +0.014 C 
ATOM     28  C   UNL     1      36.939 -19.348 -21.005  0.00  0.00    +0.004 C 
ATOM     29  C   UNL     1      34.606 -19.968 -21.079  0.00  0.00    +0.004 C 
ATOM     30  C   UNL     1      35.871 -20.094 -20.507  0.00  0.00    +0.031 C 
BRANCH  30  33
ATOM     31  N   UNL     1      36.930 -20.676 -18.338  0.00  0.00    -0.343 N 
ATOM     32  N   UNL     1      35.451 -22.166 -19.364  0.00  0.00    -0.285 NA
ATOM     33  C   UNL     1      36.077 -21.002 -19.390  0.00  0.00    +0.117 C 
ATOM     34  H   UNL     1      37.055 -21.306 -17.591  0.00  0.00    +0.144 HD
ATOM     35  H   UNL     1      37.408 -19.815 -18.340  0.00  0.00    +0.144 HD
ATOM     36  H   UNL     1      35.589 -22.782 -18.608  0.00  0.00    +0.188 HD
ENDBRANCH  30  33
ENDBRANCH  23  25
ENDBRANCH  22  23
ENDBRANCH   6  22
TORSDOF 6
ENDMDL
MODEL 7
REMARK VINA RESULT:     -10.7      3.304     11.455
REMARK  Name = 445756
REMARK  6 active torsions:
REMARK  status: ('A' for Active; 'I' for Inactive)
REMARK    1  A    between atoms: C_3  and  C_11
REMARK    2  A    between atoms: C_6  and  C_22
REMARK    3  A    between atoms: C_11  and  N_12
REMARK    4  A    between atoms: C_22  and  N_23
REMARK    5  A    between atoms: N_23  and  C_25
REMARK    6  A    between atoms: C_30  and  C_33
REMARK                            x       y       z     vdW  Elec       q    Type
REMARK                         _______ _______ _______ _____ _____    ______ ____
ROOT
ATOM      1  N   UNL     1      31.938 -10.573 -21.572  0.00  0.00    -0.261 N 
ATOM      2  N   UNL     1      33.074  -9.867 -23.347  0.00  0.00    -0.392 NA
ATOM      3  C   UNL     1      34.402 -13.360 -23.280  0.00  0.00    -0.017 C 
ATOM      4  C   UNL     1      32.687 -11.647 -21.978  0.00  0.00    +0.079 C 
ATOM      5  C   UNL     1      33.387 -11.181 -23.087  0.00  0.00    +0.128 C 
ATOM      6  C   UNL     1      32.204  -9.534 -22.420  0.00  0.00    +0.183 C 
ATOM      7  C   UNL     1      34.264 -12.050 -23.758  0.00  0.00    +0.084 C 
ATOM      8  C   UNL     1      33.685 -13.798 -22.165  0.00  0.00    -0.005 C 
ATOM      9  C   UNL     1      32.807 -12.948 -21.486  0.00  0.00    +0.017 C 
ATOM     10  C   UNL     1      31.030 -10.547 -20.447  0.00  0.00    +0.120 C 
ENDROOT
BRANCH   3  11
ATOM     11  C   UNL     1      35.329 -14.301 -23.979  0.00  0.00    +0.120 C 
BRANCH  11  12
ATOM     12  N   UNL     1      34.665 -15.561 -24.325  0.00  0.00    -0.260 N 
ATOM     13  N   UNL     1      33.265 -16.954 -25.303  0.00  0.00    -0.394 NA
ATOM     14  C   UNL     1      34.976 -16.780 -23.807  0.00  0.00    +0.079 C 
ATOM     15  C   UNL     1      33.646 -15.699 -25.207  0.00  0.00    +0.164 C 
ATOM     16  C   UNL     1      34.083 -17.642 -24.437  0.00  0.00    +0.128 C 
ATOM     17  C   UNL     1      35.925 -17.204 -22.877  0.00  0.00    +0.017 C 
ATOM     18  C   UNL     1      33.068 -14.560 -25.948  0.00  0.00    +0.084 C 
ATOM     19  C   UNL     1      34.125 -19.013 -24.131  0.00  0.00    +0.086 C 
ATOM     20  C   UNL     1      35.952 -18.572 -22.585  0.00  0.00    -0.003 C 
ATOM     21  C   UNL     1      35.069 -19.462 -23.200  0.00  0.00    -0.019 C 
ENDBRANCH  11  12
ENDBRANCH   3  11
BRANCH   6  22
ATOM     22  C   UNL     1      31.563  -8.212 -22.268  0.00  0.00    +0.164 C 
BRANCH  22  23
ATOM     23  N   UNL     1      32.480  -7.097 -22.060  0.00  0.00    -0.326 N 
ATOM     24  H   UNL     1      32.666  -6.810 -21.137  0.00  0.00    +0.147 HD
BRANCH  23  25
ATOM     25  C   UNL     1      33.098  -6.425 -23.092  0.00  0.00    +0.045 C 
ATOM     26  C   UNL     1      32.383  -5.521 -23.907  0.00  0.00    +0.014 C 
ATOM     27  C   UNL     1      34.468  -6.619 -23.372  0.00  0.00    +0.014 C 
ATOM     28  C   UNL     1      33.009  -4.843 -24.952  0.00  0.00    +0.004 C 
ATOM     29  C   UNL     1      35.093  -5.940 -24.418  0.00  0.00    +0.004 C 
ATOM     30  C   UNL     1      34.363  -5.053 -25.208  0.00  0.00    +0.031 C 
BRANCH  30  33
ATOM     31  N   UNL     1      34.693  -3.025 -26.603  0.00  0.00    -0.343 N 
ATOM     32  N   UNL     1      35.931  -4.961 -27.028  0.00  0.00    -0.285 NA
ATOM     33  C   UNL     1      35.015  -4.346 -26.300  0.00  0.00    +0.117 C 
ATOM     34  H   UNL     1      35.147  -2.565 -27.346  0.00  0.00    +0.144 HD
ATOM     35  H   UNL     1      34.012  -2.550 -26.074  0.00  0.00    +0.144 HD
ATOM     36  H   UNL     1      36.374  -4.484 -27.767  0.00  0.00    +0.188 HD
ENDBRANCH  30  33
ENDBRANCH  23  25
ENDBRANCH  22  23
ENDBRANCH   6  22
TORSDOF 6
ENDMDL
MODEL 8
REMARK VINA RESULT:     -10.7      2.408      4.957
REMARK  Name = 445756
REMARK  6 active torsions:
REMARK  status: ('A' for Active; 'I' for Inactive)
REMARK    1  A    between atoms: C_3  and  C_11
REMARK    2  A    between atoms: C_6  and  C_22
REMARK    3  A    between atoms: C_11  and  N_12
REMARK    4  A    between atoms: C_22  and  N_23
REMARK    5  A    between atoms: N_23  and  C_25
REMARK    6  A    between atoms: C_30  and  C_33
REMARK                            x       y       z     vdW  Elec       q    Type
REMARK                         _______ _______ _______ _____ _____    ______ ____
ROOT
ATOM      1  N   UNL     1      32.532 -11.595 -21.914  0.00  0.00    -0.261 N 
ATOM      2  N   UNL     1      33.610 -10.671 -23.624  0.00  0.00    -0.392 NA
ATOM      3  C   UNL     1      33.113  -7.552 -21.625  0.00  0.00    -0.017 C 
ATOM      4  C   UNL     1      32.615 -10.259 -21.616  0.00  0.00    +0.079 C 
ATOM      5  C   UNL     1      33.293  -9.705 -22.698  0.00  0.00    +0.128 C 
ATOM      6  C   UNL     1      33.139 -11.792 -23.123  0.00  0.00    +0.183 C 
ATOM      7  C   UNL     1      33.551  -8.324 -22.710  0.00  0.00    +0.084 C 
ATOM      8  C   UNL     1      32.436  -8.138 -20.553  0.00  0.00    -0.005 C 
ATOM      9  C   UNL     1      32.171  -9.511 -20.524  0.00  0.00    +0.017 C 
ATOM     10  C   UNL     1      31.911 -12.611 -21.094  0.00  0.00    +0.120 C 
ENDROOT
BRANCH   3  11
ATOM     11  C   UNL     1      33.377  -6.082 -21.617  0.00  0.00    +0.120 C 
BRANCH  11  12
ATOM     12  N   UNL     1      32.742  -5.409 -22.754  0.00  0.00    -0.260 N 
ATOM     13  N   UNL     1      31.191  -4.394 -23.945  0.00  0.00    -0.394 NA
ATOM     14  C   UNL     1      33.343  -5.146 -23.945  0.00  0.00    +0.079 C 
ATOM     15  C   UNL     1      31.467  -4.951 -22.787  0.00  0.00    +0.164 C 
ATOM     16  C   UNL     1      32.349  -4.506 -24.680  0.00  0.00    +0.128 C 
ATOM     17  C   UNL     1      34.623  -5.395 -24.440  0.00  0.00    +0.017 C 
ATOM     18  C   UNL     1      30.540  -5.081 -21.645  0.00  0.00    +0.084 C 
ATOM     19  C   UNL     1      32.632  -4.083 -25.990  0.00  0.00    +0.086 C 
ATOM     20  C   UNL     1      34.886  -4.968 -25.746  0.00  0.00    -0.003 C 
ATOM     21  C   UNL     1      33.910  -4.323 -26.509  0.00  0.00    -0.019 C 
ENDBRANCH  11  12
ENDBRANCH   3  11
BRANCH   6  22
ATOM     22  C   UNL     1      33.229 -13.126 -23.749  0.00  0.00    +0.164 C 
BRANCH  22  23
ATOM     23  N   UNL     1      34.567 -13.706 -23.785  0.00  0.00    -0.326 N 
ATOM     24  H   UNL     1      35.273 -13.223 -24.272  0.00  0.00    +0.147 HD
BRANCH  23  25
ATOM     25  C   UNL     1      34.890 -14.897 -23.172  0.00  0.00    +0.045 C 
ATOM     26  C   UNL     1      35.255 -16.032 -23.928  0.00  0.00    +0.014 C 
ATOM     27  C   UNL     1      34.865 -15.025 -21.767  0.00  0.00    +0.014 C 
ATOM     28  C   UNL     1      35.580 -17.237 -23.307  0.00  0.00    +0.004 C 
ATOM     29  C   UNL     1      35.190 -16.230 -21.146  0.00  0.00    +0.004 C 
ATOM     30  C   UNL     1      35.547 -17.337 -21.916  0.00  0.00    +0.031 C 
BRANCH  30  33
ATOM     31  N   UNL     1      37.107 -18.773 -20.623  0.00  0.00    -0.343 N 
ATOM     32  N   UNL     1      35.025 -19.598 -21.291  0.00  0.00    -0.285 NA
ATOM     33  C   UNL     1      35.885 -18.595 -21.269  0.00  0.00    +0.117 C 
ATOM     34  H   UNL     1      37.315 -19.633 -20.191  0.00  0.00    +0.144 HD
ATOM     35  H   UNL     1      37.762 -18.038 -20.598  0.00  0.00    +0.144 HD
ATOM     36  H   UNL     1      35.252 -20.451 -20.854  0.00  0.00    +0.188 HD
ENDBRANCH  30  33
ENDBRANCH  23  25
ENDBRANCH  22  23
ENDBRANCH   6  22
TORSDOF 6
ENDMDL
MODEL 9
REMARK VINA RESULT:     -10.5      5.010     13.143
REMARK  Name = 445756
REMARK  6 active torsions:
REMARK  status: ('A' for Active; 'I' for Inactive)
REMARK    1  A    between atoms: C_3  and  C_11
REMARK    2  A    between atoms: C_6  and  C_22
REMARK    3  A    between atoms: C_11  and  N_12
REMARK    4  A    between atoms: C_22  and  N_23
REMARK    5  A    between atoms: N_23  and  C_25
REMARK    6  A    between atoms: C_30  and  C_33
REMARK                            x       y       z     vdW  Elec       q    Type
REMARK                         _______ _______ _______ _____ _____    ______ ____
ROOT
ATOM      1  N   UNL     1      34.863 -21.682 -18.811  0.00  0.00    -0.261 N 
ATOM      2  N   UNL     1      36.907 -20.876 -18.473  0.00  0.00    -0.392 NA
ATOM      3  C   UNL     1      36.454 -22.465 -15.120  0.00  0.00    -0.017 C 
ATOM      4  C   UNL     1      35.197 -22.053 -17.534  0.00  0.00    +0.079 C 
ATOM      5  C   UNL     1      36.477 -21.539 -17.347  0.00  0.00    +0.128 C 
ATOM      6  C   UNL     1      35.916 -20.981 -19.330  0.00  0.00    +0.183 C 
ATOM      7  C   UNL     1      37.125 -21.745 -16.117  0.00  0.00    +0.084 C 
ATOM      8  C   UNL     1      35.170 -22.970 -15.338  0.00  0.00    -0.005 C 
ATOM      9  C   UNL     1      34.510 -22.774 -16.556  0.00  0.00    +0.017 C 
ATOM     10  C   UNL     1      33.620 -21.981 -19.485  0.00  0.00    +0.120 C 
ENDROOT
BRANCH   3  11
ATOM     11  C   UNL     1      37.125 -22.698 -13.806  0.00  0.00    +0.120 C 
BRANCH  11  12
ATOM     12  N   UNL     1      37.466 -24.110 -13.612  0.00  0.00    -0.260 N 
ATOM     13  N   UNL     1      37.344 -26.176 -12.856  0.00  0.00    -0.394 NA
ATOM     14  C   UNL     1      38.511 -24.752 -14.200  0.00  0.00    +0.079 C 
ATOM     15  C   UNL     1      36.795 -24.982 -12.822  0.00  0.00    +0.164 C 
ATOM     16  C   UNL     1      38.415 -26.052 -13.710  0.00  0.00    +0.128 C 
ATOM     17  C   UNL     1      39.504 -24.339 -15.088  0.00  0.00    +0.017 C 
ATOM     18  C   UNL     1      35.602 -24.599 -12.039  0.00  0.00    +0.084 C 
ATOM     19  C   UNL     1      39.358 -27.009 -14.121  0.00  0.00    +0.086 C 
ATOM     20  C   UNL     1      40.435 -25.304 -15.485  0.00  0.00    -0.003 C 
ATOM     21  C   UNL     1      40.365 -26.617 -15.012  0.00  0.00    -0.019 C 
ENDBRANCH  11  12
ENDBRANCH   3  11
BRANCH   6  22
ATOM     22  C   UNL     1      35.893 -20.427 -20.699  0.00  0.00    +0.164 C 
BRANCH  22  23
ATOM     23  N   UNL     1      36.359 -19.051 -20.819  0.00  0.00    -0.326 N 
ATOM     24  H   UNL     1      37.075 -18.745 -20.216  0.00  0.00    +0.147 HD
BRANCH  23  25
ATOM     25  C   UNL     1      35.846 -18.156 -21.734  0.00  0.00    +0.045 C 
ATOM     26  C   UNL     1      35.559 -16.823 -21.369  0.00  0.00    +0.014 C 
ATOM     27  C   UNL     1      35.588 -18.543 -23.066  0.00  0.00    +0.014 C 
ATOM     28  C   UNL     1      35.038 -15.919 -22.294  0.00  0.00    +0.004 C 
ATOM     29  C   UNL     1      35.067 -17.639 -23.991  0.00  0.00    +0.004 C 
ATOM     30  C   UNL     1      34.791 -16.328 -23.605  0.00  0.00    +0.031 C 
BRANCH  30  33
ATOM     31  N   UNL     1      34.534 -14.024 -24.496  0.00  0.00    -0.343 N 
ATOM     32  N   UNL     1      33.457 -15.816 -25.538  0.00  0.00    -0.285 NA
ATOM     33  C   UNL     1      34.246 -15.385 -24.570  0.00  0.00    +0.117 C 
ATOM     34  H   UNL     1      34.155 -13.403 -25.160  0.00  0.00    +0.144 HD
ATOM     35  H   UNL     1      35.118 -13.682 -23.780  0.00  0.00    +0.144 HD
ATOM     36  H   UNL     1      33.087 -15.180 -26.192  0.00  0.00    +0.188 HD
ENDBRANCH  30  33
ENDBRANCH  23  25
ENDBRANCH  22  23
ENDBRANCH   6  22
TORSDOF 6
ENDMDL
