MODEL 1
REMARK VINA RESULT:     -11.8      0.000      0.000
REMARK  Name = 66555680
REMARK  4 active torsions:
REMARK  status: ('A' for Active; 'I' for Inactive)
REMARK    1  A    between atoms: N_1  and  C_8
REMARK    2  A    between atoms: C_3  and  C_22
REMARK    3  A    between atoms: C_4  and  N_18
REMARK    4  A    between atoms: C_22  and  C_24
REMARK                            x       y       z     vdW  Elec       q    Type
REMARK                         _______ _______ _______ _____ _____    ______ ____
ROOT
ATOM      1  N   UNL     1      34.575 -14.935 -23.060  0.00  0.00    -0.177 N 
ATOM      2  N   UNL     1      34.681 -15.364 -24.329  0.00  0.00    -0.171 NA
ATOM      3  C   UNL     1      35.616 -16.846 -22.863  0.00  0.00    +0.090 C 
ATOM      4  C   UNL     1      35.120 -15.787 -22.143  0.00  0.00    +0.122 C 
ATOM      5  C   UNL     1      35.318 -16.532 -24.203  0.00  0.00    +0.124 C 
ENDROOT
BRANCH   1   8
ATOM      6  N   UNL     1      33.579 -10.185 -23.897  0.00  0.00    -0.318 N 
ATOM      7  N   UNL     1      32.184 -10.011 -22.175  0.00  0.00    -0.318 N 
ATOM      8  C   UNL     1      33.949 -13.715 -22.798  0.00  0.00    +0.077 C 
ATOM      9  C   UNL     1      33.558 -11.426 -23.316  0.00  0.00    +0.060 C 
ATOM     10  C   UNL     1      34.211 -12.619 -23.626  0.00  0.00    +0.032 C 
ATOM     11  C   UNL     1      32.681 -11.292 -22.244  0.00  0.00    +0.059 C 
ATOM     12  C   UNL     1      33.073 -13.611 -21.715  0.00  0.00    +0.018 C 
ATOM     13  C   UNL     1      32.429 -12.404 -21.422  0.00  0.00    +0.017 C 
ATOM     14  C   UNL     1      32.742  -9.374 -23.180  0.00  0.00    +0.144 C 
ATOM     15  C   UNL     1      32.541  -7.962 -23.552  0.00  0.00    +0.044 C 
ATOM     16  H   UNL     1      34.102  -9.924 -24.689  0.00  0.00    +0.148 HD
ATOM     17  H   UNL     1      31.548  -9.649 -21.516  0.00  0.00    +0.148 HD
ENDBRANCH   1   8
BRANCH   4  18
ATOM     18  N   UNL     1      35.105 -15.520 -20.819  0.00  0.00    -0.344 N 
ATOM     19  H   UNL     1      34.322 -15.083 -20.413  0.00  0.00    +0.144 HD
ATOM     20  H   UNL     1      35.878 -15.763 -20.260  0.00  0.00    +0.144 HD
ENDBRANCH   4  18
BRANCH   3  22
ATOM     21  O   UNL     1      37.510 -18.204 -22.663  0.00  0.00    -0.285 OA
ATOM     22  C   UNL     1      36.318 -18.058 -22.305  0.00  0.00    +0.213 C 
BRANCH  22  24
ATOM     23  N   UNL     1      36.369 -19.779 -20.538  0.00  0.00    -0.310 N 
ATOM     24  C   UNL     1      35.687 -18.993 -21.428  0.00  0.00    +0.088 C 
ATOM     25  C   UNL     1      35.490 -20.574 -19.836  0.00  0.00    +0.048 C 
ATOM     26  C   UNL     1      34.206 -20.278 -20.302  0.00  0.00    +0.015 C 
ATOM     27  C   UNL     1      34.347 -19.279 -21.307  0.00  0.00    +0.019 C 
ATOM     28  C   UNL     1      35.729 -21.522 -18.836  0.00  0.00    +0.015 C 
ATOM     29  C   UNL     1      33.109 -20.960 -19.743  0.00  0.00    +0.001 C 
ATOM     30  C   UNL     1      34.625 -22.186 -18.297  0.00  0.00    +0.001 C 
ATOM     31  C   UNL     1      33.333 -21.911 -18.742  0.00  0.00    +0.000 C 
ATOM     32  H   UNL     1      37.346 -19.777 -20.416  0.00  0.00    +0.152 HD
ENDBRANCH  22  24
ENDBRANCH   3  22
TORSDOF 4
ENDMDL
MODEL 2
REMARK VINA RESULT:     -11.8      1.961      8.724
REMARK  Name = 66555680
REMARK  4 active torsions:
REMARK  status: ('A' for Active; 'I' for Inactive)
REMARK    1  A    between atoms: N_1  and  C_8
REMARK    2  A    between atoms: C_3  and  C_22
REMARK    3  A    between atoms: C_4  and  N_18
REMARK    4  A    between atoms: C_22  and  C_24
REMARK                            x       y       z     vdW  Elec       q    Type
REMARK                         _______ _______ _______ _____ _____    ______ ____
ROOT
ATOM      1  N   UNL     1      34.816 -18.724 -22.138  0.00  0.00    -0.177 N 
ATOM      2  N   UNL     1      34.486 -19.123 -23.379  0.00  0.00    -0.171 NA
ATOM      3  C   UNL     1      34.968 -16.891 -23.317  0.00  0.00    +0.090 C 
ATOM      4  C   UNL     1      35.113 -17.395 -22.047  0.00  0.00    +0.122 C 
ATOM      5  C   UNL     1      34.582 -17.999 -24.094  0.00  0.00    +0.124 C 
ENDROOT
BRANCH   1   8
ATOM      6  N   UNL     1      32.719 -21.608 -18.740  0.00  0.00    -0.318 N 
ATOM      7  N   UNL     1      34.655 -22.410 -17.999  0.00  0.00    -0.318 N 
ATOM      8  C   UNL     1      34.826 -19.655 -21.098  0.00  0.00    +0.077 C 
ATOM      9  C   UNL     1      33.684 -20.998 -19.500  0.00  0.00    +0.060 C 
ATOM     10  C   UNL     1      33.612 -20.068 -20.537  0.00  0.00    +0.032 C 
ATOM     11  C   UNL     1      34.882 -21.516 -19.019  0.00  0.00    +0.059 C 
ATOM     12  C   UNL     1      36.044 -20.156 -20.635  0.00  0.00    +0.018 C 
ATOM     13  C   UNL     1      36.092 -21.090 -19.593  0.00  0.00    +0.017 C 
ATOM     14  C   UNL     1      33.349 -22.442 -17.858  0.00  0.00    +0.144 C 
ATOM     15  C   UNL     1      32.585 -23.251 -16.891  0.00  0.00    +0.044 C 
ATOM     16  H   UNL     1      31.747 -21.471 -18.816  0.00  0.00    +0.148 HD
ATOM     17  H   UNL     1      35.325 -22.917 -17.485  0.00  0.00    +0.148 HD
ENDBRANCH   1   8
BRANCH   4  18
ATOM     18  N   UNL     1      35.466 -16.817 -20.878  0.00  0.00    -0.344 N 
ATOM     19  H   UNL     1      34.892 -16.126 -20.477  0.00  0.00    +0.144 HD
ATOM     20  H   UNL     1      36.299 -17.087 -20.428  0.00  0.00    +0.144 HD
ENDBRANCH   4  18
BRANCH   3  22
ATOM     21  O   UNL     1      36.069 -15.286 -24.613  0.00  0.00    -0.285 OA
ATOM     22  C   UNL     1      35.185 -15.460 -23.742  0.00  0.00    +0.213 C 
BRANCH  22  24
ATOM     23  N   UNL     1      33.846 -14.381 -21.973  0.00  0.00    -0.310 N 
ATOM     24  C   UNL     1      34.447 -14.362 -23.203  0.00  0.00    +0.088 C 
ATOM     25  C   UNL     1      33.213 -13.181 -21.736  0.00  0.00    +0.048 C 
ATOM     26  C   UNL     1      33.423 -12.376 -22.858  0.00  0.00    +0.015 C 
ATOM     27  C   UNL     1      34.204 -13.135 -23.775  0.00  0.00    +0.019 C 
ATOM     28  C   UNL     1      32.478 -12.752 -20.626  0.00  0.00    +0.015 C 
ATOM     29  C   UNL     1      32.875 -11.079 -22.874  0.00  0.00    +0.001 C 
ATOM     30  C   UNL     1      31.944 -11.461 -20.664  0.00  0.00    +0.001 C 
ATOM     31  C   UNL     1      32.138 -10.636 -21.770  0.00  0.00    +0.000 C 
ATOM     32  H   UNL     1      33.863 -15.142 -21.349  0.00  0.00    +0.152 HD
ENDBRANCH  22  24
ENDBRANCH   3  22
TORSDOF 4
ENDMDL
MODEL 3
REMARK VINA RESULT:     -11.7      2.950      5.749
REMARK  Name = 66555680
REMARK  4 active torsions:
REMARK  status: ('A' for Active; 'I' for Inactive)
REMARK    1  A    between atoms: N_1  and  C_8
REMARK    2  A    between atoms: C_3  and  C_22
REMARK    3  A    between atoms: C_4  and  N_18
REMARK    4  A    between atoms: C_22  and  C_24
REMARK                            x       y       z     vdW  Elec       q    Type
REMARK                         _______ _______ _______ _____ _____    ______ ____
ROOT
ATOM      1  N   UNL     1      35.494 -19.547 -20.740  0.00  0.00    -0.177 N 
ATOM      2  N   UNL     1      36.716 -19.858 -20.274  0.00  0.00    -0.171 NA
ATOM      3  C   UNL     1      35.109 -21.215 -19.383  0.00  0.00    +0.090 C 
ATOM      4  C   UNL     1      34.496 -20.330 -20.238  0.00  0.00    +0.122 C 
ATOM      5  C   UNL     1      36.474 -20.877 -19.445  0.00  0.00    +0.124 C 
ENDROOT
BRANCH   1   8
ATOM      6  N   UNL     1      34.867 -14.836 -22.036  0.00  0.00    -0.318 N 
ATOM      7  N   UNL     1      34.920 -15.265 -24.217  0.00  0.00    -0.318 N 
ATOM      8  C   UNL     1      35.354 -18.501 -21.654  0.00  0.00    +0.077 C 
ATOM      9  C   UNL     1      35.047 -16.192 -22.139  0.00  0.00    +0.060 C 
ATOM     10  C   UNL     1      35.182 -17.196 -21.180  0.00  0.00    +0.032 C 
ATOM     11  C   UNL     1      35.076 -16.434 -23.509  0.00  0.00    +0.059 C 
ATOM     12  C   UNL     1      35.388 -18.775 -23.023  0.00  0.00    +0.018 C 
ATOM     13  C   UNL     1      35.250 -17.751 -23.968  0.00  0.00    +0.017 C 
ATOM     14  C   UNL     1      34.797 -14.328 -23.304  0.00  0.00    +0.144 C 
ATOM     15  C   UNL     1      34.606 -12.885 -23.540  0.00  0.00    +0.044 C 
ATOM     16  H   UNL     1      34.801 -14.321 -21.200  0.00  0.00    +0.148 HD
ATOM     17  H   UNL     1      34.902 -15.154 -25.195  0.00  0.00    +0.148 HD
ENDBRANCH   1   8
BRANCH   4  18
ATOM     18  N   UNL     1      33.204 -20.163 -20.594  0.00  0.00    -0.344 N 
ATOM     19  H   UNL     1      32.718 -20.893 -21.041  0.00  0.00    +0.144 HD
ATOM     20  H   UNL     1      32.749 -19.311 -20.407  0.00  0.00    +0.144 HD
ENDBRANCH   4  18
BRANCH   3  22
ATOM     21  O   UNL     1      33.518 -22.916 -19.165  0.00  0.00    -0.285 OA
ATOM     22  C   UNL     1      34.433 -22.294 -18.576  0.00  0.00    +0.213 C 
BRANCH  22  24
ATOM     23  N   UNL     1      36.027 -22.358 -16.694  0.00  0.00    -0.310 N 
ATOM     24  C   UNL     1      34.791 -22.605 -17.228  0.00  0.00    +0.088 C 
ATOM     25  C   UNL     1      36.067 -22.767 -15.379  0.00  0.00    +0.048 C 
ATOM     26  C   UNL     1      34.809 -23.292 -15.074  0.00  0.00    +0.015 C 
ATOM     27  C   UNL     1      34.015 -23.183 -16.250  0.00  0.00    +0.019 C 
ATOM     28  C   UNL     1      37.109 -22.713 -14.447  0.00  0.00    +0.015 C 
ATOM     29  C   UNL     1      34.578 -23.787 -13.776  0.00  0.00    +0.001 C 
ATOM     30  C   UNL     1      36.857 -23.210 -13.166  0.00  0.00    +0.001 C 
ATOM     31  C   UNL     1      35.611 -23.740 -12.833  0.00  0.00    +0.000 C 
ATOM     32  H   UNL     1      36.779 -21.947 -17.179  0.00  0.00    +0.152 HD
ENDBRANCH  22  24
ENDBRANCH   3  22
TORSDOF 4
ENDMDL
MODEL 4
REMARK VINA RESULT:     -11.3      2.862      5.156
REMARK  Name = 66555680
REMARK  4 active torsions:
REMARK  status: ('A' for Active; 'I' for Inactive)
REMARK    1  A    between atoms: N_1  and  C_8
REMARK    2  A    between atoms: C_3  and  C_22
REMARK    3  A    between atoms: C_4  and  N_18
REMARK    4  A    between atoms: C_22  and  C_24
REMARK                            x       y       z     vdW  Elec       q    Type
REMARK                         _______ _______ _______ _____ _____    ______ ____
ROOT
ATOM      1  N   UNL     1      33.666 -10.605 -23.620  0.00  0.00    -0.177 N 
ATOM      2  N   UNL     1      33.141 -11.219 -22.547  0.00  0.00    -0.171 NA
ATOM      3  C   UNL     1      33.764 -12.722 -24.150  0.00  0.00    +0.090 C 
ATOM      4  C   UNL     1      34.055 -11.460 -24.610  0.00  0.00    +0.122 C 
ATOM      5  C   UNL     1      33.204 -12.513 -22.876  0.00  0.00    +0.124 C 
ENDROOT
BRANCH   1   8
ATOM      6  N   UNL     1      31.868  -6.023 -23.435  0.00  0.00    -0.318 N 
ATOM      7  N   UNL     1      33.861  -5.063 -23.656  0.00  0.00    -0.318 N 
ATOM      8  C   UNL     1      33.765  -9.212 -23.634  0.00  0.00    +0.077 C 
ATOM      9  C   UNL     1      32.764  -7.057 -23.530  0.00  0.00    +0.060 C 
ATOM     10  C   UNL     1      32.604  -8.442 -23.509  0.00  0.00    +0.032 C 
ATOM     11  C   UNL     1      34.000  -6.432 -23.667  0.00  0.00    +0.059 C 
ATOM     12  C   UNL     1      35.019  -8.614 -23.774  0.00  0.00    +0.018 C 
ATOM     13  C   UNL     1      35.156  -7.221 -23.792  0.00  0.00    +0.017 C 
ATOM     14  C   UNL     1      32.571  -4.853 -23.515  0.00  0.00    +0.144 C 
ATOM     15  C   UNL     1      31.892  -3.546 -23.444  0.00  0.00    +0.044 C 
ATOM     16  H   UNL     1      30.893  -6.108 -23.327  0.00  0.00    +0.148 HD
ATOM     17  H   UNL     1      34.572  -4.387 -23.736  0.00  0.00    +0.148 HD
ENDBRANCH   1   8
BRANCH   4  18
ATOM     18  N   UNL     1      34.605 -11.022 -25.762  0.00  0.00    -0.344 N 
ATOM     19  H   UNL     1      34.082 -11.037 -26.596  0.00  0.00    +0.144 HD
ATOM     20  H   UNL     1      35.531 -10.687 -25.770  0.00  0.00    +0.144 HD
ENDBRANCH   4  18
BRANCH   3  22
ATOM     21  O   UNL     1      33.808 -13.988 -26.117  0.00  0.00    -0.285 OA
ATOM     22  C   UNL     1      34.007 -14.019 -24.880  0.00  0.00    +0.213 C 
BRANCH  22  24
ATOM     23  N   UNL     1      34.205 -16.474 -24.719  0.00  0.00    -0.310 N 
ATOM     24  C   UNL     1      34.434 -15.217 -24.227  0.00  0.00    +0.088 C 
ATOM     25  C   UNL     1      34.733 -17.419 -23.868  0.00  0.00    +0.048 C 
ATOM     26  C   UNL     1      35.317 -16.733 -22.801  0.00  0.00    +0.015 C 
ATOM     27  C   UNL     1      35.120 -15.343 -23.041  0.00  0.00    +0.019 C 
ATOM     28  C   UNL     1      34.739 -18.815 -23.961  0.00  0.00    +0.015 C 
ATOM     29  C   UNL     1      35.937 -17.474 -21.777  0.00  0.00    +0.001 C 
ATOM     30  C   UNL     1      35.361 -19.529 -22.934  0.00  0.00    +0.001 C 
ATOM     31  C   UNL     1      35.951 -18.870 -21.857  0.00  0.00    +0.000 C 
ATOM     32  H   UNL     1      33.731 -16.673 -25.558  0.00  0.00    +0.152 HD
ENDBRANCH  22  24
ENDBRANCH   3  22
TORSDOF 4
ENDMDL
MODEL 5
REMARK VINA RESULT:     -11.2      2.899     10.299
REMARK  Name = 66555680
REMARK  4 active torsions:
REMARK  status: ('A' for Active; 'I' for Inactive)
REMARK    1  A    between atoms: N_1  and  C_8
REMARK    2  A    between atoms: C_3  and  C_22
REMARK    3  A    between atoms: C_4  and  N_18
REMARK    4  A    between atoms: C_22  and  C_24
REMARK                            x       y       z     vdW  Elec       q    Type
REMARK                         _______ _______ _______ _____ _____    ______ ____
ROOT
ATOM      1  N   UNL     1      33.869 -12.977 -23.034  0.00  0.00    -0.177 N 
ATOM      2  N   UNL     1      34.303 -12.085 -23.941  0.00  0.00    -0.171 NA
ATOM      3  C   UNL     1      32.796 -11.151 -22.501  0.00  0.00    +0.090 C 
ATOM      4  C   UNL     1      32.964 -12.468 -22.148  0.00  0.00    +0.122 C 
ATOM      5  C   UNL     1      33.644 -10.971 -23.609  0.00  0.00    +0.124 C 
ENDROOT
BRANCH   1   8
ATOM      6  N   UNL     1      35.694 -17.096 -21.042  0.00  0.00    -0.318 N 
ATOM      7  N   UNL     1      35.823 -18.167 -22.986  0.00  0.00    -0.318 N 
ATOM      8  C   UNL     1      34.354 -14.286 -23.072  0.00  0.00    +0.077 C 
ATOM      9  C   UNL     1      35.230 -16.210 -21.980  0.00  0.00    +0.060 C 
ATOM     10  C   UNL     1      34.752 -14.903 -21.881  0.00  0.00    +0.032 C 
ATOM     11  C   UNL     1      35.320 -16.902 -23.184  0.00  0.00    +0.059 C 
ATOM     12  C   UNL     1      34.434 -14.954 -24.295  0.00  0.00    +0.018 C 
ATOM     13  C   UNL     1      34.916 -16.266 -24.371  0.00  0.00    +0.017 C 
ATOM     14  C   UNL     1      36.036 -18.250 -21.692  0.00  0.00    +0.144 C 
ATOM     15  C   UNL     1      36.574 -19.410 -20.958  0.00  0.00    +0.044 C 
ATOM     16  H   UNL     1      35.767 -16.931 -20.074  0.00  0.00    +0.148 HD
ATOM     17  H   UNL     1      35.989 -18.860 -23.666  0.00  0.00    +0.148 HD
ENDBRANCH   1   8
BRANCH   4  18
ATOM     18  N   UNL     1      32.420 -13.219 -21.166  0.00  0.00    -0.344 N 
ATOM     19  H   UNL     1      31.481 -13.083 -20.905  0.00  0.00    +0.144 HD
ATOM     20  H   UNL     1      32.964 -13.902 -20.710  0.00  0.00    +0.144 HD
ENDBRANCH   4  18
BRANCH   3  22
ATOM     21  O   UNL     1      31.060 -10.633 -21.021  0.00  0.00    -0.285 OA
ATOM     22  C   UNL     1      31.893 -10.151 -21.823  0.00  0.00    +0.213 C 
BRANCH  22  24
ATOM     23  N   UNL     1      31.617  -8.158 -23.252  0.00  0.00    -0.310 N 
ATOM     24  C   UNL     1      31.962  -8.744 -22.064  0.00  0.00    +0.088 C 
ATOM     25  C   UNL     1      31.791  -6.794 -23.178  0.00  0.00    +0.048 C 
ATOM     26  C   UNL     1      32.264  -6.510 -21.895  0.00  0.00    +0.015 C 
ATOM     27  C   UNL     1      32.368  -7.750 -21.203  0.00  0.00    +0.019 C 
ATOM     28  C   UNL     1      31.569  -5.801 -24.137  0.00  0.00    +0.015 C 
ATOM     29  C   UNL     1      32.528  -5.170 -21.551  0.00  0.00    +0.001 C 
ATOM     30  C   UNL     1      31.838  -4.479 -23.774  0.00  0.00    +0.001 C 
ATOM     31  C   UNL     1      32.310  -4.166 -22.501  0.00  0.00    +0.000 C 
ATOM     32  H   UNL     1      31.291  -8.642 -24.045  0.00  0.00    +0.152 HD
ENDBRANCH  22  24
ENDBRANCH   3  22
TORSDOF 4
ENDMDL
MODEL 6
REMARK VINA RESULT:     -11.1      1.224      2.311
REMARK  Name = 66555680
REMARK  4 active torsions:
REMARK  status: ('A' for Active; 'I' for Inactive)
REMARK    1  A    between atoms: N_1  and  C_8
REMARK    2  A    between atoms: C_3  and  C_22
REMARK    3  A    between atoms: C_4  and  N_18
REMARK    4  A    between atoms: C_22  and  C_24
REMARK                            x       y       z     vdW  Elec       q    Type
REMARK                         _______ _______ _______ _____ _____    ______ ____
ROOT
ATOM      1  N   UNL     1      34.366 -13.782 -22.469  0.00  0.00    -0.177 N 
ATOM      2  N   UNL     1      34.579 -14.009 -21.161  0.00  0.00    -0.171 NA
ATOM      3  C   UNL     1      34.931 -15.891 -22.407  0.00  0.00    +0.090 C 
ATOM      4  C   UNL     1      34.564 -14.877 -23.258  0.00  0.00    +0.122 C 
ATOM      5  C   UNL     1      34.924 -15.299 -21.130  0.00  0.00    +0.124 C 
ENDROOT
BRANCH   1   8
ATOM      6  N   UNL     1      31.866  -9.553 -22.107  0.00  0.00    -0.318 N 
ATOM      7  N   UNL     1      32.712  -8.710 -23.982  0.00  0.00    -0.318 N 
ATOM      8  C   UNL     1      33.980 -12.508 -22.890  0.00  0.00    +0.077 C 
ATOM      9  C   UNL     1      32.714 -10.516 -22.592  0.00  0.00    +0.060 C 
ATOM     10  C   UNL     1      33.064 -11.782 -22.122  0.00  0.00    +0.032 C 
ATOM     11  C   UNL     1      33.229  -9.966 -23.762  0.00  0.00    +0.059 C 
ATOM     12  C   UNL     1      34.513 -11.983 -24.069  0.00  0.00    +0.018 C 
ATOM     13  C   UNL     1      34.148 -10.709 -24.522  0.00  0.00    +0.017 C 
ATOM     14  C   UNL     1      31.900  -8.494 -22.971  0.00  0.00    +0.144 C 
ATOM     15  C   UNL     1      31.091  -7.284 -22.732  0.00  0.00    +0.044 C 
ATOM     16  H   UNL     1      31.331  -9.613 -21.283  0.00  0.00    +0.148 HD
ATOM     17  H   UNL     1      32.907  -8.104 -24.733  0.00  0.00    +0.148 HD
ENDBRANCH   1   8
BRANCH   4  18
ATOM     18  N   UNL     1      34.397 -14.836 -24.598  0.00  0.00    -0.344 N 
ATOM     19  H   UNL     1      34.543 -13.994 -25.087  0.00  0.00    +0.144 HD
ATOM     20  H   UNL     1      34.128 -15.648 -25.085  0.00  0.00    +0.144 HD
ENDBRANCH   4  18
BRANCH   3  22
ATOM     21  O   UNL     1      35.592 -17.479 -23.992  0.00  0.00    -0.285 OA
ATOM     22  C   UNL     1      35.262 -17.310 -22.795  0.00  0.00    +0.213 C 
BRANCH  22  24
ATOM     23  N   UNL     1      34.042 -18.983 -21.452  0.00  0.00    -0.310 N 
ATOM     24  C   UNL     1      35.208 -18.405 -21.878  0.00  0.00    +0.088 C 
ATOM     25  C   UNL     1      34.314 -20.010 -20.575  0.00  0.00    +0.048 C 
ATOM     26  C   UNL     1      35.703 -20.082 -20.444  0.00  0.00    +0.015 C 
ATOM     27  C   UNL     1      36.254 -19.063 -21.272  0.00  0.00    +0.019 C 
ATOM     28  C   UNL     1      33.447 -20.871 -19.895  0.00  0.00    +0.015 C 
ATOM     29  C   UNL     1      36.254 -21.060 -19.595  0.00  0.00    +0.001 C 
ATOM     30  C   UNL     1      34.016 -21.834 -19.058  0.00  0.00    +0.001 C 
ATOM     31  C   UNL     1      35.399 -21.929 -18.908  0.00  0.00    +0.000 C 
ATOM     32  H   UNL     1      33.140 -18.705 -21.731  0.00  0.00    +0.152 HD
ENDBRANCH  22  24
ENDBRANCH   3  22
TORSDOF 4
ENDMDL
MODEL 7
REMARK VINA RESULT:     -11.1      2.878      5.744
REMARK  Name = 66555680
REMARK  4 active torsions:
REMARK  status: ('A' for Active; 'I' for Inactive)
REMARK    1  A    between atoms: N_1  and  C_8
REMARK    2  A    between atoms: C_3  and  C_22
REMARK    3  A    between atoms: C_4  and  N_18
REMARK    4  A    between atoms: C_22  and  C_24
REMARK                            x       y       z     vdW  Elec       q    Type
REMARK                         _______ _______ _______ _____ _____    ______ ____
ROOT
ATOM      1  N   UNL     1      35.471 -19.654 -20.652  0.00  0.00    -0.177 N 
ATOM      2  N   UNL     1      36.613 -19.942 -20.005  0.00  0.00    -0.171 NA
ATOM      3  C   UNL     1      35.001 -21.507 -19.596  0.00  0.00    +0.090 C 
ATOM      4  C   UNL     1      34.473 -20.561 -20.440  0.00  0.00    +0.122 C 
ATOM      5  C   UNL     1      36.320 -21.075 -19.362  0.00  0.00    +0.124 C 
ENDROOT
BRANCH   1   8
ATOM      6  N   UNL     1      34.753 -14.849 -21.465  0.00  0.00    -0.318 N 
ATOM      7  N   UNL     1      35.150 -14.998 -23.647  0.00  0.00    -0.318 N 
ATOM      8  C   UNL     1      35.402 -18.508 -21.447  0.00  0.00    +0.077 C 
ATOM      9  C   UNL     1      35.028 -16.172 -21.698  0.00  0.00    +0.060 C 
ATOM     10  C   UNL     1      35.083 -17.282 -20.855  0.00  0.00    +0.032 C 
ATOM     11  C   UNL     1      35.272 -16.239 -23.066  0.00  0.00    +0.059 C 
ATOM     12  C   UNL     1      35.652 -18.607 -22.817  0.00  0.00    +0.018 C 
ATOM     13  C   UNL     1      35.591 -17.479 -23.645  0.00  0.00    +0.017 C 
ATOM     14  C   UNL     1      34.838 -14.189 -22.659  0.00  0.00    +0.144 C 
ATOM     15  C   UNL     1      34.595 -12.737 -22.751  0.00  0.00    +0.044 C 
ATOM     16  H   UNL     1      34.534 -14.446 -20.593  0.00  0.00    +0.148 HD
ATOM     17  H   UNL     1      35.269 -14.765 -24.596  0.00  0.00    +0.148 HD
ENDBRANCH   1   8
BRANCH   4  18
ATOM     18  N   UNL     1      33.255 -20.434 -21.010  0.00  0.00    -0.344 N 
ATOM     19  H   UNL     1      32.639 -21.202 -21.031  0.00  0.00    +0.144 HD
ATOM     20  H   UNL     1      32.984 -19.574 -21.404  0.00  0.00    +0.144 HD
ENDBRANCH   4  18
BRANCH   3  22
ATOM     21  O   UNL     1      34.384 -23.757 -19.768  0.00  0.00    -0.285 OA
ATOM     22  C   UNL     1      34.291 -22.726 -19.061  0.00  0.00    +0.213 C 
BRANCH  22  24
ATOM     23  N   UNL     1      32.202 -22.542 -17.762  0.00  0.00    -0.310 N 
ATOM     24  C   UNL     1      33.556 -22.730 -17.836  0.00  0.00    +0.088 C 
ATOM     25  C   UNL     1      31.786 -22.598 -16.450  0.00  0.00    +0.048 C 
ATOM     26  C   UNL     1      32.921 -22.830 -15.669  0.00  0.00    +0.015 C 
ATOM     27  C   UNL     1      34.030 -22.911 -16.557  0.00  0.00    +0.019 C 
ATOM     28  C   UNL     1      30.507 -22.463 -15.901  0.00  0.00    +0.015 C 
ATOM     29  C   UNL     1      32.772 -22.933 -14.272  0.00  0.00    +0.001 C 
ATOM     30  C   UNL     1      30.384 -22.569 -14.513  0.00  0.00    +0.001 C 
ATOM     31  C   UNL     1      31.499 -22.800 -13.709  0.00  0.00    +0.000 C 
ATOM     32  H   UNL     1      31.611 -22.389 -18.534  0.00  0.00    +0.152 HD
ENDBRANCH  22  24
ENDBRANCH   3  22
TORSDOF 4
ENDMDL
MODEL 8
REMARK VINA RESULT:     -10.9      2.494      9.684
REMARK  Name = 66555680
REMARK  4 active torsions:
REMARK  status: ('A' for Active; 'I' for Inactive)
REMARK    1  A    between atoms: N_1  and  C_8
REMARK    2  A    between atoms: C_3  and  C_22
REMARK    3  A    between atoms: C_4  and  N_18
REMARK    4  A    between atoms: C_22  and  C_24
REMARK                            x       y       z     vdW  Elec       q    Type
REMARK                         _______ _______ _______ _____ _____    ______ ____
ROOT
ATOM      1  N   UNL     1      34.619 -20.591 -19.882  0.00  0.00    -0.177 N 
ATOM      2  N   UNL     1      33.466 -20.394 -20.544  0.00  0.00    -0.171 NA
ATOM      3  C   UNL     1      35.185 -19.220 -21.487  0.00  0.00    +0.090 C 
ATOM      4  C   UNL     1      35.679 -19.910 -20.407  0.00  0.00    +0.122 C 
ATOM      5  C   UNL     1      33.818 -19.556 -21.524  0.00  0.00    +0.124 C 
ENDROOT
BRANCH   1   8
ATOM      6  N   UNL     1      36.713 -22.762 -15.988  0.00  0.00    -0.318 N 
ATOM      7  N   UNL     1      34.878 -23.886 -15.429  0.00  0.00    -0.318 N 
ATOM      8  C   UNL     1      34.636 -21.432 -18.769  0.00  0.00    +0.077 C 
ATOM      9  C   UNL     1      35.770 -22.411 -16.920  0.00  0.00    +0.060 C 
ATOM     10  C   UNL     1      35.812 -21.555 -18.021  0.00  0.00    +0.032 C 
ATOM     11  C   UNL     1      34.634 -23.125 -16.549  0.00  0.00    +0.059 C 
ATOM     12  C   UNL     1      33.481 -22.136 -18.422  0.00  0.00    +0.018 C 
ATOM     13  C   UNL     1      33.462 -22.990 -17.312  0.00  0.00    +0.017 C 
ATOM     14  C   UNL     1      36.132 -23.645 -15.120  0.00  0.00    +0.144 C 
ATOM     15  C   UNL     1      36.888 -24.217 -13.991  0.00  0.00    +0.044 C 
ATOM     16  H   UNL     1      37.641 -22.437 -15.951  0.00  0.00    +0.148 HD
ATOM     17  H   UNL     1      34.249 -24.482 -14.961  0.00  0.00    +0.148 HD
ENDBRANCH   1   8
BRANCH   4  18
ATOM     18  N   UNL     1      36.917 -19.988 -19.872  0.00  0.00    -0.344 N 
ATOM     19  H   UNL     1      37.043 -20.370 -18.974  0.00  0.00    +0.144 HD
ATOM     20  H   UNL     1      37.694 -19.661 -20.381  0.00  0.00    +0.144 HD
ENDBRANCH   4  18
BRANCH   3  22
ATOM     21  O   UNL     1      37.139 -18.680 -22.654  0.00  0.00    -0.285 OA
ATOM     22  C   UNL     1      35.966 -18.315 -22.406  0.00  0.00    +0.213 C 
BRANCH  22  24
ATOM     23  N   UNL     1      35.428 -15.908 -22.322  0.00  0.00    -0.310 N 
ATOM     24  C   UNL     1      35.428 -17.116 -22.967  0.00  0.00    +0.088 C 
ATOM     25  C   UNL     1      34.842 -14.947 -23.114  0.00  0.00    +0.048 C 
ATOM     26  C   UNL     1      34.458 -15.572 -24.303  0.00  0.00    +0.015 C 
ATOM     27  C   UNL     1      34.834 -16.940 -24.195  0.00  0.00    +0.019 C 
ATOM     28  C   UNL     1      34.624 -13.586 -22.873  0.00  0.00    +0.015 C 
ATOM     29  C   UNL     1      33.827 -14.803 -25.300  0.00  0.00    +0.001 C 
ATOM     30  C   UNL     1      33.996 -12.844 -23.876  0.00  0.00    +0.001 C 
ATOM     31  C   UNL     1      33.603 -13.441 -25.073  0.00  0.00    +0.000 C 
ATOM     32  H   UNL     1      35.793 -15.750 -21.422  0.00  0.00    +0.152 HD
ENDBRANCH  22  24
ENDBRANCH   3  22
TORSDOF 4
ENDMDL
MODEL 9
REMARK VINA RESULT:     -10.7      3.784     11.544
REMARK  Name = 66555680
REMARK  4 active torsions:
REMARK  status: ('A' for Active; 'I' for Inactive)
REMARK    1  A    between atoms: N_1  and  C_8
REMARK    2  A    between atoms: C_3  and  C_22
REMARK    3  A    between atoms: C_4  and  N_18
REMARK    4  A    between atoms: C_22  and  C_24
REMARK                            x       y       z     vdW  Elec       q    Type
REMARK                         _______ _______ _______ _____ _____    ______ ____
ROOT
ATOM      1  N   UNL     1      33.848 -10.638 -23.699  0.00  0.00    -0.177 N 
ATOM      2  N   UNL     1      32.776 -10.210 -23.012  0.00  0.00    -0.171 NA
ATOM      3  C   UNL     1      34.222  -8.499 -23.461  0.00  0.00    +0.090 C 
ATOM      4  C   UNL     1      34.745  -9.653 -23.993  0.00  0.00    +0.122 C 
ATOM      5  C   UNL     1      33.010  -8.902 -22.869  0.00  0.00    +0.124 C 
ENDROOT
BRANCH   1   8
ATOM      6  N   UNL     1      35.017 -15.350 -22.865  0.00  0.00    -0.318 N 
ATOM      7  N   UNL     1      34.337 -16.038 -24.867  0.00  0.00    -0.318 N 
ATOM      8  C   UNL     1      33.951 -11.989 -24.038  0.00  0.00    +0.077 C 
ATOM      9  C   UNL     1      34.562 -14.225 -23.504  0.00  0.00    +0.060 C 
ATOM     10  C   UNL     1      34.483 -12.889 -23.110  0.00  0.00    +0.032 C 
ATOM     11  C   UNL     1      34.143 -14.680 -24.750  0.00  0.00    +0.059 C 
ATOM     12  C   UNL     1      33.522 -12.416 -25.297  0.00  0.00    +0.018 C 
ATOM     13  C   UNL     1      33.611 -13.762 -25.671  0.00  0.00    +0.017 C 
ATOM     14  C   UNL     1      34.862 -16.406 -23.720  0.00  0.00    +0.144 C 
ATOM     15  C   UNL     1      35.260 -17.771 -23.330  0.00  0.00    +0.044 C 
ATOM     16  H   UNL     1      35.389 -15.390 -21.954  0.00  0.00    +0.148 HD
ATOM     17  H   UNL     1      34.128 -16.609 -25.641  0.00  0.00    +0.148 HD
ENDBRANCH   1   8
BRANCH   4  18
ATOM     18  N   UNL     1      35.882  -9.898 -24.679  0.00  0.00    -0.344 N 
ATOM     19  H   UNL     1      36.712 -10.113 -24.196  0.00  0.00    +0.144 HD
ATOM     20  H   UNL     1      35.880  -9.863 -25.663  0.00  0.00    +0.144 HD
ENDBRANCH   4  18
BRANCH   3  22
ATOM     21  O   UNL     1      36.081  -7.085 -23.350  0.00  0.00    -0.285 OA
ATOM     22  C   UNL     1      34.840  -7.125 -23.519  0.00  0.00    +0.213 C 
BRANCH  22  24
ATOM     23  N   UNL     1      33.196  -5.414 -22.845  0.00  0.00    -0.310 N 
ATOM     24  C   UNL     1      34.083  -5.935 -23.747  0.00  0.00    +0.088 C 
ATOM     25  C   UNL     1      32.623  -4.267 -23.351  0.00  0.00    +0.048 C 
ATOM     26  C   UNL     1      33.171  -4.059 -24.618  0.00  0.00    +0.015 C 
ATOM     27  C   UNL     1      34.090  -5.119 -24.855  0.00  0.00    +0.019 C 
ATOM     28  C   UNL     1      31.673  -3.408 -22.788  0.00  0.00    +0.015 C 
ATOM     29  C   UNL     1      32.751  -2.939 -25.362  0.00  0.00    +0.001 C 
ATOM     30  C   UNL     1      31.272  -2.304 -23.545  0.00  0.00    +0.001 C 
ATOM     31  C   UNL     1      31.802  -2.071 -24.813  0.00  0.00    +0.000 C 
ATOM     32  H   UNL     1      32.995  -5.802 -21.963  0.00  0.00    +0.152 HD
ENDBRANCH  22  24
ENDBRANCH   3  22
TORSDOF 4
ENDMDL
