MODEL 1
REMARK VINA RESULT:     -12.0      0.000      0.000
REMARK  Name = 54671008
REMARK  7 active torsions:
REMARK  status: ('A' for Active; 'I' for Inactive)
REMARK    1  A    between atoms: C_4  and  C_21
REMARK    2  A    between atoms: C_6  and  C_11
REMARK    3  A    between atoms: C_8  and  O_34
REMARK    4  A    between atoms: N_10  and  C_13
REMARK    5  A    between atoms: C_13  and  C_15
REMARK    6  A    between atoms: C_21  and  N_25
REMARK    7  A    between atoms: C_26  and  C_31
REMARK                            x       y       z     vdW  Elec       q    Type
REMARK                         _______ _______ _______ _____ _____    ______ ____
ROOT
ATOM      1  O   UNL     1      36.422 -22.987 -14.617  0.00  0.00    -0.271 OA
ATOM      2  N   UNL     1      34.109 -23.333 -14.515  0.00  0.00    -0.232 N 
ATOM      3  N   UNL     1      32.814 -23.092 -16.495  0.00  0.00    -0.386 NA
ATOM      4  C   UNL     1      32.911 -23.348 -15.227  0.00  0.00    +0.182 C 
ATOM      5  C   UNL     1      35.315 -23.029 -15.152  0.00  0.00    +0.265 C 
ATOM      6  C   UNL     1      33.972 -22.791 -17.158  0.00  0.00    +0.199 C 
ATOM      7  C   UNL     1      34.102 -23.639 -13.086  0.00  0.00    +0.122 C 
ATOM      8  C   UNL     1      35.193 -22.738 -16.606  0.00  0.00    +0.245 C 
ENDROOT
BRANCH   6  11
ATOM      9  O   UNL     1      33.927 -23.407 -19.424  0.00  0.00    -0.268 OA
ATOM     10  N   UNL     1      33.612 -21.168 -18.856  0.00  0.00    -0.295 N 
ATOM     11  C   UNL     1      33.837 -22.506 -18.594  0.00  0.00    +0.275 C 
ATOM     12  H   UNL     1      33.562 -20.544 -18.096  0.00  0.00    +0.150 HD
BRANCH  10  13
ATOM     13  C   UNL     1      33.446 -20.639 -20.191  0.00  0.00    +0.117 C 
BRANCH  13  15
ATOM     14  F   UNL     1      38.139 -18.169 -22.081  0.00  0.00    -0.204 F 
ATOM     15  C   UNL     1      34.698 -19.980 -20.694  0.00  0.00    -0.002 C 
ATOM     16  C   UNL     1      34.643 -19.137 -21.804  0.00  0.00    -0.000 C 
ATOM     17  C   UNL     1      35.915 -20.211 -20.053  0.00  0.00    -0.000 C 
ATOM     18  C   UNL     1      35.806 -18.526 -22.272  0.00  0.00    +0.029 C 
ATOM     19  C   UNL     1      37.077 -19.600 -20.521  0.00  0.00    +0.029 C 
ATOM     20  C   UNL     1      37.023 -18.757 -21.631  0.00  0.00    +0.140 C 
ENDBRANCH  13  15
ENDBRANCH  10  13
ENDBRANCH   6  11
BRANCH   4  21
ATOM     21  C   UNL     1      31.643 -23.684 -14.479  0.00  0.00    +0.117 C 
ATOM     22  C   UNL     1      31.574 -25.184 -14.232  0.00  0.00    +0.028 C 
ATOM     23  C   UNL     1      31.592 -22.902 -13.174  0.00  0.00    +0.028 C 
BRANCH  21  25
ATOM     24  O   UNL     1      28.896 -24.517 -14.449  0.00  0.00    -0.265 OA
ATOM     25  N   UNL     1      30.605 -23.257 -15.382  0.00  0.00    -0.293 N 
ATOM     26  C   UNL     1      29.299 -23.716 -15.289  0.00  0.00    +0.302 C 
ATOM     27  H   UNL     1      30.832 -22.613 -16.092  0.00  0.00    +0.150 HD
BRANCH  26  31
ATOM     28  O   UNL     1      27.673 -22.041 -16.086  0.00  0.00    -0.416 OA
ATOM     29  N   UNL     1      28.077 -23.754 -17.468  0.00  0.00    -0.102 NA
ATOM     30  N   UNL     1      27.152 -22.925 -18.074  0.00  0.00    -0.111 NA
ATOM     31  C   UNL     1      28.353 -23.200 -16.311  0.00  0.00    +0.304 A 
ATOM     32  C   UNL     1      26.946 -21.940 -17.232  0.00  0.00    +0.227 A 
ATOM     33  C   UNL     1      26.062 -20.773 -17.353  0.00  0.00    +0.097 C 
ENDBRANCH  26  31
ENDBRANCH  21  25
ENDBRANCH   4  21
BRANCH   8  34
ATOM     34  O   UNL     1      36.335 -22.431 -17.309  0.00  0.00    -0.370 OA
ATOM     35  H   UNL     1      36.303 -21.805 -18.006  0.00  0.00    +0.211 HD
ENDBRANCH   8  34
TORSDOF 7
ENDMDL
MODEL 2
REMARK VINA RESULT:     -10.6      3.538      7.232
REMARK  Name = 54671008
REMARK  7 active torsions:
REMARK  status: ('A' for Active; 'I' for Inactive)
REMARK    1  A    between atoms: C_4  and  C_21
REMARK    2  A    between atoms: C_6  and  C_11
REMARK    3  A    between atoms: C_8  and  O_34
REMARK    4  A    between atoms: N_10  and  C_13
REMARK    5  A    between atoms: C_13  and  C_15
REMARK    6  A    between atoms: C_21  and  N_25
REMARK    7  A    between atoms: C_26  and  C_31
REMARK                            x       y       z     vdW  Elec       q    Type
REMARK                         _______ _______ _______ _____ _____    ______ ____
ROOT
ATOM      1  O   UNL     1      33.056 -24.802 -12.774  0.00  0.00    -0.271 OA
ATOM      2  N   UNL     1      35.097 -24.045 -13.637  0.00  0.00    -0.232 N 
ATOM      3  N   UNL     1      35.132 -22.981 -15.762  0.00  0.00    -0.386 NA
ATOM      4  C   UNL     1      35.738 -23.414 -14.700  0.00  0.00    +0.182 C 
ATOM      5  C   UNL     1      33.716 -24.255 -13.657  0.00  0.00    +0.265 C 
ATOM      6  C   UNL     1      33.778 -23.164 -15.823  0.00  0.00    +0.199 C 
ATOM      7  C   UNL     1      35.880 -24.492 -12.486  0.00  0.00    +0.122 C 
ATOM      8  C   UNL     1      33.030 -23.753 -14.879  0.00  0.00    +0.245 C 
ENDROOT
BRANCH   6  11
ATOM      9  O   UNL     1      31.889 -22.641 -17.116  0.00  0.00    -0.268 OA
ATOM     10  N   UNL     1      34.008 -22.254 -18.005  0.00  0.00    -0.295 N 
ATOM     11  C   UNL     1      33.114 -22.664 -17.035  0.00  0.00    +0.275 C 
ATOM     12  H   UNL     1      34.972 -22.325 -17.815  0.00  0.00    +0.150 HD
BRANCH  10  13
ATOM     13  C   UNL     1      33.599 -21.724 -19.287  0.00  0.00    +0.117 C 
BRANCH  13  15
ATOM     14  F   UNL     1      37.485 -18.297 -21.491  0.00  0.00    -0.204 F 
ATOM     15  C   UNL     1      34.636 -20.810 -19.874  0.00  0.00    -0.002 C 
ATOM     16  C   UNL     1      34.256 -19.809 -20.769  0.00  0.00    -0.000 C 
ATOM     17  C   UNL     1      35.978 -20.961 -19.526  0.00  0.00    -0.000 C 
ATOM     18  C   UNL     1      35.219 -18.961 -21.315  0.00  0.00    +0.029 C 
ATOM     19  C   UNL     1      36.940 -20.113 -20.072  0.00  0.00    +0.029 C 
ATOM     20  C   UNL     1      36.561 -19.112 -20.967  0.00  0.00    +0.140 C 
ENDBRANCH  13  15
ENDBRANCH  10  13
ENDBRANCH   6  11
BRANCH   4  21
ATOM     21  C   UNL     1      37.233 -23.219 -14.615  0.00  0.00    +0.117 C 
ATOM     22  C   UNL     1      37.689 -22.260 -15.706  0.00  0.00    +0.028 C 
ATOM     23  C   UNL     1      37.608 -22.707 -13.231  0.00  0.00    +0.028 C 
BRANCH  21  25
ATOM     24  O   UNL     1      39.984 -23.939 -15.007  0.00  0.00    -0.265 OA
ATOM     25  N   UNL     1      37.751 -24.544 -14.838  0.00  0.00    -0.293 N 
ATOM     26  C   UNL     1      39.105 -24.796 -15.017  0.00  0.00    +0.302 C 
ATOM     27  H   UNL     1      37.121 -25.300 -14.862  0.00  0.00    +0.150 HD
BRANCH  26  31
ATOM     28  O   UNL     1      40.633 -26.512 -15.914  0.00  0.00    -0.416 OA
ATOM     29  N   UNL     1      38.786 -27.272 -14.905  0.00  0.00    -0.102 NA
ATOM     30  N   UNL     1      39.515 -28.363 -15.340  0.00  0.00    -0.111 NA
ATOM     31  C   UNL     1      39.476 -26.214 -15.261  0.00  0.00    +0.304 A 
ATOM     32  C   UNL     1      40.584 -27.872 -15.923  0.00  0.00    +0.227 A 
ATOM     33  C   UNL     1      41.704 -28.570 -16.566  0.00  0.00    +0.097 C 
ENDBRANCH  26  31
ENDBRANCH  21  25
ENDBRANCH   4  21
BRANCH   8  34
ATOM     34  O   UNL     1      31.668 -23.919 -14.978  0.00  0.00    -0.370 OA
ATOM     35  H   UNL     1      31.137 -23.234 -15.335  0.00  0.00    +0.211 HD
ENDBRANCH   8  34
TORSDOF 7
ENDMDL
MODEL 3
REMARK VINA RESULT:     -10.2      2.037      2.939
REMARK  Name = 54671008
REMARK  7 active torsions:
REMARK  status: ('A' for Active; 'I' for Inactive)
REMARK    1  A    between atoms: C_4  and  C_21
REMARK    2  A    between atoms: C_6  and  C_11
REMARK    3  A    between atoms: C_8  and  O_34
REMARK    4  A    between atoms: N_10  and  C_13
REMARK    5  A    between atoms: C_13  and  C_15
REMARK    6  A    between atoms: C_21  and  N_25
REMARK    7  A    between atoms: C_26  and  C_31
REMARK                            x       y       z     vdW  Elec       q    Type
REMARK                         _______ _______ _______ _____ _____    ______ ____
ROOT
ATOM      1  O   UNL     1      38.301 -21.035 -16.603  0.00  0.00    -0.271 OA
ATOM      2  N   UNL     1      36.718 -22.480 -15.662  0.00  0.00    -0.232 N 
ATOM      3  N   UNL     1      34.730 -22.966 -16.873  0.00  0.00    -0.386 NA
ATOM      4  C   UNL     1      35.484 -23.106 -15.827  0.00  0.00    +0.182 C 
ATOM      5  C   UNL     1      37.229 -21.635 -16.651  0.00  0.00    +0.265 C 
ATOM      6  C   UNL     1      35.193 -22.148 -17.867  0.00  0.00    +0.199 C 
ATOM      7  C   UNL     1      37.486 -22.710 -14.441  0.00  0.00    +0.122 C 
ATOM      8  C   UNL     1      36.356 -21.482 -17.848  0.00  0.00    +0.245 C 
ENDROOT
BRANCH   6  11
ATOM      9  O   UNL     1      33.753 -22.983 -19.524  0.00  0.00    -0.268 OA
ATOM     10  N   UNL     1      34.244 -20.704 -19.498  0.00  0.00    -0.295 N 
ATOM     11  C   UNL     1      34.322 -22.007 -19.043  0.00  0.00    +0.275 C 
ATOM     12  H   UNL     1      34.753 -20.010 -19.021  0.00  0.00    +0.150 HD
BRANCH  10  13
ATOM     13  C   UNL     1      33.451 -20.311 -20.641  0.00  0.00    +0.117 C 
BRANCH  13  15
ATOM     14  F   UNL     1      36.227 -16.757 -24.012  0.00  0.00    -0.204 F 
ATOM     15  C   UNL     1      34.191 -19.363 -21.540  0.00  0.00    -0.002 C 
ATOM     16  C   UNL     1      33.910 -19.335 -22.906  0.00  0.00    -0.000 C 
ATOM     17  C   UNL     1      35.159 -18.511 -21.009  0.00  0.00    -0.000 C 
ATOM     18  C   UNL     1      34.599 -18.455 -23.741  0.00  0.00    +0.029 C 
ATOM     19  C   UNL     1      35.847 -17.631 -21.844  0.00  0.00    +0.029 C 
ATOM     20  C   UNL     1      35.567 -17.603 -23.210  0.00  0.00    +0.140 C 
ENDBRANCH  13  15
ENDBRANCH  10  13
ENDBRANCH   6  11
BRANCH   4  21
ATOM     21  C   UNL     1      34.990 -24.006 -14.720  0.00  0.00    +0.117 C 
ATOM     22  C   UNL     1      35.633 -25.379 -14.848  0.00  0.00    +0.028 C 
ATOM     23  C   UNL     1      35.291 -23.373 -13.368  0.00  0.00    +0.028 C 
BRANCH  21  25
ATOM     24  O   UNL     1      32.963 -24.716 -12.814  0.00  0.00    -0.265 OA
ATOM     25  N   UNL     1      33.571 -24.072 -14.958  0.00  0.00    -0.293 N 
ATOM     26  C   UNL     1      32.663 -24.426 -13.969  0.00  0.00    +0.302 C 
ATOM     27  H   UNL     1      33.232 -23.856 -15.857  0.00  0.00    +0.150 HD
BRANCH  26  31
ATOM     28  O   UNL     1      30.607 -23.334 -14.784  0.00  0.00    -0.416 OA
ATOM     29  N   UNL     1      30.466 -25.535 -14.407  0.00  0.00    -0.102 NA
ATOM     30  N   UNL     1      29.234 -25.098 -14.854  0.00  0.00    -0.111 NA
ATOM     31  C   UNL     1      31.237 -24.473 -14.382  0.00  0.00    +0.304 A 
ATOM     32  C   UNL     1      29.362 -23.809 -15.061  0.00  0.00    +0.227 A 
ATOM     33  C   UNL     1      28.374 -22.834 -15.539  0.00  0.00    +0.097 C 
ENDBRANCH  26  31
ENDBRANCH  21  25
ENDBRANCH   4  21
BRANCH   8  34
ATOM     34  O   UNL     1      36.787 -20.668 -18.870  0.00  0.00    -0.370 OA
ATOM     35  H   UNL     1      36.231 -20.507 -19.607  0.00  0.00    +0.211 HD
ENDBRANCH   8  34
TORSDOF 7
ENDMDL
