MODEL 1
REMARK VINA RESULT:     -11.7      0.000      0.000
REMARK  Name = 154000
REMARK  7 active torsions:
REMARK  status: ('A' for Active; 'I' for Inactive)
REMARK    1  A    between atoms: O_1  and  C_5
REMARK    2  A    between atoms: O_1  and  C_17
REMARK    3  A    between atoms: C_2  and  C_8
REMARK    4  A    between atoms: C_8  and  C_13
REMARK    5  A    between atoms: C_17  and  C_18
REMARK    6  A    between atoms: C_18  and  C_21
REMARK    7  A    between atoms: C_23  and  C_25
REMARK                            x       y       z     vdW  Elec       q    Type
REMARK                         _______ _______ _______ _____ _____    ______ ____
ROOT
ATOM      1  O   UNL     1      34.399 -14.799 -21.965  0.00  0.00    -0.475 OA
ENDROOT
BRANCH   1   5
ATOM      2  C   UNL     1      32.227 -11.296 -21.653  0.00  0.00    -0.021 C 
ATOM      3  C   UNL     1      32.133 -12.248 -20.648  0.00  0.00    -0.001 C 
ATOM      4  C   UNL     1      33.036 -11.499 -22.760  0.00  0.00    -0.001 C 
ATOM      5  C   UNL     1      33.683 -13.646 -21.862  0.00  0.00    +0.139 C 
ATOM      6  C   UNL     1      32.865 -13.430 -20.753  0.00  0.00    +0.037 C 
ATOM      7  C   UNL     1      33.769 -12.681 -22.865  0.00  0.00    +0.037 C 
BRANCH   2   8
ATOM      8  C   UNL     1      31.433 -10.019 -21.539  0.00  0.00    +0.047 C 
BRANCH   8  13
ATOM      9  O   UNL     1      31.604  -6.584 -21.431  0.00  0.00    -0.346 OA
ATOM     10  O   UNL     1      32.808  -8.884 -19.094  0.00  0.00    -0.272 OA
ATOM     11  O   UNL     1      31.488  -7.658 -23.458  0.00  0.00    -0.247 OA
ATOM     12  N   UNL     1      31.998  -6.960 -20.129  0.00  0.00    -0.144 N 
ATOM     13  C   UNL     1      32.330  -8.798 -21.472  0.00  0.00    +0.184 C 
ATOM     14  C   UNL     1      32.424  -8.266 -20.074  0.00  0.00    +0.264 C 
ATOM     15  C   UNL     1      31.762  -7.652 -22.269  0.00  0.00    +0.348 C 
ATOM     16  H   UNL     1      31.971  -6.357 -19.352  0.00  0.00    +0.196 HD
ENDBRANCH   8  13
ENDBRANCH   2   8
ENDBRANCH   1   5
BRANCH   1  17
ATOM     17  C   UNL     1      34.856 -15.165 -23.267  0.00  0.00    +0.213 C 
BRANCH  17  18
ATOM     18  C   UNL     1      35.906 -16.266 -23.154  0.00  0.00    +0.105 C 
BRANCH  18  21
ATOM     19  O   UNL     1      34.260 -19.478 -22.613  0.00  0.00    -0.449 OA
ATOM     20  N   UNL     1      35.596 -18.052 -21.474  0.00  0.00    -0.373 NA
ATOM     21  C   UNL     1      35.328 -17.580 -22.715  0.00  0.00    +0.134 C 
ATOM     22  C   UNL     1      34.531 -18.415 -23.420  0.00  0.00    +0.216 C 
ATOM     23  C   UNL     1      34.933 -19.187 -21.466  0.00  0.00    +0.277 C 
ATOM     24  C   UNL     1      33.936 -18.425 -24.762  0.00  0.00    +0.055 C 
BRANCH  23  25
ATOM     25  C   UNL     1      34.816 -20.168 -20.423  0.00  0.00    +0.066 C 
ATOM     26  C   UNL     1      35.962 -20.715 -19.839  0.00  0.00    +0.006 C 
ATOM     27  C   UNL     1      33.554 -20.584 -19.988  0.00  0.00    +0.006 C 
ATOM     28  C   UNL     1      35.847 -21.669 -18.828  0.00  0.00    +0.000 C 
ATOM     29  C   UNL     1      33.439 -21.537 -18.977  0.00  0.00    +0.000 C 
ATOM     30  C   UNL     1      34.586 -22.080 -18.396  0.00  0.00    +0.000 C 
ENDBRANCH  23  25
ENDBRANCH  18  21
ENDBRANCH  17  18
ENDBRANCH   1  17
TORSDOF 7
ENDMDL
MODEL 2
REMARK VINA RESULT:     -11.5      3.039     10.540
REMARK  Name = 154000
REMARK  7 active torsions:
REMARK  status: ('A' for Active; 'I' for Inactive)
REMARK    1  A    between atoms: O_1  and  C_5
REMARK    2  A    between atoms: O_1  and  C_17
REMARK    3  A    between atoms: C_2  and  C_8
REMARK    4  A    between atoms: C_8  and  C_13
REMARK    5  A    between atoms: C_17  and  C_18
REMARK    6  A    between atoms: C_18  and  C_21
REMARK    7  A    between atoms: C_23  and  C_25
REMARK                            x       y       z     vdW  Elec       q    Type
REMARK                         _______ _______ _______ _____ _____    ______ ____
ROOT
ATOM      1  O   UNL     1      35.555 -15.722 -23.692  0.00  0.00    -0.475 OA
ENDROOT
BRANCH   1   5
ATOM      2  C   UNL     1      35.401 -19.375 -21.764  0.00  0.00    -0.021 C 
ATOM      3  C   UNL     1      35.748 -18.240 -21.046  0.00  0.00    -0.001 C 
ATOM      4  C   UNL     1      35.105 -19.306 -23.117  0.00  0.00    -0.001 C 
ATOM      5  C   UNL     1      35.504 -16.924 -23.057  0.00  0.00    +0.139 C 
ATOM      6  C   UNL     1      35.800 -17.007 -21.696  0.00  0.00    +0.037 C 
ATOM      7  C   UNL     1      35.157 -18.073 -23.767  0.00  0.00    +0.037 C 
BRANCH   2   8
ATOM      8  C   UNL     1      35.346 -20.707 -21.060  0.00  0.00    +0.047 C 
BRANCH   8  13
ATOM      9  O   UNL     1      32.797 -21.888 -19.073  0.00  0.00    -0.346 OA
ATOM     10  O   UNL     1      36.230 -21.910 -18.427  0.00  0.00    -0.272 OA
ATOM     11  O   UNL     1      32.389 -20.193 -20.568  0.00  0.00    -0.247 OA
ATOM     12  N   UNL     1      33.951 -22.396 -18.440  0.00  0.00    -0.144 N 
ATOM     13  C   UNL     1      34.637 -20.615 -19.723  0.00  0.00    +0.184 C 
ATOM     14  C   UNL     1      35.083 -21.701 -18.792  0.00  0.00    +0.264 C 
ATOM     15  C   UNL     1      33.154 -20.836 -19.869  0.00  0.00    +0.348 C 
ATOM     16  H   UNL     1      33.945 -23.159 -17.818  0.00  0.00    +0.196 HD
ENDBRANCH   8  13
ENDBRANCH   2   8
ENDBRANCH   1   5
BRANCH   1  17
ATOM     17  C   UNL     1      34.870 -14.632 -23.075  0.00  0.00    +0.213 C 
BRANCH  17  18
ATOM     18  C   UNL     1      33.712 -14.181 -23.961  0.00  0.00    +0.105 C 
BRANCH  18  21
ATOM     19  O   UNL     1      33.904 -10.878 -25.502  0.00  0.00    -0.449 OA
ATOM     20  N   UNL     1      33.994 -11.783 -23.431  0.00  0.00    -0.373 NA
ATOM     21  C   UNL     1      33.819 -12.741 -24.372  0.00  0.00    +0.134 C 
ATOM     22  C   UNL     1      33.761 -12.228 -25.622  0.00  0.00    +0.216 C 
ATOM     23  C   UNL     1      34.039 -10.691 -24.160  0.00  0.00    +0.277 C 
ATOM     24  C   UNL     1      33.592 -12.763 -26.978  0.00  0.00    +0.055 C 
BRANCH  23  25
ATOM     25  C   UNL     1      34.209  -9.325 -23.748  0.00  0.00    +0.066 C 
ATOM     26  C   UNL     1      35.375  -8.629 -24.077  0.00  0.00    +0.006 C 
ATOM     27  C   UNL     1      33.208  -8.685 -23.012  0.00  0.00    +0.006 C 
ATOM     28  C   UNL     1      35.539  -7.304 -23.674  0.00  0.00    +0.000 C 
ATOM     29  C   UNL     1      33.371  -7.359 -22.609  0.00  0.00    +0.000 C 
ATOM     30  C   UNL     1      34.537  -6.669 -22.940  0.00  0.00    +0.000 C 
ENDBRANCH  23  25
ENDBRANCH  18  21
ENDBRANCH  17  18
ENDBRANCH   1  17
TORSDOF 7
ENDMDL
MODEL 3
REMARK VINA RESULT:     -11.5      5.913      9.885
REMARK  Name = 154000
REMARK  7 active torsions:
REMARK  status: ('A' for Active; 'I' for Inactive)
REMARK    1  A    between atoms: O_1  and  C_5
REMARK    2  A    between atoms: O_1  and  C_17
REMARK    3  A    between atoms: C_2  and  C_8
REMARK    4  A    between atoms: C_8  and  C_13
REMARK    5  A    between atoms: C_17  and  C_18
REMARK    6  A    between atoms: C_18  and  C_21
REMARK    7  A    between atoms: C_23  and  C_25
REMARK                            x       y       z     vdW  Elec       q    Type
REMARK                         _______ _______ _______ _____ _____    ______ ____
ROOT
ATOM      1  O   UNL     1      36.071 -22.715 -17.072  0.00  0.00    -0.475 OA
ENDROOT
BRANCH   1   5
ATOM      2  C   UNL     1      34.778 -20.413 -20.252  0.00  0.00    -0.021 C 
ATOM      3  C   UNL     1      36.129 -20.447 -19.941  0.00  0.00    -0.001 C 
ATOM      4  C   UNL     1      33.853 -21.137 -19.515  0.00  0.00    -0.001 C 
ATOM      5  C   UNL     1      35.646 -21.957 -18.119  0.00  0.00    +0.139 C 
ATOM      6  C   UNL     1      36.566 -21.223 -18.868  0.00  0.00    +0.037 C 
ATOM      7  C   UNL     1      34.290 -21.914 -18.442  0.00  0.00    +0.037 C 
BRANCH   2   8
ATOM      8  C   UNL     1      34.306 -19.572 -21.412  0.00  0.00    +0.047 C 
BRANCH   8  13
ATOM      9  O   UNL     1      35.304 -17.682 -24.109  0.00  0.00    -0.346 OA
ATOM     10  O   UNL     1      35.546 -16.901 -20.713  0.00  0.00    -0.272 OA
ATOM     11  O   UNL     1      35.224 -19.971 -24.285  0.00  0.00    -0.247 OA
ATOM     12  N   UNL     1      35.398 -16.773 -23.035  0.00  0.00    -0.144 N 
ATOM     13  C   UNL     1      35.458 -18.880 -22.116  0.00  0.00    +0.184 C 
ATOM     14  C   UNL     1      35.475 -17.411 -21.820  0.00  0.00    +0.264 C 
ATOM     15  C   UNL     1      35.313 -18.956 -23.614  0.00  0.00    +0.348 C 
ATOM     16  H   UNL     1      35.408 -15.794 -23.144  0.00  0.00    +0.196 HD
ENDBRANCH   8  13
ENDBRANCH   2   8
ENDBRANCH   1   5
BRANCH   1  17
ATOM     17  C   UNL     1      36.407 -22.027 -15.866  0.00  0.00    +0.213 C 
BRANCH  17  18
ATOM     18  C   UNL     1      36.461 -23.017 -14.706  0.00  0.00    +0.105 C 
BRANCH  18  21
ATOM     19  O   UNL     1      33.420 -24.185 -13.061  0.00  0.00    -0.449 OA
ATOM     20  N   UNL     1      34.023 -23.265 -15.037  0.00  0.00    -0.373 NA
ATOM     21  C   UNL     1      35.099 -23.432 -14.230  0.00  0.00    +0.134 C 
ATOM     22  C   UNL     1      34.766 -23.981 -13.039  0.00  0.00    +0.216 C 
ATOM     23  C   UNL     1      33.048 -23.732 -14.290  0.00  0.00    +0.277 C 
ATOM     24  C   UNL     1      35.483 -24.377 -11.821  0.00  0.00    +0.055 C 
BRANCH  23  25
ATOM     25  C   UNL     1      31.645 -23.832 -14.580  0.00  0.00    +0.066 C 
ATOM     26  C   UNL     1      30.939 -24.994 -14.253  0.00  0.00    +0.006 C 
ATOM     27  C   UNL     1      30.977 -22.769 -15.194  0.00  0.00    +0.006 C 
ATOM     28  C   UNL     1      29.577 -25.091 -14.537  0.00  0.00    +0.000 C 
ATOM     29  C   UNL     1      29.615 -22.865 -15.478  0.00  0.00    +0.000 C 
ATOM     30  C   UNL     1      28.915 -24.026 -15.150  0.00  0.00    +0.000 C 
ENDBRANCH  23  25
ENDBRANCH  18  21
ENDBRANCH  17  18
ENDBRANCH   1  17
TORSDOF 7
ENDMDL
MODEL 4
REMARK VINA RESULT:     -11.4      5.463      9.744
REMARK  Name = 154000
REMARK  7 active torsions:
REMARK  status: ('A' for Active; 'I' for Inactive)
REMARK    1  A    between atoms: O_1  and  C_5
REMARK    2  A    between atoms: O_1  and  C_17
REMARK    3  A    between atoms: C_2  and  C_8
REMARK    4  A    between atoms: C_8  and  C_13
REMARK    5  A    between atoms: C_17  and  C_18
REMARK    6  A    between atoms: C_18  and  C_21
REMARK    7  A    between atoms: C_23  and  C_25
REMARK                            x       y       z     vdW  Elec       q    Type
REMARK                         _______ _______ _______ _____ _____    ______ ____
ROOT
ATOM      1  O   UNL     1      32.712 -22.511 -18.361  0.00  0.00    -0.475 OA
ENDROOT
BRANCH   1   5
ATOM      2  C   UNL     1      35.015 -19.971 -20.669  0.00  0.00    -0.021 C 
ATOM      3  C   UNL     1      33.634 -19.846 -20.691  0.00  0.00    -0.001 C 
ATOM      4  C   UNL     1      35.637 -20.932 -19.888  0.00  0.00    -0.001 C 
ATOM      5  C   UNL     1      33.470 -21.674 -19.122  0.00  0.00    +0.139 C 
ATOM      6  C   UNL     1      32.856 -20.703 -19.912  0.00  0.00    +0.037 C 
ATOM      7  C   UNL     1      34.860 -21.789 -19.110  0.00  0.00    +0.037 C 
BRANCH   2   8
ATOM      8  C   UNL     1      35.855 -19.044 -21.513  0.00  0.00    +0.047 C 
BRANCH   8  13
ATOM      9  O   UNL     1      35.706 -15.939 -22.987  0.00  0.00    -0.346 OA
ATOM     10  O   UNL     1      35.207 -19.062 -24.469  0.00  0.00    -0.272 OA
ATOM     11  O   UNL     1      35.260 -16.161 -20.745  0.00  0.00    -0.247 OA
ATOM     12  N   UNL     1      35.689 -16.814 -24.094  0.00  0.00    -0.144 N 
ATOM     13  C   UNL     1      35.007 -18.044 -22.274  0.00  0.00    +0.184 C 
ATOM     14  C   UNL     1      35.302 -18.085 -23.743  0.00  0.00    +0.264 C 
ATOM     15  C   UNL     1      35.327 -16.629 -21.870  0.00  0.00    +0.348 C 
ATOM     16  H   UNL     1      35.928 -16.545 -25.010  0.00  0.00    +0.196 HD
ENDBRANCH   8  13
ENDBRANCH   2   8
ENDBRANCH   1   5
BRANCH   1  17
ATOM     17  C   UNL     1      33.370 -23.193 -17.293  0.00  0.00    +0.213 C 
BRANCH  17  18
ATOM     18  C   UNL     1      32.483 -23.184 -16.052  0.00  0.00    +0.105 C 
BRANCH  18  21
ATOM     19  O   UNL     1      33.731 -24.359 -12.830  0.00  0.00    -0.449 OA
ATOM     20  N   UNL     1      34.562 -23.505 -14.752  0.00  0.00    -0.373 NA
ATOM     21  C   UNL     1      33.212 -23.612 -14.811  0.00  0.00    +0.134 C 
ATOM     22  C   UNL     1      32.688 -24.122 -13.673  0.00  0.00    +0.216 C 
ATOM     23  C   UNL     1      34.818 -23.964 -13.547  0.00  0.00    +0.277 C 
ATOM     24  C   UNL     1      31.344 -24.449 -13.183  0.00  0.00    +0.055 C 
BRANCH  23  25
ATOM     25  C   UNL     1      36.080 -24.111 -12.877  0.00  0.00    +0.066 C 
ATOM     26  C   UNL     1      36.610 -23.053 -12.133  0.00  0.00    +0.006 C 
ATOM     27  C   UNL     1      36.787 -25.313 -12.968  0.00  0.00    +0.006 C 
ATOM     28  C   UNL     1      37.836 -23.197 -11.485  0.00  0.00    +0.000 C 
ATOM     29  C   UNL     1      38.013 -25.457 -12.319  0.00  0.00    +0.000 C 
ATOM     30  C   UNL     1      38.538 -24.399 -11.577  0.00  0.00    +0.000 C 
ENDBRANCH  23  25
ENDBRANCH  18  21
ENDBRANCH  17  18
ENDBRANCH   1  17
TORSDOF 7
ENDMDL
MODEL 5
REMARK VINA RESULT:     -11.1      2.659     10.555
REMARK  Name = 154000
REMARK  7 active torsions:
REMARK  status: ('A' for Active; 'I' for Inactive)
REMARK    1  A    between atoms: O_1  and  C_5
REMARK    2  A    between atoms: O_1  and  C_17
REMARK    3  A    between atoms: C_2  and  C_8
REMARK    4  A    between atoms: C_8  and  C_13
REMARK    5  A    between atoms: C_17  and  C_18
REMARK    6  A    between atoms: C_18  and  C_21
REMARK    7  A    between atoms: C_23  and  C_25
REMARK                            x       y       z     vdW  Elec       q    Type
REMARK                         _______ _______ _______ _____ _____    ______ ____
ROOT
ATOM      1  O   UNL     1      33.776 -14.115 -25.136  0.00  0.00    -0.475 OA
ENDROOT
BRANCH   1   5
ATOM      2  C   UNL     1      35.077 -17.631 -23.397  0.00  0.00    -0.021 C 
ATOM      3  C   UNL     1      35.476 -16.417 -22.858  0.00  0.00    -0.001 C 
ATOM      4  C   UNL     1      34.250 -17.687 -24.508  0.00  0.00    -0.001 C 
ATOM      5  C   UNL     1      34.205 -15.272 -24.563  0.00  0.00    +0.139 C 
ATOM      6  C   UNL     1      35.038 -15.230 -23.445  0.00  0.00    +0.037 C 
ATOM      7  C   UNL     1      33.811 -16.500 -25.095  0.00  0.00    +0.037 C 
BRANCH   2   8
ATOM      8  C   UNL     1      35.553 -18.914 -22.763  0.00  0.00    +0.047 C 
BRANCH   8  13
ATOM      9  O   UNL     1      35.403 -20.646 -19.793  0.00  0.00    -0.346 OA
ATOM     10  O   UNL     1      37.947 -18.549 -20.947  0.00  0.00    -0.272 OA
ATOM     11  O   UNL     1      33.462 -20.019 -20.849  0.00  0.00    -0.247 OA
ATOM     12  N   UNL     1      36.741 -20.201 -19.831  0.00  0.00    -0.144 N 
ATOM     13  C   UNL     1      35.555 -18.832 -21.249  0.00  0.00    +0.184 C 
ATOM     14  C   UNL     1      36.910 -19.139 -20.687  0.00  0.00    +0.264 C 
ATOM     15  C   UNL     1      34.655 -19.875 -20.639  0.00  0.00    +0.348 C 
ATOM     16  H   UNL     1      37.469 -20.604 -19.305  0.00  0.00    +0.196 HD
ENDBRANCH   8  13
ENDBRANCH   2   8
ENDBRANCH   1   5
BRANCH   1  17
ATOM     17  C   UNL     1      33.951 -12.914 -24.384  0.00  0.00    +0.213 C 
BRANCH  17  18
ATOM     18  C   UNL     1      33.924 -11.710 -25.322  0.00  0.00    +0.105 C 
BRANCH  18  21
ATOM     19  O   UNL     1      34.956  -8.515 -23.892  0.00  0.00    -0.449 OA
ATOM     20  N   UNL     1      33.236  -9.972 -23.704  0.00  0.00    -0.373 NA
ATOM     21  C   UNL     1      34.147 -10.409 -24.606  0.00  0.00    +0.134 C 
ATOM     22  C   UNL     1      35.188  -9.555 -24.740  0.00  0.00    +0.216 C 
ATOM     23  C   UNL     1      33.770  -8.838 -23.308  0.00  0.00    +0.277 C 
ATOM     24  C   UNL     1      36.420  -9.507 -25.535  0.00  0.00    +0.055 C 
BRANCH  23  25
ATOM     25  C   UNL     1      33.281  -7.886 -22.348  0.00  0.00    +0.066 C 
ATOM     26  C   UNL     1      33.353  -6.516 -22.615  0.00  0.00    +0.006 C 
ATOM     27  C   UNL     1      32.734  -8.326 -21.139  0.00  0.00    +0.006 C 
ATOM     28  C   UNL     1      32.881  -5.594 -21.682  0.00  0.00    +0.000 C 
ATOM     29  C   UNL     1      32.261  -7.404 -20.206  0.00  0.00    +0.000 C 
ATOM     30  C   UNL     1      32.335  -6.037 -20.477  0.00  0.00    +0.000 C 
ENDBRANCH  23  25
ENDBRANCH  18  21
ENDBRANCH  17  18
ENDBRANCH   1  17
TORSDOF 7
ENDMDL
MODEL 6
REMARK VINA RESULT:     -11.1      1.078      2.129
REMARK  Name = 154000
REMARK  7 active torsions:
REMARK  status: ('A' for Active; 'I' for Inactive)
REMARK    1  A    between atoms: O_1  and  C_5
REMARK    2  A    between atoms: O_1  and  C_17
REMARK    3  A    between atoms: C_2  and  C_8
REMARK    4  A    between atoms: C_8  and  C_13
REMARK    5  A    between atoms: C_17  and  C_18
REMARK    6  A    between atoms: C_18  and  C_21
REMARK    7  A    between atoms: C_23  and  C_25
REMARK                            x       y       z     vdW  Elec       q    Type
REMARK                         _______ _______ _______ _____ _____    ______ ____
ROOT
ATOM      1  O   UNL     1      33.845 -14.249 -23.325  0.00  0.00    -0.475 OA
ENDROOT
BRANCH   1   5
ATOM      2  C   UNL     1      33.423 -10.138 -23.275  0.00  0.00    -0.021 C 
ATOM      3  C   UNL     1      32.719 -10.906 -22.358  0.00  0.00    -0.001 C 
ATOM      4  C   UNL     1      34.265 -10.724 -24.207  0.00  0.00    -0.001 C 
ATOM      5  C   UNL     1      33.705 -12.896 -23.308  0.00  0.00    +0.139 C 
ATOM      6  C   UNL     1      32.861 -12.293 -22.375  0.00  0.00    +0.037 C 
ATOM      7  C   UNL     1      34.406 -12.112 -24.224  0.00  0.00    +0.037 C 
BRANCH   2   8
ATOM      8  C   UNL     1      33.268  -8.638 -23.257  0.00  0.00    +0.047 C 
BRANCH   8  13
ATOM      9  O   UNL     1      31.703  -6.381 -21.183  0.00  0.00    -0.346 OA
ATOM     10  O   UNL     1      30.996  -7.094 -24.529  0.00  0.00    -0.272 OA
ATOM     11  O   UNL     1      32.737  -8.227 -20.289  0.00  0.00    -0.247 OA
ATOM     12  N   UNL     1      31.187  -6.051 -22.454  0.00  0.00    -0.144 N 
ATOM     13  C   UNL     1      31.968  -8.209 -22.604  0.00  0.00    +0.184 C 
ATOM     14  C   UNL     1      31.326  -7.081 -23.353  0.00  0.00    +0.264 C 
ATOM     15  C   UNL     1      32.201  -7.653 -21.223  0.00  0.00    +0.348 C 
ATOM     16  H   UNL     1      30.775  -5.184 -22.671  0.00  0.00    +0.196 HD
ENDBRANCH   8  13
ENDBRANCH   2   8
ENDBRANCH   1   5
BRANCH   1  17
ATOM     17  C   UNL     1      34.627 -14.835 -22.284  0.00  0.00    +0.213 C 
BRANCH  17  18
ATOM     18  C   UNL     1      35.593 -15.855 -22.877  0.00  0.00    +0.105 C 
BRANCH  18  21
ATOM     19  O   UNL     1      34.491 -19.329 -22.678  0.00  0.00    -0.449 OA
ATOM     20  N   UNL     1      35.396 -17.764 -21.318  0.00  0.00    -0.373 NA
ATOM     21  C   UNL     1      35.208 -17.273 -22.567  0.00  0.00    +0.134 C 
ATOM     22  C   UNL     1      34.667 -18.189 -23.403  0.00  0.00    +0.216 C 
ATOM     23  C   UNL     1      34.950 -18.995 -21.441  0.00  0.00    +0.277 C 
ATOM     24  C   UNL     1      34.258 -18.223 -24.811  0.00  0.00    +0.055 C 
BRANCH  23  25
ATOM     25  C   UNL     1      34.879 -20.041 -20.459  0.00  0.00    +0.066 C 
ATOM     26  C   UNL     1      33.638 -20.520 -20.029  0.00  0.00    +0.006 C 
ATOM     27  C   UNL     1      36.051 -20.584 -19.926  0.00  0.00    +0.006 C 
ATOM     28  C   UNL     1      33.571 -21.534 -19.074  0.00  0.00    +0.000 C 
ATOM     29  C   UNL     1      35.984 -21.599 -18.971  0.00  0.00    +0.000 C 
ATOM     30  C   UNL     1      34.743 -22.074 -18.544  0.00  0.00    +0.000 C 
ENDBRANCH  23  25
ENDBRANCH  18  21
ENDBRANCH  17  18
ENDBRANCH   1  17
TORSDOF 7
ENDMDL
MODEL 7
REMARK VINA RESULT:     -11.0      4.212     10.813
REMARK  Name = 154000
REMARK  7 active torsions:
REMARK  status: ('A' for Active; 'I' for Inactive)
REMARK    1  A    between atoms: O_1  and  C_5
REMARK    2  A    between atoms: O_1  and  C_17
REMARK    3  A    between atoms: C_2  and  C_8
REMARK    4  A    between atoms: C_8  and  C_13
REMARK    5  A    between atoms: C_17  and  C_18
REMARK    6  A    between atoms: C_18  and  C_21
REMARK    7  A    between atoms: C_23  and  C_25
REMARK                            x       y       z     vdW  Elec       q    Type
REMARK                         _______ _______ _______ _____ _____    ______ ____
ROOT
ATOM      1  O   UNL     1      36.014 -19.546 -20.709  0.00  0.00    -0.475 OA
ENDROOT
BRANCH   1   5
ATOM      2  C   UNL     1      33.972 -22.272 -18.368  0.00  0.00    -0.021 C 
ATOM      3  C   UNL     1      33.264 -21.454 -19.236  0.00  0.00    -0.001 C 
ATOM      4  C   UNL     1      35.353 -22.191 -18.272  0.00  0.00    -0.001 C 
ATOM      5  C   UNL     1      35.341 -20.443 -19.939  0.00  0.00    +0.139 C 
ATOM      6  C   UNL     1      33.952 -20.534 -20.026  0.00  0.00    +0.037 C 
ATOM      7  C   UNL     1      36.041 -21.271 -19.062  0.00  0.00    +0.037 C 
BRANCH   2   8
ATOM      8  C   UNL     1      33.227 -23.266 -17.513  0.00  0.00    +0.047 C 
BRANCH   8  13
ATOM      9  O   UNL     1      30.880 -23.403 -15.000  0.00  0.00    -0.346 OA
ATOM     10  O   UNL     1      34.359 -23.539 -14.720  0.00  0.00    -0.272 OA
ATOM     11  O   UNL     1      30.389 -22.316 -16.963  0.00  0.00    -0.247 OA
ATOM     12  N   UNL     1      32.072 -23.767 -14.338  0.00  0.00    -0.144 N 
ATOM     13  C   UNL     1      32.697 -22.634 -16.240  0.00  0.00    +0.184 C 
ATOM     14  C   UNL     1      33.191 -23.359 -15.025  0.00  0.00    +0.264 C 
ATOM     15  C   UNL     1      31.197 -22.743 -16.154  0.00  0.00    +0.348 C 
ATOM     16  H   UNL     1      32.099 -24.255 -13.484  0.00  0.00    +0.196 HD
ENDBRANCH   8  13
ENDBRANCH   2   8
ENDBRANCH   1   5
BRANCH   1  17
ATOM     17  C   UNL     1      35.236 -18.561 -21.390  0.00  0.00    +0.213 C 
BRANCH  17  18
ATOM     18  C   UNL     1      36.137 -17.727 -22.295  0.00  0.00    +0.105 C 
BRANCH  18  21
ATOM     19  O   UNL     1      34.059 -16.016 -24.760  0.00  0.00    -0.449 OA
ATOM     20  N   UNL     1      35.479 -15.478 -23.084  0.00  0.00    -0.373 NA
ATOM     21  C   UNL     1      35.365 -16.822 -23.212  0.00  0.00    +0.134 C 
ATOM     22  C   UNL     1      34.520 -17.173 -24.208  0.00  0.00    +0.216 C 
ATOM     23  C   UNL     1      34.679 -15.046 -24.033  0.00  0.00    +0.277 C 
ATOM     24  C   UNL     1      34.029 -18.430 -24.783  0.00  0.00    +0.055 C 
BRANCH  23  25
ATOM     25  C   UNL     1      34.361 -13.698 -24.415  0.00  0.00    +0.066 C 
ATOM     26  C   UNL     1      34.491 -12.656 -23.492  0.00  0.00    +0.006 C 
ATOM     27  C   UNL     1      33.917 -13.421 -25.711  0.00  0.00    +0.006 C 
ATOM     28  C   UNL     1      34.180 -11.348 -23.863  0.00  0.00    +0.000 C 
ATOM     29  C   UNL     1      33.607 -12.113 -26.082  0.00  0.00    +0.000 C 
ATOM     30  C   UNL     1      33.738 -11.076 -25.158  0.00  0.00    +0.000 C 
ENDBRANCH  23  25
ENDBRANCH  18  21
ENDBRANCH  17  18
ENDBRANCH   1  17
TORSDOF 7
ENDMDL
MODEL 8
REMARK VINA RESULT:     -11.0      3.342     10.652
REMARK  Name = 154000
REMARK  7 active torsions:
REMARK  status: ('A' for Active; 'I' for Inactive)
REMARK    1  A    between atoms: O_1  and  C_5
REMARK    2  A    between atoms: O_1  and  C_17
REMARK    3  A    between atoms: C_2  and  C_8
REMARK    4  A    between atoms: C_8  and  C_13
REMARK    5  A    between atoms: C_17  and  C_18
REMARK    6  A    between atoms: C_18  and  C_21
REMARK    7  A    between atoms: C_23  and  C_25
REMARK                            x       y       z     vdW  Elec       q    Type
REMARK                         _______ _______ _______ _____ _____    ______ ____
ROOT
ATOM      1  O   UNL     1      36.148 -18.823 -21.350  0.00  0.00    -0.475 OA
ENDROOT
BRANCH   1   5
ATOM      2  C   UNL     1      34.304 -21.809 -19.166  0.00  0.00    -0.021 C 
ATOM      3  C   UNL     1      33.527 -20.911 -19.883  0.00  0.00    -0.001 C 
ATOM      4  C   UNL     1      35.687 -21.723 -19.169  0.00  0.00    -0.001 C 
ATOM      5  C   UNL     1      35.540 -19.805 -20.631  0.00  0.00    +0.139 C 
ATOM      6  C   UNL     1      34.148 -19.903 -20.620  0.00  0.00    +0.037 C 
ATOM      7  C   UNL     1      36.309 -20.715 -19.905  0.00  0.00    +0.037 C 
BRANCH   2   8
ATOM      8  C   UNL     1      33.630 -22.897 -18.369  0.00  0.00    +0.047 C 
BRANCH   8  13
ATOM      9  O   UNL     1      32.121 -23.638 -15.366  0.00  0.00    -0.346 OA
ATOM     10  O   UNL     1      35.533 -23.365 -16.062  0.00  0.00    -0.272 OA
ATOM     11  O   UNL     1      30.997 -22.389 -16.932  0.00  0.00    -0.247 OA
ATOM     12  N   UNL     1      33.479 -23.926 -15.115  0.00  0.00    -0.144 N 
ATOM     13  C   UNL     1      33.433 -22.499 -16.919  0.00  0.00    +0.184 C 
ATOM     14  C   UNL     1      34.315 -23.299 -16.008  0.00  0.00    +0.264 C 
ATOM     15  C   UNL     1      32.036 -22.806 -16.448  0.00  0.00    +0.348 C 
ATOM     16  H   UNL     1      33.791 -24.508 -14.386  0.00  0.00    +0.196 HD
ENDBRANCH   8  13
ENDBRANCH   2   8
ENDBRANCH   1   5
BRANCH   1  17
ATOM     17  C   UNL     1      35.301 -17.931 -22.077  0.00  0.00    +0.213 C 
BRANCH  17  18
ATOM     18  C   UNL     1      35.940 -16.547 -22.134  0.00  0.00    +0.105 C 
BRANCH  18  21
ATOM     19  O   UNL     1      33.557 -14.206 -23.605  0.00  0.00    -0.449 OA
ATOM     20  N   UNL     1      34.632 -14.508 -21.638  0.00  0.00    -0.373 NA
ATOM     21  C   UNL     1      34.967 -15.472 -22.528  0.00  0.00    +0.134 C 
ATOM     22  C   UNL     1      34.338 -15.316 -23.715  0.00  0.00    +0.216 C 
ATOM     23  C   UNL     1      33.788 -13.779 -22.333  0.00  0.00    +0.277 C 
ATOM     24  C   UNL     1      34.313 -16.025 -25.000  0.00  0.00    +0.055 C 
BRANCH  23  25
ATOM     25  C   UNL     1      33.070 -12.596 -21.946  0.00  0.00    +0.066 C 
ATOM     26  C   UNL     1      33.108 -11.454 -22.751  0.00  0.00    +0.006 C 
ATOM     27  C   UNL     1      32.332 -12.579 -20.759  0.00  0.00    +0.006 C 
ATOM     28  C   UNL     1      32.414 -10.305 -22.372  0.00  0.00    +0.000 C 
ATOM     29  C   UNL     1      31.637 -11.431 -20.380  0.00  0.00    +0.000 C 
ATOM     30  C   UNL     1      31.678 -10.294 -21.187  0.00  0.00    +0.000 C 
ENDBRANCH  23  25
ENDBRANCH  18  21
ENDBRANCH  17  18
ENDBRANCH   1  17
TORSDOF 7
ENDMDL
MODEL 9
REMARK VINA RESULT:     -11.0      2.281     10.942
REMARK  Name = 154000
REMARK  7 active torsions:
REMARK  status: ('A' for Active; 'I' for Inactive)
REMARK    1  A    between atoms: O_1  and  C_5
REMARK    2  A    between atoms: O_1  and  C_17
REMARK    3  A    between atoms: C_2  and  C_8
REMARK    4  A    between atoms: C_8  and  C_13
REMARK    5  A    between atoms: C_17  and  C_18
REMARK    6  A    between atoms: C_18  and  C_21
REMARK    7  A    between atoms: C_23  and  C_25
REMARK                            x       y       z     vdW  Elec       q    Type
REMARK                         _______ _______ _______ _____ _____    ______ ____
ROOT
ATOM      1  O   UNL     1      33.938 -13.477 -24.403  0.00  0.00    -0.475 OA
ENDROOT
BRANCH   1   5
ATOM      2  C   UNL     1      35.158 -17.224 -23.157  0.00  0.00    -0.021 C 
ATOM      3  C   UNL     1      35.341 -16.134 -22.318  0.00  0.00    -0.001 C 
ATOM      4  C   UNL     1      34.573 -17.079 -24.406  0.00  0.00    -0.001 C 
ATOM      5  C   UNL     1      34.340 -14.710 -23.992  0.00  0.00    +0.139 C 
ATOM      6  C   UNL     1      34.930 -14.870 -22.738  0.00  0.00    +0.037 C 
ATOM      7  C   UNL     1      34.162 -15.814 -24.826  0.00  0.00    +0.037 C 
BRANCH   2   8
ATOM      8  C   UNL     1      35.604 -18.591 -22.702  0.00  0.00    +0.047 C 
BRANCH   8  13
ATOM      9  O   UNL     1      35.419 -20.716 -20.002  0.00  0.00    -0.346 OA
ATOM     10  O   UNL     1      37.979 -18.488 -20.829  0.00  0.00    -0.272 OA
ATOM     11  O   UNL     1      33.491 -19.943 -20.982  0.00  0.00    -0.247 OA
ATOM     12  N   UNL     1      36.758 -20.274 -19.964  0.00  0.00    -0.144 N 
ATOM     13  C   UNL     1      35.590 -18.719 -21.191  0.00  0.00    +0.184 C 
ATOM     14  C   UNL     1      36.938 -19.105 -20.663  0.00  0.00    +0.264 C 
ATOM     15  C   UNL     1      34.682 -19.834 -20.741  0.00  0.00    +0.348 C 
ATOM     16  H   UNL     1      37.480 -20.749 -19.491  0.00  0.00    +0.196 HD
ENDBRANCH   8  13
ENDBRANCH   2   8
ENDBRANCH   1   5
BRANCH   1  17
ATOM     17  C   UNL     1      34.199 -12.382 -23.525  0.00  0.00    +0.213 C 
BRANCH  17  18
ATOM     18  C   UNL     1      32.961 -12.090 -22.683  0.00  0.00    +0.105 C 
BRANCH  18  21
ATOM     19  O   UNL     1      31.996  -8.665 -21.868  0.00  0.00    -0.449 OA
ATOM     20  N   UNL     1      33.160  -9.755 -23.472  0.00  0.00    -0.373 NA
ATOM     21  C   UNL     1      32.682 -10.621 -22.546  0.00  0.00    +0.134 C 
ATOM     22  C   UNL     1      31.981  -9.995 -21.573  0.00  0.00    +0.216 C 
ATOM     23  C   UNL     1      32.720  -8.603 -23.019  0.00  0.00    +0.277 C 
ATOM     24  C   UNL     1      31.261 -10.402 -20.361  0.00  0.00    +0.055 C 
BRANCH  23  25
ATOM     25  C   UNL     1      32.895  -7.283 -23.560  0.00  0.00    +0.066 C 
ATOM     26  C   UNL     1      34.161  -6.691 -23.579  0.00  0.00    +0.006 C 
ATOM     27  C   UNL     1      31.798  -6.583 -24.070  0.00  0.00    +0.006 C 
ATOM     28  C   UNL     1      34.329  -5.410 -24.103  0.00  0.00    +0.000 C 
ATOM     29  C   UNL     1      31.966  -5.301 -24.594  0.00  0.00    +0.000 C 
ATOM     30  C   UNL     1      33.231  -4.715 -24.611  0.00  0.00    +0.000 C 
ENDBRANCH  23  25
ENDBRANCH  18  21
ENDBRANCH  17  18
ENDBRANCH   1  17
TORSDOF 7
ENDMDL
