MODEL 1
REMARK VINA RESULT:     -11.1      0.000      0.000
REMARK  Name = 24941254
REMARK  6 active torsions:
REMARK  status: ('A' for Active; 'I' for Inactive)
REMARK    1  A    between atoms: C_1  and  S_21
REMARK    2  A    between atoms: C_4  and  C_9
REMARK    3  A    between atoms: N_8  and  C_11
REMARK    4  A    between atoms: C_12  and  C_18
REMARK    5  A    between atoms: C_18  and  O_19
REMARK    6  A    between atoms: S_21  and  N_24
REMARK                            x       y       z     vdW  Elec       q    Type
REMARK                         _______ _______ _______ _____ _____    ______ ____
ROOT
ATOM      1  C   UNL     1      34.977 -19.727 -20.699  0.00  0.00    +0.122 C 
ATOM      2  C   UNL     1      35.188 -20.751 -19.776  0.00  0.00    +0.024 C 
ATOM      3  C   UNL     1      33.680 -19.410 -21.104  0.00  0.00    +0.020 C 
ATOM      4  C   UNL     1      34.104 -21.459 -19.259  0.00  0.00    +0.055 C 
ATOM      5  C   UNL     1      32.595 -20.118 -20.587  0.00  0.00    +0.002 C 
ATOM      6  C   UNL     1      32.808 -21.143 -19.665  0.00  0.00    +0.005 C 
ENDROOT
BRANCH   4   9
ATOM      7  O   UNL     1      34.019 -23.690 -18.605  0.00  0.00    -0.270 OA
ATOM      8  N   UNL     1      34.901 -22.143 -17.078  0.00  0.00    -0.280 N 
ATOM      9  C   UNL     1      34.324 -22.527 -18.297  0.00  0.00    +0.250 C 
ATOM     10  H   UNL     1      35.088 -21.182 -16.977  0.00  0.00    +0.155 HD
BRANCH   8  11
ATOM     11  C   UNL     1      35.252 -22.957 -15.973  0.00  0.00    +0.057 C 
ATOM     12  C   UNL     1      36.570 -23.027 -15.522  0.00  0.00    +0.089 C 
ATOM     13  C   UNL     1      34.256 -23.696 -15.335  0.00  0.00    +0.015 C 
ATOM     14  C   UNL     1      36.891 -23.836 -14.431  0.00  0.00    +0.008 C 
ATOM     15  C   UNL     1      34.578 -24.506 -14.245  0.00  0.00    +0.001 C 
ATOM     16  C   UNL     1      35.895 -24.575 -13.794  0.00  0.00    +0.000 C 
BRANCH  12  18
ATOM     17  O   UNL     1      37.497 -21.171 -16.713  0.00  0.00    -0.245 OA
ATOM     18  C   UNL     1      37.635 -22.268 -16.166  0.00  0.00    +0.339 C 
BRANCH  18  19
ATOM     19  O   UNL     1      38.835 -22.905 -16.103  0.00  0.00    -0.477 OA
ATOM     20  H   UNL     1      39.587 -22.529 -16.516  0.00  0.00    +0.295 HD
ENDBRANCH  18  19
ENDBRANCH  12  18
ENDBRANCH   8  11
ENDBRANCH   4   9
BRANCH   1  21
ATOM     21  S   UNL     1      36.350 -18.831 -21.355  0.00  0.00    +0.064 S 
ATOM     22  O   UNL     1      36.978 -18.120 -20.262  0.00  0.00    -0.153 OA
ATOM     23  O   UNL     1      37.112 -19.735 -22.191  0.00  0.00    -0.153 OA
BRANCH  21  24
ATOM     24  N   UNL     1      35.526 -17.710 -22.354  0.00  0.00    -0.151 NA
ATOM     25  C   UNL     1      35.731 -17.873 -23.818  0.00  0.00    +0.101 C 
ATOM     26  C   UNL     1      35.628 -16.280 -21.932  0.00  0.00    +0.122 C 
ATOM     27  C   UNL     1      34.599 -17.161 -24.553  0.00  0.00    +0.045 C 
ATOM     28  C   UNL     1      34.901 -15.319 -22.843  0.00  0.00    -0.008 C 
ATOM     29  C   UNL     1      34.440 -15.730 -24.106  0.00  0.00    -0.023 C 
ATOM     30  C   UNL     1      34.721 -13.990 -22.440  0.00  0.00    -0.003 C 
ATOM     31  C   UNL     1      33.776 -14.812 -24.930  0.00  0.00    -0.004 C 
ATOM     32  C   UNL     1      34.068 -13.081 -23.273  0.00  0.00    -0.000 C 
ATOM     33  C   UNL     1      33.594 -13.493 -24.517  0.00  0.00    -0.000 C 
ENDBRANCH  21  24
ENDBRANCH   1  21
TORSDOF 6
ENDMDL
MODEL 2
REMARK VINA RESULT:     -10.8      3.141      9.205
REMARK  Name = 24941254
REMARK  6 active torsions:
REMARK  status: ('A' for Active; 'I' for Inactive)
REMARK    1  A    between atoms: C_1  and  S_21
REMARK    2  A    between atoms: C_4  and  C_9
REMARK    3  A    between atoms: N_8  and  C_11
REMARK    4  A    between atoms: C_12  and  C_18
REMARK    5  A    between atoms: C_18  and  O_19
REMARK    6  A    between atoms: S_21  and  N_24
REMARK                            x       y       z     vdW  Elec       q    Type
REMARK                         _______ _______ _______ _____ _____    ______ ____
ROOT
ATOM      1  C   UNL     1      36.173 -22.951 -15.671  0.00  0.00    +0.122 C 
ATOM      2  C   UNL     1      35.682 -22.701 -16.952  0.00  0.00    +0.024 C 
ATOM      3  C   UNL     1      37.280 -22.244 -15.199  0.00  0.00    +0.020 C 
ATOM      4  C   UNL     1      36.296 -21.746 -17.761  0.00  0.00    +0.055 C 
ATOM      5  C   UNL     1      37.895 -21.289 -16.009  0.00  0.00    +0.002 C 
ATOM      6  C   UNL     1      37.402 -21.040 -17.290  0.00  0.00    +0.005 C 
ENDROOT
BRANCH   4   9
ATOM      7  O   UNL     1      35.242 -22.408 -19.726  0.00  0.00    -0.270 OA
ATOM      8  N   UNL     1      35.928 -20.170 -19.563  0.00  0.00    -0.280 N 
ATOM      9  C   UNL     1      35.783 -21.485 -19.097  0.00  0.00    +0.250 C 
ATOM     10  H   UNL     1      36.380 -19.547 -18.949  0.00  0.00    +0.155 HD
BRANCH   8  11
ATOM     11  C   UNL     1      35.507 -19.621 -20.798  0.00  0.00    +0.057 C 
ATOM     12  C   UNL     1      36.349 -18.792 -21.540  0.00  0.00    +0.089 C 
ATOM     13  C   UNL     1      34.228 -19.919 -21.270  0.00  0.00    +0.015 C 
ATOM     14  C   UNL     1      35.911 -18.263 -22.755  0.00  0.00    +0.008 C 
ATOM     15  C   UNL     1      33.791 -19.388 -22.484  0.00  0.00    +0.001 C 
ATOM     16  C   UNL     1      34.633 -18.561 -23.226  0.00  0.00    +0.000 C 
BRANCH  12  18
ATOM     17  O   UNL     1      38.029 -18.353 -19.897  0.00  0.00    -0.245 OA
ATOM     18  C   UNL     1      37.690 -18.461 -21.077  0.00  0.00    +0.339 C 
BRANCH  18  19
ATOM     19  O   UNL     1      38.561 -18.276 -22.105  0.00  0.00    -0.477 OA
ATOM     20  H   UNL     1      39.380 -17.847 -21.954  0.00  0.00    +0.295 HD
ENDBRANCH  18  19
ENDBRANCH  12  18
ENDBRANCH   8  11
ENDBRANCH   4   9
BRANCH   1  21
ATOM     21  S   UNL     1      35.397 -24.161 -14.646  0.00  0.00    +0.064 S 
ATOM     22  O   UNL     1      35.839 -25.466 -15.091  0.00  0.00    -0.153 OA
ATOM     23  O   UNL     1      35.562 -23.749 -13.268  0.00  0.00    -0.153 OA
BRANCH  21  24
ATOM     24  N   UNL     1      33.762 -23.937 -15.103  0.00  0.00    -0.151 NA
ATOM     25  C   UNL     1      33.343 -22.530 -15.346  0.00  0.00    +0.101 C 
ATOM     26  C   UNL     1      32.760 -24.685 -14.285  0.00  0.00    +0.122 C 
ATOM     27  C   UNL     1      32.070 -22.537 -16.187  0.00  0.00    +0.045 C 
ATOM     28  C   UNL     1      31.329 -24.453 -14.708  0.00  0.00    -0.008 C 
ATOM     29  C   UNL     1      30.996 -23.408 -15.588  0.00  0.00    -0.023 C 
ATOM     30  C   UNL     1      30.314 -25.264 -14.183  0.00  0.00    -0.003 C 
ATOM     31  C   UNL     1      29.657 -23.216 -15.955  0.00  0.00    -0.004 C 
ATOM     32  C   UNL     1      28.983 -25.056 -14.546  0.00  0.00    -0.000 C 
ATOM     33  C   UNL     1      28.656 -24.034 -15.433  0.00  0.00    -0.000 C 
ENDBRANCH  21  24
ENDBRANCH   1  21
TORSDOF 6
ENDMDL
MODEL 3
REMARK VINA RESULT:     -10.8      1.451      2.532
REMARK  Name = 24941254
REMARK  6 active torsions:
REMARK  status: ('A' for Active; 'I' for Inactive)
REMARK    1  A    between atoms: C_1  and  S_21
REMARK    2  A    between atoms: C_4  and  C_9
REMARK    3  A    between atoms: N_8  and  C_11
REMARK    4  A    between atoms: C_12  and  C_18
REMARK    5  A    between atoms: C_18  and  O_19
REMARK    6  A    between atoms: S_21  and  N_24
REMARK                            x       y       z     vdW  Elec       q    Type
REMARK                         _______ _______ _______ _____ _____    ______ ____
ROOT
ATOM      1  C   UNL     1      35.157 -19.491 -21.432  0.00  0.00    +0.122 C 
ATOM      2  C   UNL     1      35.650 -20.257 -20.376  0.00  0.00    +0.024 C 
ATOM      3  C   UNL     1      33.780 -19.399 -21.642  0.00  0.00    +0.020 C 
ATOM      4  C   UNL     1      34.769 -20.932 -19.532  0.00  0.00    +0.055 C 
ATOM      5  C   UNL     1      32.899 -20.073 -20.797  0.00  0.00    +0.002 C 
ATOM      6  C   UNL     1      33.394 -20.840 -19.742  0.00  0.00    +0.005 C 
ENDROOT
BRANCH   4   9
ATOM      7  O   UNL     1      36.498 -21.984 -18.385  0.00  0.00    -0.270 OA
ATOM      8  N   UNL     1      34.341 -22.137 -17.476  0.00  0.00    -0.280 N 
ATOM      9  C   UNL     1      35.284 -21.731 -18.431  0.00  0.00    +0.250 C 
ATOM     10  H   UNL     1      33.412 -21.860 -17.647  0.00  0.00    +0.155 HD
BRANCH   8  11
ATOM     11  C   UNL     1      34.550 -22.892 -16.296  0.00  0.00    +0.057 C 
ATOM     12  C   UNL     1      33.477 -23.459 -15.607  0.00  0.00    +0.089 C 
ATOM     13  C   UNL     1      35.851 -23.065 -15.826  0.00  0.00    +0.015 C 
ATOM     14  C   UNL     1      33.708 -24.200 -14.446  0.00  0.00    +0.008 C 
ATOM     15  C   UNL     1      36.081 -23.805 -14.665  0.00  0.00    +0.001 C 
ATOM     16  C   UNL     1      35.010 -24.371 -13.976  0.00  0.00    +0.000 C 
BRANCH  12  18
ATOM     17  O   UNL     1      31.732 -22.490 -16.923  0.00  0.00    -0.245 OA
ATOM     18  C   UNL     1      32.105 -23.298 -16.071  0.00  0.00    +0.339 C 
BRANCH  18  19
ATOM     19  O   UNL     1      31.247 -24.154 -15.453  0.00  0.00    -0.477 OA
ATOM     20  H   UNL     1      31.581 -24.855 -14.928  0.00  0.00    +0.295 HD
ENDBRANCH  18  19
ENDBRANCH  12  18
ENDBRANCH   8  11
ENDBRANCH   4   9
BRANCH   1  21
ATOM     21  S   UNL     1      36.271 -18.638 -22.503  0.00  0.00    +0.064 S 
ATOM     22  O   UNL     1      37.457 -18.312 -21.738  0.00  0.00    -0.153 OA
ATOM     23  O   UNL     1      36.365 -19.390 -23.737  0.00  0.00    -0.153 OA
BRANCH  21  24
ATOM     24  N   UNL     1      35.377 -17.207 -22.789  0.00  0.00    -0.151 NA
ATOM     25  C   UNL     1      35.590 -16.562 -24.112  0.00  0.00    +0.101 C 
ATOM     26  C   UNL     1      35.386 -16.211 -21.675  0.00  0.00    +0.122 C 
ATOM     27  C   UNL     1      34.414 -15.633 -24.400  0.00  0.00    +0.045 C 
ATOM     28  C   UNL     1      34.598 -14.956 -21.968  0.00  0.00    -0.008 C 
ATOM     29  C   UNL     1      34.164 -14.664 -23.273  0.00  0.00    -0.023 C 
ATOM     30  C   UNL     1      34.332 -14.051 -20.932  0.00  0.00    -0.003 C 
ATOM     31  C   UNL     1      33.441 -13.488 -23.513  0.00  0.00    -0.004 C 
ATOM     32  C   UNL     1      33.622 -12.877 -21.184  0.00  0.00    -0.000 C 
ATOM     33  C   UNL     1      33.175 -12.598 -22.473  0.00  0.00    -0.000 C 
ENDBRANCH  21  24
ENDBRANCH   1  21
TORSDOF 6
ENDMDL
MODEL 4
REMARK VINA RESULT:     -10.7      5.720      9.518
REMARK  Name = 24941254
REMARK  6 active torsions:
REMARK  status: ('A' for Active; 'I' for Inactive)
REMARK    1  A    between atoms: C_1  and  S_21
REMARK    2  A    between atoms: C_4  and  C_9
REMARK    3  A    between atoms: N_8  and  C_11
REMARK    4  A    between atoms: C_12  and  C_18
REMARK    5  A    between atoms: C_18  and  O_19
REMARK    6  A    between atoms: S_21  and  N_24
REMARK                            x       y       z     vdW  Elec       q    Type
REMARK                         _______ _______ _______ _____ _____    ______ ____
ROOT
ATOM      1  C   UNL     1      32.805 -11.413 -22.003  0.00  0.00    +0.122 C 
ATOM      2  C   UNL     1      33.216 -12.657 -21.524  0.00  0.00    +0.024 C 
ATOM      3  C   UNL     1      33.279 -10.949 -23.231  0.00  0.00    +0.020 C 
ATOM      4  C   UNL     1      34.100 -13.436 -22.270  0.00  0.00    +0.055 C 
ATOM      5  C   UNL     1      34.163 -11.728 -23.977  0.00  0.00    +0.002 C 
ATOM      6  C   UNL     1      34.574 -12.972 -23.496  0.00  0.00    +0.005 C 
ENDROOT
BRANCH   4   9
ATOM      7  O   UNL     1      34.553 -14.929 -20.544  0.00  0.00    -0.270 OA
ATOM      8  N   UNL     1      34.861 -15.685 -22.744  0.00  0.00    -0.280 N 
ATOM      9  C   UNL     1      34.528 -14.733 -21.770  0.00  0.00    +0.250 C 
ATOM     10  H   UNL     1      34.793 -15.383 -23.678  0.00  0.00    +0.155 HD
BRANCH   8  11
ATOM     11  C   UNL     1      35.282 -17.025 -22.560  0.00  0.00    +0.057 C 
ATOM     12  C   UNL     1      34.960 -18.013 -23.490  0.00  0.00    +0.089 C 
ATOM     13  C   UNL     1      36.028 -17.350 -21.427  0.00  0.00    +0.015 C 
ATOM     14  C   UNL     1      35.386 -19.326 -23.287  0.00  0.00    +0.008 C 
ATOM     15  C   UNL     1      36.452 -18.663 -21.224  0.00  0.00    +0.001 C 
ATOM     16  C   UNL     1      36.131 -19.651 -22.154  0.00  0.00    +0.000 C 
BRANCH  12  18
ATOM     17  O   UNL     1      33.183 -18.323 -25.060  0.00  0.00    -0.245 OA
ATOM     18  C   UNL     1      34.183 -17.708 -24.685  0.00  0.00    +0.339 C 
BRANCH  18  19
ATOM     19  O   UNL     1      34.683 -16.644 -25.369  0.00  0.00    -0.477 OA
ATOM     20  H   UNL     1      35.446 -16.748 -25.904  0.00  0.00    +0.295 HD
ENDBRANCH  18  19
ENDBRANCH  12  18
ENDBRANCH   8  11
ENDBRANCH   4   9
BRANCH   1  21
ATOM     21  S   UNL     1      31.688 -10.426 -21.058  0.00  0.00    +0.064 S 
ATOM     22  O   UNL     1      30.349 -10.683 -21.547  0.00  0.00    -0.153 OA
ATOM     23  O   UNL     1      32.016 -10.599 -19.659  0.00  0.00    -0.153 OA
BRANCH  21  24
ATOM     24  N   UNL     1      32.176  -8.862 -21.555  0.00  0.00    -0.151 NA
ATOM     25  C   UNL     1      32.329  -7.855 -20.471  0.00  0.00    +0.101 C 
ATOM     26  C   UNL     1      31.445  -8.306 -22.734  0.00  0.00    +0.122 C 
ATOM     27  C   UNL     1      33.206  -6.716 -20.982  0.00  0.00    +0.045 C 
ATOM     28  C   UNL     1      31.892  -6.921 -23.135  0.00  0.00    -0.008 C 
ATOM     29  C   UNL     1      32.704  -6.149 -22.286  0.00  0.00    -0.023 C 
ATOM     30  C   UNL     1      31.458  -6.381 -24.353  0.00  0.00    -0.003 C 
ATOM     31  C   UNL     1      33.096  -4.865 -22.685  0.00  0.00    -0.004 C 
ATOM     32  C   UNL     1      31.844  -5.097 -24.736  0.00  0.00    -0.000 C 
ATOM     33  C   UNL     1      32.665  -4.340 -23.902  0.00  0.00    -0.000 C 
ENDBRANCH  21  24
ENDBRANCH   1  21
TORSDOF 6
ENDMDL
MODEL 5
REMARK VINA RESULT:     -10.6      2.313      9.535
REMARK  Name = 24941254
REMARK  6 active torsions:
REMARK  status: ('A' for Active; 'I' for Inactive)
REMARK    1  A    between atoms: C_1  and  S_21
REMARK    2  A    between atoms: C_4  and  C_9
REMARK    3  A    between atoms: N_8  and  C_11
REMARK    4  A    between atoms: C_12  and  C_18
REMARK    5  A    between atoms: C_18  and  O_19
REMARK    6  A    between atoms: S_21  and  N_24
REMARK                            x       y       z     vdW  Elec       q    Type
REMARK                         _______ _______ _______ _____ _____    ______ ____
ROOT
ATOM      1  C   UNL     1      35.209 -21.514 -19.217  0.00  0.00    +0.122 C 
ATOM      2  C   UNL     1      35.314 -20.532 -20.202  0.00  0.00    +0.024 C 
ATOM      3  C   UNL     1      36.209 -21.641 -18.251  0.00  0.00    +0.020 C 
ATOM      4  C   UNL     1      36.416 -19.678 -20.222  0.00  0.00    +0.055 C 
ATOM      5  C   UNL     1      37.311 -20.786 -18.272  0.00  0.00    +0.002 C 
ATOM      6  C   UNL     1      37.414 -19.805 -19.257  0.00  0.00    +0.005 C 
ENDROOT
BRANCH   4   9
ATOM      7  O   UNL     1      37.635 -18.416 -21.750  0.00  0.00    -0.270 OA
ATOM      8  N   UNL     1      35.326 -18.021 -21.612  0.00  0.00    -0.280 N 
ATOM      9  C   UNL     1      36.524 -18.653 -21.249  0.00  0.00    +0.250 C 
ATOM     10  H   UNL     1      34.523 -18.316 -21.125  0.00  0.00    +0.155 HD
BRANCH   8  11
ATOM     11  C   UNL     1      35.120 -17.016 -22.588  0.00  0.00    +0.057 C 
ATOM     12  C   UNL     1      34.693 -17.342 -23.876  0.00  0.00    +0.089 C 
ATOM     13  C   UNL     1      35.350 -15.684 -22.246  0.00  0.00    +0.015 C 
ATOM     14  C   UNL     1      34.496 -16.334 -24.820  0.00  0.00    +0.008 C 
ATOM     15  C   UNL     1      35.155 -14.677 -23.191  0.00  0.00    +0.001 C 
ATOM     16  C   UNL     1      34.728 -15.002 -24.477  0.00  0.00    +0.000 C 
BRANCH  12  18
ATOM     17  O   UNL     1      35.243 -19.653 -24.149  0.00  0.00    -0.245 OA
ATOM     18  C   UNL     1      34.442 -18.723 -24.267  0.00  0.00    +0.339 C 
BRANCH  18  19
ATOM     19  O   UNL     1      33.198 -18.895 -24.790  0.00  0.00    -0.477 OA
ATOM     20  H   UNL     1      32.863 -18.279 -25.412  0.00  0.00    +0.295 HD
ENDBRANCH  18  19
ENDBRANCH  12  18
ENDBRANCH   8  11
ENDBRANCH   4   9
BRANCH   1  21
ATOM     21  S   UNL     1      33.816 -22.597 -19.192  0.00  0.00    +0.064 S 
ATOM     22  O   UNL     1      32.701 -21.898 -19.796  0.00  0.00    -0.153 OA
ATOM     23  O   UNL     1      34.245 -23.886 -19.692  0.00  0.00    -0.153 OA
BRANCH  21  24
ATOM     24  N   UNL     1      33.557 -22.713 -17.503  0.00  0.00    -0.151 NA
ATOM     25  C   UNL     1      34.436 -23.668 -16.776  0.00  0.00    +0.101 C 
ATOM     26  C   UNL     1      32.129 -22.836 -17.081  0.00  0.00    +0.122 C 
ATOM     27  C   UNL     1      34.428 -23.308 -15.293  0.00  0.00    +0.045 C 
ATOM     28  C   UNL     1      31.939 -22.950 -15.587  0.00  0.00    -0.008 C 
ATOM     29  C   UNL     1      33.030 -23.208 -14.738  0.00  0.00    -0.023 C 
ATOM     30  C   UNL     1      30.653 -22.837 -15.044  0.00  0.00    -0.003 C 
ATOM     31  C   UNL     1      32.819 -23.314 -13.356  0.00  0.00    -0.004 C 
ATOM     32  C   UNL     1      30.452 -22.956 -13.668  0.00  0.00    -0.000 C 
ATOM     33  C   UNL     1      31.536 -23.193 -12.826  0.00  0.00    -0.000 C 
ENDBRANCH  21  24
ENDBRANCH   1  21
TORSDOF 6
ENDMDL
MODEL 6
REMARK VINA RESULT:     -10.5      4.701     11.569
REMARK  Name = 24941254
REMARK  6 active torsions:
REMARK  status: ('A' for Active; 'I' for Inactive)
REMARK    1  A    between atoms: C_1  and  S_21
REMARK    2  A    between atoms: C_4  and  C_9
REMARK    3  A    between atoms: N_8  and  C_11
REMARK    4  A    between atoms: C_12  and  C_18
REMARK    5  A    between atoms: C_18  and  O_19
REMARK    6  A    between atoms: S_21  and  N_24
REMARK                            x       y       z     vdW  Elec       q    Type
REMARK                         _______ _______ _______ _____ _____    ______ ____
ROOT
ATOM      1  C   UNL     1      34.582 -15.071 -23.183  0.00  0.00    +0.122 C 
ATOM      2  C   UNL     1      34.484 -13.859 -23.866  0.00  0.00    +0.024 C 
ATOM      3  C   UNL     1      34.537 -15.090 -21.788  0.00  0.00    +0.020 C 
ATOM      4  C   UNL     1      34.340 -12.668 -23.156  0.00  0.00    +0.055 C 
ATOM      5  C   UNL     1      34.393 -13.898 -21.078  0.00  0.00    +0.002 C 
ATOM      6  C   UNL     1      34.295 -12.687 -21.763  0.00  0.00    +0.005 C 
ENDROOT
BRANCH   4   9
ATOM      7  O   UNL     1      33.932 -11.413 -25.072  0.00  0.00    -0.270 OA
ATOM      8  N   UNL     1      34.475 -10.250 -23.109  0.00  0.00    -0.280 N 
ATOM      9  C   UNL     1      34.237 -11.404 -23.869  0.00  0.00    +0.250 C 
ATOM     10  H   UNL     1      34.708 -10.402 -22.164  0.00  0.00    +0.155 HD
BRANCH   8  11
ATOM     11  C   UNL     1      34.421  -8.896 -23.520  0.00  0.00    +0.057 C 
ATOM     12  C   UNL     1      33.364  -8.071 -23.138  0.00  0.00    +0.089 C 
ATOM     13  C   UNL     1      35.448  -8.391 -24.318  0.00  0.00    +0.015 C 
ATOM     14  C   UNL     1      33.333  -6.739 -23.556  0.00  0.00    +0.008 C 
ATOM     15  C   UNL     1      35.416  -7.061 -24.736  0.00  0.00    +0.001 C 
ATOM     16  C   UNL     1      34.359  -6.235 -24.355  0.00  0.00    +0.000 C 
BRANCH  12  18
ATOM     17  O   UNL     1      31.624  -9.591 -22.518  0.00  0.00    -0.245 OA
ATOM     18  C   UNL     1      32.275  -8.566 -22.305  0.00  0.00    +0.339 C 
BRANCH  18  19
ATOM     19  O   UNL     1      32.039  -7.762 -21.233  0.00  0.00    -0.477 OA
ATOM     20  H   UNL     1      31.693  -8.127 -20.442  0.00  0.00    +0.295 HD
ENDBRANCH  18  19
ENDBRANCH  12  18
ENDBRANCH   8  11
ENDBRANCH   4   9
BRANCH   1  21
ATOM     21  S   UNL     1      34.766 -16.580 -24.080  0.00  0.00    +0.064 S 
ATOM     22  O   UNL     1      33.452 -16.993 -24.525  0.00  0.00    -0.153 OA
ATOM     23  O   UNL     1      35.851 -16.408 -25.023  0.00  0.00    -0.153 OA
BRANCH  21  24
ATOM     24  N   UNL     1      35.283 -17.618 -22.820  0.00  0.00    -0.151 NA
ATOM     25  C   UNL     1      36.621 -18.242 -23.002  0.00  0.00    +0.101 C 
ATOM     26  C   UNL     1      34.267 -18.604 -22.343  0.00  0.00    +0.122 C 
ATOM     27  C   UNL     1      37.131 -18.712 -21.643  0.00  0.00    +0.045 C 
ATOM     28  C   UNL     1      34.762 -19.510 -21.241  0.00  0.00    -0.008 C 
ATOM     29  C   UNL     1      36.131 -19.587 -20.930  0.00  0.00    -0.023 C 
ATOM     30  C   UNL     1      33.850 -20.316 -20.548  0.00  0.00    -0.003 C 
ATOM     31  C   UNL     1      36.559 -20.443 -19.906  0.00  0.00    -0.004 C 
ATOM     32  C   UNL     1      34.287 -21.173 -19.539  0.00  0.00    -0.000 C 
ATOM     33  C   UNL     1      35.641 -21.235 -19.217  0.00  0.00    -0.000 C 
ENDBRANCH  21  24
ENDBRANCH   1  21
TORSDOF 6
ENDMDL
MODEL 7
REMARK VINA RESULT:     -10.4      3.715      9.393
REMARK  Name = 24941254
REMARK  6 active torsions:
REMARK  status: ('A' for Active; 'I' for Inactive)
REMARK    1  A    between atoms: C_1  and  S_21
REMARK    2  A    between atoms: C_4  and  C_9
REMARK    3  A    between atoms: N_8  and  C_11
REMARK    4  A    between atoms: C_12  and  C_18
REMARK    5  A    between atoms: C_18  and  O_19
REMARK    6  A    between atoms: S_21  and  N_24
REMARK                            x       y       z     vdW  Elec       q    Type
REMARK                         _______ _______ _______ _____ _____    ______ ____
ROOT
ATOM      1  C   UNL     1      36.885 -23.675 -14.301  0.00  0.00    +0.122 C 
ATOM      2  C   UNL     1      36.578 -22.674 -15.222  0.00  0.00    +0.024 C 
ATOM      3  C   UNL     1      38.122 -24.318 -14.358  0.00  0.00    +0.020 C 
ATOM      4  C   UNL     1      37.506 -22.316 -16.200  0.00  0.00    +0.055 C 
ATOM      5  C   UNL     1      39.051 -23.961 -15.336  0.00  0.00    +0.002 C 
ATOM      6  C   UNL     1      38.742 -22.959 -16.257  0.00  0.00    +0.005 C 
ENDROOT
BRANCH   4   9
ATOM      7  O   UNL     1      37.652 -20.133 -16.991  0.00  0.00    -0.270 OA
ATOM      8  N   UNL     1      36.376 -21.658 -18.237  0.00  0.00    -0.280 N 
ATOM      9  C   UNL     1      37.186 -21.272 -17.160  0.00  0.00    +0.250 C 
ATOM     10  H   UNL     1      36.083 -22.597 -18.237  0.00  0.00    +0.155 HD
BRANCH   8  11
ATOM     11  C   UNL     1      35.927 -20.874 -19.328  0.00  0.00    +0.057 C 
ATOM     12  C   UNL     1      34.598 -20.927 -19.752  0.00  0.00    +0.089 C 
ATOM     13  C   UNL     1      36.834 -20.041 -19.981  0.00  0.00    +0.015 C 
ATOM     14  C   UNL     1      34.179 -20.145 -20.829  0.00  0.00    +0.008 C 
ATOM     15  C   UNL     1      36.415 -19.261 -21.059  0.00  0.00    +0.001 C 
ATOM     16  C   UNL     1      35.087 -19.313 -21.482  0.00  0.00    +0.000 C 
BRANCH  12  18
ATOM     17  O   UNL     1      32.558 -21.408 -18.600  0.00  0.00    -0.245 OA
ATOM     18  C   UNL     1      33.624 -21.786 -19.091  0.00  0.00    +0.339 C 
BRANCH  18  19
ATOM     19  O   UNL     1      34.015 -23.088 -19.067  0.00  0.00    -0.477 OA
ATOM     20  H   UNL     1      34.914 -23.304 -18.911  0.00  0.00    +0.295 HD
ENDBRANCH  18  19
ENDBRANCH  12  18
ENDBRANCH   8  11
ENDBRANCH   4   9
BRANCH   1  21
ATOM     21  S   UNL     1      35.710 -24.130 -13.065  0.00  0.00    +0.064 S 
ATOM     22  O   UNL     1      35.938 -25.520 -12.729  0.00  0.00    -0.153 OA
ATOM     23  O   UNL     1      35.721 -23.105 -12.042  0.00  0.00    -0.153 OA
BRANCH  21  24
ATOM     24  N   UNL     1      34.261 -24.001 -13.967  0.00  0.00    -0.151 NA
ATOM     25  C   UNL     1      33.971 -22.660 -14.542  0.00  0.00    +0.101 C 
ATOM     26  C   UNL     1      33.053 -24.608 -13.330  0.00  0.00    +0.122 C 
ATOM     27  C   UNL     1      32.962 -22.821 -15.675  0.00  0.00    +0.045 C 
ATOM     28  C   UNL     1      31.791 -24.464 -14.147  0.00  0.00    -0.008 C 
ATOM     29  C   UNL     1      31.738 -23.587 -15.244  0.00  0.00    -0.023 C 
ATOM     30  C   UNL     1      30.646 -25.183 -13.781  0.00  0.00    -0.003 C 
ATOM     31  C   UNL     1      30.549 -23.471 -15.978  0.00  0.00    -0.004 C 
ATOM     32  C   UNL     1      29.464 -25.051 -14.510  0.00  0.00    -0.000 C 
ATOM     33  C   UNL     1      29.417 -24.197 -15.610  0.00  0.00    -0.000 C 
ENDBRANCH  21  24
ENDBRANCH   1  21
TORSDOF 6
ENDMDL
MODEL 8
REMARK VINA RESULT:     -10.3      7.291     11.415
REMARK  Name = 24941254
REMARK  6 active torsions:
REMARK  status: ('A' for Active; 'I' for Inactive)
REMARK    1  A    between atoms: C_1  and  S_21
REMARK    2  A    between atoms: C_4  and  C_9
REMARK    3  A    between atoms: N_8  and  C_11
REMARK    4  A    between atoms: C_12  and  C_18
REMARK    5  A    between atoms: C_18  and  O_19
REMARK    6  A    between atoms: S_21  and  N_24
REMARK                            x       y       z     vdW  Elec       q    Type
REMARK                         _______ _______ _______ _____ _____    ______ ____
ROOT
ATOM      1  C   UNL     1      32.226  -8.384 -20.545  0.00  0.00    +0.122 C 
ATOM      2  C   UNL     1      32.748  -9.180 -21.565  0.00  0.00    +0.024 C 
ATOM      3  C   UNL     1      31.489  -8.968 -19.514  0.00  0.00    +0.020 C 
ATOM      4  C   UNL     1      32.532 -10.558 -21.554  0.00  0.00    +0.055 C 
ATOM      5  C   UNL     1      31.274 -10.346 -19.503  0.00  0.00    +0.002 C 
ATOM      6  C   UNL     1      31.796 -11.140 -20.524  0.00  0.00    +0.005 C 
ENDROOT
BRANCH   4   9
ATOM      7  O   UNL     1      33.459 -10.848 -23.669  0.00  0.00    -0.270 OA
ATOM      8  N   UNL     1      33.148 -12.761 -22.347  0.00  0.00    -0.280 N 
ATOM      9  C   UNL     1      33.077 -11.387 -22.618  0.00  0.00    +0.250 C 
ATOM     10  H   UNL     1      32.806 -13.042 -21.468  0.00  0.00    +0.155 HD
BRANCH   8  11
ATOM     11  C   UNL     1      33.649 -13.798 -23.171  0.00  0.00    +0.057 C 
ATOM     12  C   UNL     1      34.459 -14.806 -22.646  0.00  0.00    +0.089 C 
ATOM     13  C   UNL     1      33.322 -13.801 -24.527  0.00  0.00    +0.015 C 
ATOM     14  C   UNL     1      34.940 -15.817 -23.478  0.00  0.00    +0.008 C 
ATOM     15  C   UNL     1      33.806 -14.812 -25.359  0.00  0.00    +0.001 C 
ATOM     16  C   UNL     1      34.614 -15.819 -24.834  0.00  0.00    +0.000 C 
BRANCH  12  18
ATOM     17  O   UNL     1      34.826 -13.856 -20.482  0.00  0.00    -0.245 OA
ATOM     18  C   UNL     1      34.819 -14.833 -21.234  0.00  0.00    +0.339 C 
BRANCH  18  19
ATOM     19  O   UNL     1      35.159 -16.080 -20.811  0.00  0.00    -0.477 OA
ATOM     20  H   UNL     1      35.465 -16.716 -21.427  0.00  0.00    +0.295 HD
ENDBRANCH  18  19
ENDBRANCH  12  18
ENDBRANCH   8  11
ENDBRANCH   4   9
BRANCH   1  21
ATOM     21  S   UNL     1      32.496  -6.639 -20.559  0.00  0.00    +0.064 S 
ATOM     22  O   UNL     1      31.204  -5.993 -20.655  0.00  0.00    -0.153 OA
ATOM     23  O   UNL     1      33.409  -6.322 -19.480  0.00  0.00    -0.153 OA
BRANCH  21  24
ATOM     24  N   UNL     1      33.319  -6.475 -22.051  0.00  0.00    -0.151 NA
ATOM     25  C   UNL     1      34.763  -6.831 -22.038  0.00  0.00    +0.101 C 
ATOM     26  C   UNL     1      33.065  -5.198 -22.786  0.00  0.00    +0.122 C 
ATOM     27  C   UNL     1      35.213  -7.101 -23.471  0.00  0.00    +0.045 C 
ATOM     28  C   UNL     1      33.817  -5.082 -24.090  0.00  0.00    -0.008 C 
ATOM     29  C   UNL     1      34.863  -5.968 -24.402  0.00  0.00    -0.023 C 
ATOM     30  C   UNL     1      33.495  -4.052 -24.983  0.00  0.00    -0.003 C 
ATOM     31  C   UNL     1      35.546  -5.829 -25.618  0.00  0.00    -0.004 C 
ATOM     32  C   UNL     1      34.189  -3.915 -26.185  0.00  0.00    -0.000 C 
ATOM     33  C   UNL     1      35.212  -4.805 -26.503  0.00  0.00    -0.000 C 
ENDBRANCH  21  24
ENDBRANCH   1  21
TORSDOF 6
ENDMDL
MODEL 9
REMARK VINA RESULT:     -10.2      5.677      9.549
REMARK  Name = 24941254
REMARK  6 active torsions:
REMARK  status: ('A' for Active; 'I' for Inactive)
REMARK    1  A    between atoms: C_1  and  S_21
REMARK    2  A    between atoms: C_4  and  C_9
REMARK    3  A    between atoms: N_8  and  C_11
REMARK    4  A    between atoms: C_12  and  C_18
REMARK    5  A    between atoms: C_18  and  O_19
REMARK    6  A    between atoms: S_21  and  N_24
REMARK                            x       y       z     vdW  Elec       q    Type
REMARK                         _______ _______ _______ _____ _____    ______ ____
ROOT
ATOM      1  C   UNL     1      32.965 -11.580 -22.746  0.00  0.00    +0.122 C 
ATOM      2  C   UNL     1      33.043 -12.931 -23.086  0.00  0.00    +0.024 C 
ATOM      3  C   UNL     1      33.643 -10.629 -23.511  0.00  0.00    +0.020 C 
ATOM      4  C   UNL     1      33.798 -13.330 -24.189  0.00  0.00    +0.055 C 
ATOM      5  C   UNL     1      34.397 -11.029 -24.614  0.00  0.00    +0.002 C 
ATOM      6  C   UNL     1      34.475 -12.380 -24.952  0.00  0.00    +0.005 C 
ENDROOT
BRANCH   4   9
ATOM      7  O   UNL     1      33.434 -15.111 -25.641  0.00  0.00    -0.270 OA
ATOM      8  N   UNL     1      34.491 -15.574 -23.598  0.00  0.00    -0.280 N 
ATOM      9  C   UNL     1      33.879 -14.739 -24.543  0.00  0.00    +0.250 C 
ATOM     10  H   UNL     1      34.795 -15.134 -22.771  0.00  0.00    +0.155 HD
BRANCH   8  11
ATOM     11  C   UNL     1      34.732 -16.967 -23.676  0.00  0.00    +0.057 C 
ATOM     12  C   UNL     1      35.269 -17.666 -22.595  0.00  0.00    +0.089 C 
ATOM     13  C   UNL     1      34.424 -17.641 -24.858  0.00  0.00    +0.015 C 
ATOM     14  C   UNL     1      35.497 -19.039 -22.696  0.00  0.00    +0.008 C 
ATOM     15  C   UNL     1      34.654 -19.013 -24.959  0.00  0.00    +0.001 C 
ATOM     16  C   UNL     1      35.190 -19.711 -23.878  0.00  0.00    +0.000 C 
BRANCH  12  18
ATOM     17  O   UNL     1      35.153 -15.903 -20.982  0.00  0.00    -0.245 OA
ATOM     18  C   UNL     1      35.601 -16.993 -21.345  0.00  0.00    +0.339 C 
BRANCH  18  19
ATOM     19  O   UNL     1      36.482 -17.706 -20.593  0.00  0.00    -0.477 OA
ATOM     20  H   UNL     1      36.855 -18.496 -20.932  0.00  0.00    +0.295 HD
ENDBRANCH  18  19
ENDBRANCH  12  18
ENDBRANCH   8  11
ENDBRANCH   4   9
BRANCH   1  21
ATOM     21  S   UNL     1      32.012 -11.073 -21.350  0.00  0.00    +0.064 S 
ATOM     22  O   UNL     1      30.620 -11.340 -21.644  0.00  0.00    -0.153 OA
ATOM     23  O   UNL     1      32.640 -11.614 -20.162  0.00  0.00    -0.153 OA
BRANCH  21  24
ATOM     24  N   UNL     1      32.282  -9.383 -21.400  0.00  0.00    -0.151 NA
ATOM     25  C   UNL     1      32.230  -8.678 -20.091  0.00  0.00    +0.101 C 
ATOM     26  C   UNL     1      31.532  -8.645 -22.462  0.00  0.00    +0.122 C 
ATOM     27  C   UNL     1      32.948  -7.339 -20.227  0.00  0.00    +0.045 C 
ATOM     28  C   UNL     1      31.784  -7.156 -22.467  0.00  0.00    -0.008 C 
ATOM     29  C   UNL     1      32.429  -6.528 -21.387  0.00  0.00    -0.023 C 
ATOM     30  C   UNL     1      31.332  -6.384 -23.545  0.00  0.00    -0.003 C 
ATOM     31  C   UNL     1      32.642  -5.144 -21.421  0.00  0.00    -0.004 C 
ATOM     32  C   UNL     1      31.538  -5.004 -23.563  0.00  0.00    -0.000 C 
ATOM     33  C   UNL     1      32.194  -4.386 -22.502  0.00  0.00    -0.000 C 
ENDBRANCH  21  24
ENDBRANCH   1  21
TORSDOF 6
ENDMDL
