MODEL 1
REMARK VINA RESULT:     -12.0      0.000      0.000
REMARK  Name = 60149
REMARK  5 active torsions:
REMARK  status: ('A' for Active; 'I' for Inactive)
REMARK    1  A    between atoms: N_2  and  C_12
REMARK    2  A    between atoms: C_3  and  C_19
REMARK    3  A    between atoms: N_18  and  C_25
REMARK    4  A    between atoms: C_25  and  C_26
REMARK    5  A    between atoms: C_26  and  N_28
REMARK                            x       y       z     vdW  Elec       q    Type
REMARK                         _______ _______ _______ _____ _____    ______ ____
ROOT
ATOM      1 CL   UNL     1      29.235 -22.832 -16.141  0.00  0.00    -0.082 Cl
ATOM      2  N   UNL     1      35.027 -23.316 -15.543  0.00  0.00    -0.265 N 
ATOM      3  C   UNL     1      34.357 -22.472 -17.477  0.00  0.00    -0.006 C 
ATOM      4  C   UNL     1      33.203 -22.755 -16.699  0.00  0.00    +0.012 C 
ATOM      5  C   UNL     1      35.462 -22.825 -16.744  0.00  0.00    +0.065 C 
ATOM      6  C   UNL     1      33.651 -23.285 -15.488  0.00  0.00    +0.055 C 
ATOM      7  C   UNL     1      31.817 -22.613 -16.906  0.00  0.00    +0.012 C 
ATOM      8  C   UNL     1      32.778 -23.681 -14.468  0.00  0.00    +0.016 C 
ATOM      9  C   UNL     1      30.932 -23.005 -15.896  0.00  0.00    +0.058 C 
ATOM     10  C   UNL     1      31.408 -23.531 -14.696  0.00  0.00    +0.013 C 
ENDROOT
BRANCH   2  12
ATOM     11  F   UNL     1      38.370 -25.127 -11.552  0.00  0.00    -0.204 F 
ATOM     12  C   UNL     1      35.874 -23.775 -14.531  0.00  0.00    +0.056 C 
ATOM     13  C   UNL     1      36.232 -25.115 -14.495  0.00  0.00    +0.017 C 
ATOM     14  C   UNL     1      36.344 -22.883 -13.578  0.00  0.00    +0.017 C 
ATOM     15  C   UNL     1      37.077 -25.574 -13.484  0.00  0.00    +0.031 C 
ATOM     16  C   UNL     1      37.190 -23.342 -12.567  0.00  0.00    +0.031 C 
ATOM     17  C   UNL     1      37.557 -24.687 -12.521  0.00  0.00    +0.140 C 
ENDBRANCH   2  12
BRANCH   3  19
ATOM     18  N   UNL     1      34.498 -19.649 -20.765  0.00  0.00    +0.388 N 
ATOM     19  C   UNL     1      34.376 -21.884 -18.870  0.00  0.00    +0.019 C 
ATOM     20  C   UNL     1      33.173 -20.968 -19.145  0.00  0.00    -0.018 C 
ATOM     21  C   UNL     1      35.682 -21.136 -19.182  0.00  0.00    -0.018 C 
ATOM     22  C   UNL     1      33.237 -20.374 -20.554  0.00  0.00    -0.077 C 
ATOM     23  C   UNL     1      35.656 -20.534 -20.589  0.00  0.00    -0.077 C 
ATOM     24  H   UNL     1      34.557 -18.910 -20.065  0.00  0.00    -0.080 HD
BRANCH  18  25
ATOM     25  C   UNL     1      34.519 -19.038 -22.095  0.00  0.00    -0.055 C 
BRANCH  25  26
ATOM     26  C   UNL     1      35.695 -18.081 -22.218  0.00  0.00    +0.077 C 
BRANCH  26  28
ATOM     27  O   UNL     1      34.975 -17.663 -25.107  0.00  0.00    -0.252 OA
ATOM     28  N   UNL     1      35.315 -16.877 -22.908  0.00  0.00    -0.243 N 
ATOM     29  N   UNL     1      34.649 -15.424 -24.507  0.00  0.00    -0.266 N 
ATOM     30  C   UNL     1      35.144 -15.608 -22.222  0.00  0.00    +0.085 C 
ATOM     31  C   UNL     1      34.811 -14.617 -23.325  0.00  0.00    +0.082 C 
ATOM     32  C   UNL     1      34.982 -16.767 -24.272  0.00  0.00    +0.311 C 
ATOM     33  H   UNL     1      34.342 -15.075 -25.375  0.00  0.00    +0.157 HD
ENDBRANCH  26  28
ENDBRANCH  25  26
ENDBRANCH  18  25
ENDBRANCH   3  19
TORSDOF 5
ENDMDL
MODEL 2
REMARK VINA RESULT:     -11.1      2.897      4.460
REMARK  Name = 60149
REMARK  5 active torsions:
REMARK  status: ('A' for Active; 'I' for Inactive)
REMARK    1  A    between atoms: N_2  and  C_12
REMARK    2  A    between atoms: C_3  and  C_19
REMARK    3  A    between atoms: N_18  and  C_25
REMARK    4  A    between atoms: C_25  and  C_26
REMARK    5  A    between atoms: C_26  and  N_28
REMARK                            x       y       z     vdW  Elec       q    Type
REMARK                         _______ _______ _______ _____ _____    ______ ____
ROOT
ATOM      1 CL   UNL     1      38.604 -23.035 -15.360  0.00  0.00    -0.082 Cl
ATOM      2  N   UNL     1      32.974 -22.751 -16.895  0.00  0.00    -0.265 N 
ATOM      3  C   UNL     1      34.385 -21.883 -18.364  0.00  0.00    -0.006 C 
ATOM      4  C   UNL     1      35.142 -22.372 -17.266  0.00  0.00    +0.012 C 
ATOM      5  C   UNL     1      33.059 -22.128 -18.111  0.00  0.00    +0.065 C 
ATOM      6  C   UNL     1      34.231 -22.914 -16.357  0.00  0.00    +0.055 C 
ATOM      7  C   UNL     1      36.516 -22.409 -16.955  0.00  0.00    +0.012 C 
ATOM      8  C   UNL     1      34.628 -23.493 -15.146  0.00  0.00    +0.016 C 
ATOM      9  C   UNL     1      36.926 -22.985 -15.747  0.00  0.00    +0.058 C 
ATOM     10  C   UNL     1      35.995 -23.518 -14.858  0.00  0.00    +0.013 C 
ENDROOT
BRANCH   2  12
ATOM     11  F   UNL     1      28.241 -24.356 -14.572  0.00  0.00    -0.204 F 
ATOM     12  C   UNL     1      31.774 -23.158 -16.306  0.00  0.00    +0.056 C 
ATOM     13  C   UNL     1      30.628 -22.401 -16.499  0.00  0.00    +0.017 C 
ATOM     14  C   UNL     1      31.749 -24.313 -15.538  0.00  0.00    +0.017 C 
ATOM     15  C   UNL     1      29.430 -22.806 -15.910  0.00  0.00    +0.031 C 
ATOM     16  C   UNL     1      30.551 -24.719 -14.949  0.00  0.00    +0.031 C 
ATOM     17  C   UNL     1      29.391 -23.966 -15.136  0.00  0.00    +0.140 C 
ENDBRANCH   2  12
BRANCH   3  19
ATOM     18  N   UNL     1      35.817 -18.861 -21.125  0.00  0.00    +0.388 N 
ATOM     19  C   UNL     1      34.936 -21.206 -19.600  0.00  0.00    +0.019 C 
ATOM     20  C   UNL     1      33.947 -20.205 -20.219  0.00  0.00    -0.018 C 
ATOM     21  C   UNL     1      36.286 -20.517 -19.348  0.00  0.00    -0.018 C 
ATOM     22  C   UNL     1      34.546 -19.523 -21.452  0.00  0.00    -0.077 C 
ATOM     23  C   UNL     1      36.800 -19.823 -20.612  0.00  0.00    -0.077 C 
ATOM     24  H   UNL     1      35.635 -18.175 -20.393  0.00  0.00    -0.080 HD
BRANCH  18  25
ATOM     25  C   UNL     1      36.347 -18.166 -22.300  0.00  0.00    -0.055 C 
BRANCH  25  26
ATOM     26  C   UNL     1      35.242 -17.937 -23.321  0.00  0.00    +0.077 C 
BRANCH  26  28
ATOM     27  O   UNL     1      33.791 -16.469 -25.506  0.00  0.00    -0.252 OA
ATOM     28  N   UNL     1      34.921 -16.540 -23.435  0.00  0.00    -0.243 N 
ATOM     29  N   UNL     1      34.109 -14.566 -24.181  0.00  0.00    -0.266 N 
ATOM     30  C   UNL     1      35.218 -15.585 -22.382  0.00  0.00    +0.085 C 
ATOM     31  C   UNL     1      34.773 -14.244 -22.943  0.00  0.00    +0.082 C 
ATOM     32  C   UNL     1      34.224 -15.929 -24.495  0.00  0.00    +0.311 C 
ATOM     33  H   UNL     1      33.632 -13.909 -24.738  0.00  0.00    +0.157 HD
ENDBRANCH  26  28
ENDBRANCH  25  26
ENDBRANCH  18  25
ENDBRANCH   3  19
TORSDOF 5
ENDMDL
MODEL 3
REMARK VINA RESULT:     -10.5      5.870      9.671
REMARK  Name = 60149
REMARK  5 active torsions:
REMARK  status: ('A' for Active; 'I' for Inactive)
REMARK    1  A    between atoms: N_2  and  C_12
REMARK    2  A    between atoms: C_3  and  C_19
REMARK    3  A    between atoms: N_18  and  C_25
REMARK    4  A    between atoms: C_25  and  C_26
REMARK    5  A    between atoms: C_26  and  N_28
REMARK                            x       y       z     vdW  Elec       q    Type
REMARK                         _______ _______ _______ _____ _____    ______ ____
ROOT
ATOM      1 CL   UNL     1      36.251 -21.593 -19.515  0.00  0.00    -0.082 Cl
ATOM      2  N   UNL     1      32.083 -23.135 -15.722  0.00  0.00    -0.265 N 
ATOM      3  C   UNL     1      34.137 -23.725 -15.140  0.00  0.00    -0.006 C 
ATOM      4  C   UNL     1      34.211 -23.049 -16.387  0.00  0.00    +0.012 C 
ATOM      5  C   UNL     1      32.820 -23.764 -14.755  0.00  0.00    +0.065 C 
ATOM      6  C   UNL     1      32.907 -22.687 -16.730  0.00  0.00    +0.055 C 
ATOM      7  C   UNL     1      35.263 -22.706 -17.260  0.00  0.00    +0.012 C 
ATOM      8  C   UNL     1      32.600 -21.997 -17.909  0.00  0.00    +0.016 C 
ATOM      9  C   UNL     1      34.970 -22.017 -18.442  0.00  0.00    +0.058 C 
ATOM     10  C   UNL     1      33.659 -21.669 -18.760  0.00  0.00    +0.013 C 
ENDROOT
BRANCH   2  12
ATOM     11  F   UNL     1      26.610 -22.516 -15.519  0.00  0.00    -0.204 F 
ATOM     12  C   UNL     1      30.696 -22.978 -15.670  0.00  0.00    +0.056 C 
ATOM     13  C   UNL     1      29.896 -23.674 -16.565  0.00  0.00    +0.017 C 
ATOM     14  C   UNL     1      30.140 -22.127 -14.725  0.00  0.00    +0.017 C 
ATOM     15  C   UNL     1      28.511 -23.517 -16.515  0.00  0.00    +0.031 C 
ATOM     16  C   UNL     1      28.755 -21.970 -14.675  0.00  0.00    +0.031 C 
ATOM     17  C   UNL     1      27.940 -22.665 -15.569  0.00  0.00    +0.140 C 
ENDBRANCH   2  12
BRANCH   3  19
ATOM     18  N   UNL     1      38.125 -25.017 -14.031  0.00  0.00    +0.388 N 
ATOM     19  C   UNL     1      35.299 -24.305 -14.366  0.00  0.00    +0.019 C 
ATOM     20  C   UNL     1      35.934 -25.517 -15.067  0.00  0.00    -0.018 C 
ATOM     21  C   UNL     1      36.381 -23.262 -14.047  0.00  0.00    -0.018 C 
ATOM     22  C   UNL     1      37.119 -26.063 -14.268  0.00  0.00    -0.077 C 
ATOM     23  C   UNL     1      37.552 -23.889 -13.286  0.00  0.00    -0.077 C 
ATOM     24  H   UNL     1      38.437 -24.670 -14.937  0.00  0.00    -0.080 HD
BRANCH  18  25
ATOM     25  C   UNL     1      39.277 -25.569 -13.317  0.00  0.00    -0.055 C 
BRANCH  25  26
ATOM     26  C   UNL     1      40.522 -25.496 -14.187  0.00  0.00    +0.077 C 
BRANCH  26  28
ATOM     27  O   UNL     1      42.291 -27.716 -13.199  0.00  0.00    -0.252 OA
ATOM     28  N   UNL     1      40.817 -26.772 -14.781  0.00  0.00    -0.243 N 
ATOM     29  N   UNL     1      41.630 -28.852 -15.136  0.00  0.00    -0.266 N 
ATOM     30  C   UNL     1      40.185 -27.223 -16.009  0.00  0.00    +0.085 C 
ATOM     31  C   UNL     1      40.827 -28.571 -16.298  0.00  0.00    +0.082 C 
ATOM     32  C   UNL     1      41.655 -27.768 -14.244  0.00  0.00    +0.311 C 
ATOM     33  H   UNL     1      42.105 -29.701 -14.987  0.00  0.00    +0.157 HD
ENDBRANCH  26  28
ENDBRANCH  25  26
ENDBRANCH  18  25
ENDBRANCH   3  19
TORSDOF 5
ENDMDL
MODEL 4
REMARK VINA RESULT:     -10.2      3.228      4.987
REMARK  Name = 60149
REMARK  5 active torsions:
REMARK  status: ('A' for Active; 'I' for Inactive)
REMARK    1  A    between atoms: N_2  and  C_12
REMARK    2  A    between atoms: C_3  and  C_19
REMARK    3  A    between atoms: N_18  and  C_25
REMARK    4  A    between atoms: C_25  and  C_26
REMARK    5  A    between atoms: C_26  and  N_28
REMARK                            x       y       z     vdW  Elec       q    Type
REMARK                         _______ _______ _______ _____ _____    ______ ____
ROOT
ATOM      1 CL   UNL     1      36.506 -24.828 -14.637  0.00  0.00    -0.082 Cl
ATOM      2  N   UNL     1      31.513 -22.525 -16.613  0.00  0.00    -0.265 N 
ATOM      3  C   UNL     1      33.276 -22.179 -17.908  0.00  0.00    -0.006 C 
ATOM      4  C   UNL     1      33.701 -22.932 -16.781  0.00  0.00    +0.012 C 
ATOM      5  C   UNL     1      31.930 -21.943 -17.779  0.00  0.00    +0.065 C 
ATOM      6  C   UNL     1      32.574 -23.137 -15.983  0.00  0.00    +0.055 C 
ATOM      7  C   UNL     1      34.937 -23.462 -16.360  0.00  0.00    +0.012 C 
ATOM      8  C   UNL     1      32.621 -23.849 -14.779  0.00  0.00    +0.016 C 
ATOM      9  C   UNL     1      34.999 -24.176 -15.158  0.00  0.00    +0.058 C 
ATOM     10  C   UNL     1      33.858 -24.365 -14.381  0.00  0.00    +0.013 C 
ENDROOT
BRANCH   2  12
ATOM     11  F   UNL     1      26.316 -22.402 -14.784  0.00  0.00    -0.204 F 
ATOM     12  C   UNL     1      30.196 -22.494 -16.149  0.00  0.00    +0.056 C 
ATOM     13  C   UNL     1      29.165 -22.880 -16.994  0.00  0.00    +0.017 C 
ATOM     14  C   UNL     1      29.939 -22.076 -14.851  0.00  0.00    +0.017 C 
ATOM     15  C   UNL     1      27.849 -22.848 -16.531  0.00  0.00    +0.031 C 
ATOM     16  C   UNL     1      28.623 -22.044 -14.388  0.00  0.00    +0.031 C 
ATOM     17  C   UNL     1      27.578 -22.431 -15.228  0.00  0.00    +0.140 C 
ENDBRANCH   2  12
BRANCH   3  19
ATOM     18  N   UNL     1      35.700 -19.689 -20.502  0.00  0.00    +0.388 N 
ATOM     19  C   UNL     1      34.147 -21.712 -19.053  0.00  0.00    +0.019 C 
ATOM     20  C   UNL     1      33.485 -20.605 -19.889  0.00  0.00    -0.018 C 
ATOM     21  C   UNL     1      35.539 -21.254 -18.591  0.00  0.00    -0.018 C 
ATOM     22  C   UNL     1      34.403 -20.141 -21.022  0.00  0.00    -0.077 C 
ATOM     23  C   UNL     1      36.383 -20.765 -19.772  0.00  0.00    -0.077 C 
ATOM     24  H   UNL     1      35.529 -18.925 -19.849  0.00  0.00    -0.080 HD
BRANCH  18  25
ATOM     25  C   UNL     1      36.544 -19.196 -21.591  0.00  0.00    -0.055 C 
BRANCH  25  26
ATOM     26  C   UNL     1      35.707 -18.948 -22.837  0.00  0.00    +0.077 C 
BRANCH  26  28
ATOM     27  O   UNL     1      35.393 -16.752 -20.809  0.00  0.00    -0.252 OA
ATOM     28  N   UNL     1      35.465 -17.544 -23.030  0.00  0.00    -0.243 N 
ATOM     29  N   UNL     1      35.141 -15.337 -22.657  0.00  0.00    -0.266 N 
ATOM     30  C   UNL     1      35.409 -16.939 -24.350  0.00  0.00    +0.085 C 
ATOM     31  C   UNL     1      35.076 -15.479 -24.089  0.00  0.00    +0.082 C 
ATOM     32  C   UNL     1      35.339 -16.572 -22.019  0.00  0.00    +0.311 C 
ATOM     33  H   UNL     1      35.057 -14.478 -22.183  0.00  0.00    +0.157 HD
ENDBRANCH  26  28
ENDBRANCH  25  26
ENDBRANCH  18  25
ENDBRANCH   3  19
TORSDOF 5
ENDMDL
MODEL 5
REMARK VINA RESULT:      -9.8      9.632     13.478
REMARK  Name = 60149
REMARK  5 active torsions:
REMARK  status: ('A' for Active; 'I' for Inactive)
REMARK    1  A    between atoms: N_2  and  C_12
REMARK    2  A    between atoms: C_3  and  C_19
REMARK    3  A    between atoms: N_18  and  C_25
REMARK    4  A    between atoms: C_25  and  C_26
REMARK    5  A    between atoms: C_26  and  N_28
REMARK                            x       y       z     vdW  Elec       q    Type
REMARK                         _______ _______ _______ _____ _____    ______ ____
ROOT
ATOM      1 CL   UNL     1      30.954 -10.375 -19.019  0.00  0.00    -0.082 Cl
ATOM      2  N   UNL     1      33.798 -12.938 -23.432  0.00  0.00    -0.265 N 
ATOM      3  C   UNL     1      33.614 -10.737 -23.595  0.00  0.00    -0.006 C 
ATOM      4  C   UNL     1      32.977 -11.143 -22.392  0.00  0.00    +0.012 C 
ATOM      5  C   UNL     1      34.108 -11.858 -24.214  0.00  0.00    +0.065 C 
ATOM      6  C   UNL     1      33.107 -12.530 -22.313  0.00  0.00    +0.055 C 
ATOM      7  C   UNL     1      32.301 -10.464 -21.359  0.00  0.00    +0.012 C 
ATOM      8  C   UNL     1      32.593 -13.277 -21.246  0.00  0.00    +0.016 C 
ATOM      9  C   UNL     1      31.781 -11.198 -20.287  0.00  0.00    +0.058 C 
ATOM     10  C   UNL     1      31.926 -12.583 -20.234  0.00  0.00    +0.013 C 
ENDROOT
BRANCH   2  12
ATOM     11  F   UNL     1      35.165 -18.134 -24.660  0.00  0.00    -0.204 F 
ATOM     12  C   UNL     1      34.144 -14.256 -23.743  0.00  0.00    +0.056 C 
ATOM     13  C   UNL     1      33.526 -14.890 -24.811  0.00  0.00    +0.017 C 
ATOM     14  C   UNL     1      35.102 -14.907 -22.980  0.00  0.00    +0.017 C 
ATOM     15  C   UNL     1      33.871 -16.206 -25.121  0.00  0.00    +0.031 C 
ATOM     16  C   UNL     1      35.447 -16.223 -23.290  0.00  0.00    +0.031 C 
ATOM     17  C   UNL     1      34.832 -16.872 -24.361  0.00  0.00    +0.140 C 
ENDBRANCH   2  12
BRANCH   3  19
ATOM     18  N   UNL     1      33.955  -6.418 -23.764  0.00  0.00    +0.388 N 
ATOM     19  C   UNL     1      33.730  -9.322 -24.114  0.00  0.00    +0.019 C 
ATOM     20  C   UNL     1      32.533  -8.443 -23.715  0.00  0.00    -0.018 C 
ATOM     21  C   UNL     1      35.041  -8.640 -23.690  0.00  0.00    -0.018 C 
ATOM     22  C   UNL     1      32.697  -7.013 -24.236  0.00  0.00    -0.077 C 
ATOM     23  C   UNL     1      35.113  -7.202 -24.210  0.00  0.00    -0.077 C 
ATOM     24  H   UNL     1      33.943  -6.425 -22.744  0.00  0.00    -0.080 HD
BRANCH  18  25
ATOM     25  C   UNL     1      34.068  -5.033 -24.222  0.00  0.00    -0.055 C 
BRANCH  25  26
ATOM     26  C   UNL     1      32.724  -4.534 -24.734  0.00  0.00    +0.077 C 
BRANCH  26  28
ATOM     27  O   UNL     1      31.071  -5.299 -22.343  0.00  0.00    -0.252 OA
ATOM     28  N   UNL     1      32.074  -3.700 -23.759  0.00  0.00    -0.243 N 
ATOM     29  N   UNL     1      30.900  -2.997 -21.959  0.00  0.00    -0.266 N 
ATOM     30  C   UNL     1      32.204  -2.254 -23.763  0.00  0.00    +0.085 C 
ATOM     31  C   UNL     1      31.317  -1.786 -22.620  0.00  0.00    +0.082 C 
ATOM     32  C   UNL     1      31.320  -4.142 -22.654  0.00  0.00    +0.311 C 
ATOM     33  H   UNL     1      30.382  -3.018 -21.122  0.00  0.00    +0.157 HD
ENDBRANCH  26  28
ENDBRANCH  25  26
ENDBRANCH  18  25
ENDBRANCH   3  19
TORSDOF 5
ENDMDL
MODEL 6
REMARK VINA RESULT:      -9.7      9.066     14.814
REMARK  Name = 60149
REMARK  5 active torsions:
REMARK  status: ('A' for Active; 'I' for Inactive)
REMARK    1  A    between atoms: N_2  and  C_12
REMARK    2  A    between atoms: C_3  and  C_19
REMARK    3  A    between atoms: N_18  and  C_25
REMARK    4  A    between atoms: C_25  and  C_26
REMARK    5  A    between atoms: C_26  and  N_28
REMARK                            x       y       z     vdW  Elec       q    Type
REMARK                         _______ _______ _______ _____ _____    ______ ____
ROOT
ATOM      1 CL   UNL     1      31.823 -10.030 -18.163  0.00  0.00    -0.082 Cl
ATOM      2  N   UNL     1      32.993  -7.632 -23.360  0.00  0.00    -0.265 N 
ATOM      3  C   UNL     1      33.407  -9.803 -23.221  0.00  0.00    -0.006 C 
ATOM      4  C   UNL     1      32.910  -9.370 -21.963  0.00  0.00    +0.012 C 
ATOM      5  C   UNL     1      33.448  -8.718 -24.060  0.00  0.00    +0.065 C 
ATOM      6  C   UNL     1      32.657  -8.002 -22.077  0.00  0.00    +0.055 C 
ATOM      7  C   UNL     1      32.649 -10.009 -20.734  0.00  0.00    +0.012 C 
ATOM      8  C   UNL     1      32.154  -7.237 -21.019  0.00  0.00    +0.016 C 
ATOM      9  C   UNL     1      32.146  -9.256 -19.668  0.00  0.00    +0.058 C 
ATOM     10  C   UNL     1      31.903  -7.891 -19.810  0.00  0.00    +0.013 C 
ENDROOT
BRANCH   2  12
ATOM     11  F   UNL     1      32.587  -2.554 -25.462  0.00  0.00    -0.204 F 
ATOM     12  C   UNL     1      32.890  -6.345 -23.893  0.00  0.00    +0.056 C 
ATOM     13  C   UNL     1      34.044  -5.643 -24.209  0.00  0.00    +0.017 C 
ATOM     14  C   UNL     1      31.635  -5.790 -24.097  0.00  0.00    +0.017 C 
ATOM     15  C   UNL     1      33.942  -4.356 -24.740  0.00  0.00    +0.031 C 
ATOM     16  C   UNL     1      31.533  -4.503 -24.628  0.00  0.00    +0.031 C 
ATOM     17  C   UNL     1      32.686  -3.787 -24.951  0.00  0.00    +0.140 C 
ENDBRANCH   2  12
BRANCH   3  19
ATOM     18  N   UNL     1      33.301 -13.912 -24.604  0.00  0.00    +0.388 N 
ATOM     19  C   UNL     1      33.822 -11.212 -23.583  0.00  0.00    +0.019 C 
ATOM     20  C   UNL     1      33.086 -12.279 -22.758  0.00  0.00    -0.018 C 
ATOM     21  C   UNL     1      33.663 -11.511 -25.082  0.00  0.00    -0.018 C 
ATOM     22  C   UNL     1      33.513 -13.690 -23.167  0.00  0.00    -0.077 C 
ATOM     23  C   UNL     1      34.068 -12.951 -25.408  0.00  0.00    -0.077 C 
ATOM     24  H   UNL     1      32.311 -13.769 -24.802  0.00  0.00    -0.080 HD
BRANCH  18  25
ATOM     25  C   UNL     1      33.660 -15.283 -24.968  0.00  0.00    -0.055 C 
BRANCH  25  26
ATOM     26  C   UNL     1      35.019 -15.646 -24.385  0.00  0.00    +0.077 C 
BRANCH  26  28
ATOM     27  O   UNL     1      35.647 -16.646 -21.622  0.00  0.00    -0.252 OA
ATOM     28  N   UNL     1      35.023 -16.989 -23.871  0.00  0.00    -0.243 N 
ATOM     29  N   UNL     1      35.175 -18.769 -22.486  0.00  0.00    -0.266 N 
ATOM     30  C   UNL     1      34.617 -18.130 -24.674  0.00  0.00    +0.085 C 
ATOM     31  C   UNL     1      34.835 -19.332 -23.769  0.00  0.00    +0.082 C 
ATOM     32  C   UNL     1      35.322 -17.375 -22.550  0.00  0.00    +0.311 C 
ATOM     33  H   UNL     1      35.290 -19.300 -21.665  0.00  0.00    +0.157 HD
ENDBRANCH  26  28
ENDBRANCH  25  26
ENDBRANCH  18  25
ENDBRANCH   3  19
TORSDOF 5
ENDMDL
MODEL 7
REMARK VINA RESULT:      -9.7      7.820     14.244
REMARK  Name = 60149
REMARK  5 active torsions:
REMARK  status: ('A' for Active; 'I' for Inactive)
REMARK    1  A    between atoms: N_2  and  C_12
REMARK    2  A    between atoms: C_3  and  C_19
REMARK    3  A    between atoms: N_18  and  C_25
REMARK    4  A    between atoms: C_25  and  C_26
REMARK    5  A    between atoms: C_26  and  N_28
REMARK                            x       y       z     vdW  Elec       q    Type
REMARK                         _______ _______ _______ _____ _____    ______ ____
ROOT
ATOM      1 CL   UNL     1      31.620 -10.327 -17.938  0.00  0.00    -0.082 Cl
ATOM      2  N   UNL     1      33.082  -8.300 -23.219  0.00  0.00    -0.265 N 
ATOM      3  C   UNL     1      33.013 -10.507 -23.054  0.00  0.00    -0.006 C 
ATOM      4  C   UNL     1      32.674  -9.963 -21.787  0.00  0.00    +0.012 C 
ATOM      5  C   UNL     1      33.259  -9.466 -23.914  0.00  0.00    +0.065 C 
ATOM      6  C   UNL     1      32.724  -8.573 -21.918  0.00  0.00    +0.055 C 
ATOM      7  C   UNL     1      32.328 -10.515 -20.538  0.00  0.00    +0.012 C 
ATOM      8  C   UNL     1      32.444  -7.705 -20.856  0.00  0.00    +0.016 C 
ATOM      9  C   UNL     1      32.046  -9.659 -19.468  0.00  0.00    +0.058 C 
ATOM     10  C   UNL     1      32.103  -8.275 -19.627  0.00  0.00    +0.013 C 
ENDROOT
BRANCH   2  12
ATOM     11  F   UNL     1      33.722  -3.279 -25.399  0.00  0.00    -0.204 F 
ATOM     12  C   UNL     1      33.244  -7.027 -23.771  0.00  0.00    +0.056 C 
ATOM     13  C   UNL     1      34.523  -6.522 -23.958  0.00  0.00    +0.017 C 
ATOM     14  C   UNL     1      32.124  -6.289 -24.125  0.00  0.00    +0.017 C 
ATOM     15  C   UNL     1      34.685  -5.250 -24.509  0.00  0.00    +0.031 C 
ATOM     16  C   UNL     1      32.286  -5.018 -24.675  0.00  0.00    +0.031 C 
ATOM     17  C   UNL     1      33.566  -4.498 -24.868  0.00  0.00    +0.140 C 
ENDBRANCH   2  12
BRANCH   3  19
ATOM     18  N   UNL     1      34.555 -14.425 -24.091  0.00  0.00    +0.388 N 
ATOM     19  C   UNL     1      33.094 -11.976 -23.405  0.00  0.00    +0.019 C 
ATOM     20  C   UNL     1      33.684 -12.222 -24.803  0.00  0.00    -0.018 C 
ATOM     21  C   UNL     1      33.871 -12.794 -22.361  0.00  0.00    -0.018 C 
ATOM     22  C   UNL     1      33.772 -13.718 -25.113  0.00  0.00    -0.077 C 
ATOM     23  C   UNL     1      33.955 -14.269 -22.760  0.00  0.00    -0.077 C 
ATOM     24  H   UNL     1      35.487 -14.012 -24.066  0.00  0.00    -0.080 HD
BRANCH  18  25
ATOM     25  C   UNL     1      34.679 -15.843 -24.433  0.00  0.00    -0.055 C 
BRANCH  25  26
ATOM     26  C   UNL     1      35.859 -16.462 -23.698  0.00  0.00    +0.077 C 
BRANCH  26  28
ATOM     27  O   UNL     1      34.507 -19.018 -24.521  0.00  0.00    -0.252 OA
ATOM     28  N   UNL     1      35.444 -17.583 -22.898  0.00  0.00    -0.243 N 
ATOM     29  N   UNL     1      34.622 -19.588 -22.253  0.00  0.00    -0.266 N 
ATOM     30  C   UNL     1      35.714 -17.664 -21.473  0.00  0.00    +0.085 C 
ATOM     31  C   UNL     1      35.055 -18.961 -21.031  0.00  0.00    +0.082 C 
ATOM     32  C   UNL     1      34.820 -18.756 -23.366  0.00  0.00    +0.311 C 
ATOM     33  H   UNL     1      34.233 -20.492 -22.302  0.00  0.00    +0.157 HD
ENDBRANCH  26  28
ENDBRANCH  25  26
ENDBRANCH  18  25
ENDBRANCH   3  19
TORSDOF 5
ENDMDL
MODEL 8
REMARK VINA RESULT:      -9.7      8.148     14.441
REMARK  Name = 60149
REMARK  5 active torsions:
REMARK  status: ('A' for Active; 'I' for Inactive)
REMARK    1  A    between atoms: N_2  and  C_12
REMARK    2  A    between atoms: C_3  and  C_19
REMARK    3  A    between atoms: N_18  and  C_25
REMARK    4  A    between atoms: C_25  and  C_26
REMARK    5  A    between atoms: C_26  and  N_28
REMARK                            x       y       z     vdW  Elec       q    Type
REMARK                         _______ _______ _______ _____ _____    ______ ____
ROOT
ATOM      1 CL   UNL     1      31.592 -10.066 -18.002  0.00  0.00    -0.082 Cl
ATOM      2  N   UNL     1      33.106  -8.112 -23.296  0.00  0.00    -0.265 N 
ATOM      3  C   UNL     1      33.023 -10.316 -23.105  0.00  0.00    -0.006 C 
ATOM      4  C   UNL     1      32.677  -9.754 -21.848  0.00  0.00    +0.012 C 
ATOM      5  C   UNL     1      33.281  -9.287 -23.975  0.00  0.00    +0.065 C 
ATOM      6  C   UNL     1      32.737  -8.367 -21.994  0.00  0.00    +0.055 C 
ATOM      7  C   UNL     1      32.318 -10.290 -20.594  0.00  0.00    +0.012 C 
ATOM      8  C   UNL     1      32.453  -7.484 -20.945  0.00  0.00    +0.016 C 
ATOM      9  C   UNL     1      32.033  -9.419 -19.537  0.00  0.00    +0.058 C 
ATOM     10  C   UNL     1      32.100  -8.038 -19.712  0.00  0.00    +0.013 C 
ENDROOT
BRANCH   2  12
ATOM     11  F   UNL     1      33.790  -3.120 -25.530  0.00  0.00    -0.204 F 
ATOM     12  C   UNL     1      33.280  -6.846 -23.863  0.00  0.00    +0.056 C 
ATOM     13  C   UNL     1      32.169  -6.056 -24.122  0.00  0.00    +0.017 C 
ATOM     14  C   UNL     1      34.560  -6.400 -24.157  0.00  0.00    +0.017 C 
ATOM     15  C   UNL     1      32.342  -4.793 -24.688  0.00  0.00    +0.031 C 
ATOM     16  C   UNL     1      34.733  -5.137 -24.724  0.00  0.00    +0.031 C 
ATOM     17  C   UNL     1      33.624  -4.333 -24.988  0.00  0.00    +0.140 C 
ENDBRANCH   2  12
BRANCH   3  19
ATOM     18  N   UNL     1      34.552 -14.278 -23.983  0.00  0.00    +0.388 N 
ATOM     19  C   UNL     1      33.097 -11.790 -23.437  0.00  0.00    +0.019 C 
ATOM     20  C   UNL     1      33.794 -12.062 -24.780  0.00  0.00    -0.018 C 
ATOM     21  C   UNL     1      33.767 -12.615 -22.327  0.00  0.00    -0.018 C 
ATOM     22  C   UNL     1      33.873 -13.562 -25.072  0.00  0.00    -0.077 C 
ATOM     23  C   UNL     1      33.848 -14.096 -22.707  0.00  0.00    -0.077 C 
ATOM     24  H   UNL     1      35.488 -13.886 -23.885  0.00  0.00    -0.080 HD
BRANCH  18  25
ATOM     25  C   UNL     1      34.670 -15.701 -24.303  0.00  0.00    -0.055 C 
BRANCH  25  26
ATOM     26  C   UNL     1      35.906 -16.291 -23.640  0.00  0.00    +0.077 C 
BRANCH  26  28
ATOM     27  O   UNL     1      35.381 -16.394 -20.683  0.00  0.00    -0.252 OA
ATOM     28  N   UNL     1      35.565 -17.410 -22.805  0.00  0.00    -0.243 N 
ATOM     29  N   UNL     1      34.996 -18.678 -21.022  0.00  0.00    -0.266 N 
ATOM     30  C   UNL     1      35.337 -18.740 -23.342  0.00  0.00    +0.085 C 
ATOM     31  C   UNL     1      35.071 -19.606 -22.121  0.00  0.00    +0.082 C 
ATOM     32  C   UNL     1      35.323 -17.372 -21.418  0.00  0.00    +0.311 C 
ATOM     33  H   UNL     1      34.745 -18.931 -20.103  0.00  0.00    +0.157 HD
ENDBRANCH  26  28
ENDBRANCH  25  26
ENDBRANCH  18  25
ENDBRANCH   3  19
TORSDOF 5
ENDMDL
MODEL 9
REMARK VINA RESULT:      -9.4      7.566     13.974
REMARK  Name = 60149
REMARK  5 active torsions:
REMARK  status: ('A' for Active; 'I' for Inactive)
REMARK    1  A    between atoms: N_2  and  C_12
REMARK    2  A    between atoms: C_3  and  C_19
REMARK    3  A    between atoms: N_18  and  C_25
REMARK    4  A    between atoms: C_25  and  C_26
REMARK    5  A    between atoms: C_26  and  N_28
REMARK                            x       y       z     vdW  Elec       q    Type
REMARK                         _______ _______ _______ _____ _____    ______ ____
ROOT
ATOM      1 CL   UNL     1      37.233  -9.740 -26.689  0.00  0.00    -0.082 Cl
ATOM      2  N   UNL     1      33.064  -9.108 -22.644  0.00  0.00    -0.265 N 
ATOM      3  C   UNL     1      33.536 -11.206 -23.176  0.00  0.00    -0.006 C 
ATOM      4  C   UNL     1      34.371 -10.358 -23.951  0.00  0.00    +0.012 C 
ATOM      5  C   UNL     1      32.745 -10.414 -22.383  0.00  0.00    +0.065 C 
ATOM      6  C   UNL     1      34.055  -9.045 -23.597  0.00  0.00    +0.055 C 
ATOM      7  C   UNL     1      35.369 -10.578 -24.922  0.00  0.00    +0.012 C 
ATOM      8  C   UNL     1      34.690  -7.935 -24.168  0.00  0.00    +0.016 C 
ATOM      9  C   UNL     1      36.011  -9.478 -25.502  0.00  0.00    +0.058 C 
ATOM     10  C   UNL     1      35.675  -8.178 -25.129  0.00  0.00    +0.013 C 
ENDROOT
BRANCH   2  12
ATOM     11  F   UNL     1      30.685  -4.793 -20.176  0.00  0.00    -0.204 F 
ATOM     12  C   UNL     1      32.461  -8.014 -22.018  0.00  0.00    +0.056 C 
ATOM     13  C   UNL     1      31.570  -7.226 -22.731  0.00  0.00    +0.017 C 
ATOM     14  C   UNL     1      32.763  -7.734 -20.693  0.00  0.00    +0.017 C 
ATOM     15  C   UNL     1      30.969  -6.132 -22.107  0.00  0.00    +0.031 C 
ATOM     16  C   UNL     1      32.162  -6.641 -20.069  0.00  0.00    +0.031 C 
ATOM     17  C   UNL     1      31.264  -5.841 -20.775  0.00  0.00    +0.140 C 
ENDBRANCH   2  12
BRANCH   3  19
ATOM     18  N   UNL     1      34.714 -15.338 -23.754  0.00  0.00    +0.388 N 
ATOM     19  C   UNL     1      33.514 -12.717 -23.212  0.00  0.00    +0.019 C 
ATOM     20  C   UNL     1      33.662 -13.280 -24.635  0.00  0.00    -0.018 C 
ATOM     21  C   UNL     1      34.570 -13.349 -22.291  0.00  0.00    -0.018 C 
ATOM     22  C   UNL     1      33.660 -14.810 -24.631  0.00  0.00    -0.077 C 
ATOM     23  C   UNL     1      34.536 -14.877 -22.372  0.00  0.00    -0.077 C 
ATOM     24  H   UNL     1      35.610 -14.986 -24.091  0.00  0.00    -0.080 HD
BRANCH  18  25
ATOM     25  C   UNL     1      34.736 -16.801 -23.806  0.00  0.00    -0.055 C 
BRANCH  25  26
ATOM     26  C   UNL     1      36.048 -17.330 -23.245  0.00  0.00    +0.077 C 
BRANCH  26  28
ATOM     27  O   UNL     1      37.930 -18.408 -21.165  0.00  0.00    -0.252 OA
ATOM     28  N   UNL     1      35.817 -18.300 -22.209  0.00  0.00    -0.243 N 
ATOM     29  N   UNL     1      36.098 -19.665 -20.429  0.00  0.00    -0.266 N 
ATOM     30  C   UNL     1      34.508 -18.881 -21.966  0.00  0.00    +0.085 C 
ATOM     31  C   UNL     1      34.736 -19.882 -20.844  0.00  0.00    +0.082 C 
ATOM     32  C   UNL     1      36.758 -18.747 -21.261  0.00  0.00    +0.311 C 
ATOM     33  H   UNL     1      36.516 -20.108 -19.654  0.00  0.00    +0.157 HD
ENDBRANCH  26  28
ENDBRANCH  25  26
ENDBRANCH  18  25
ENDBRANCH   3  19
TORSDOF 5
ENDMDL
