MODEL 1
REMARK VINA RESULT:     -11.8      0.000      0.000
REMARK  Name = 24878044
REMARK  6 active torsions:
REMARK  status: ('A' for Active; 'I' for Inactive)
REMARK    1  A    between atoms: N_2  and  C_6
REMARK    2  A    between atoms: C_3  and  C_18
REMARK    3  A    between atoms: C_7  and  S_12
REMARK    4  A    between atoms: S_12  and  N_15
REMARK    5  A    between atoms: C_18  and  S_19
REMARK    6  A    between atoms: S_19  and  C_31
REMARK                            x       y       z     vdW  Elec       q    Type
REMARK                         _______ _______ _______ _____ _____    ______ ____
ROOT
ATOM      1  O   UNL     1      34.610 -18.896 -24.201  0.00  0.00    -0.274 OA
ATOM      2  N   UNL     1      35.291 -18.105 -22.096  0.00  0.00    -0.283 N 
ATOM      3  C   UNL     1      35.100 -18.039 -23.471  0.00  0.00    +0.238 C 
ATOM      4  H   UNL     1      35.715 -17.321 -21.677  0.00  0.00    +0.155 HD
ENDROOT
BRANCH   2   6
ATOM      5 CL   UNL     1      37.591 -19.468 -20.633  0.00  0.00    -0.081 Cl
ATOM      6  C   UNL     1      34.945 -19.169 -21.229  0.00  0.00    +0.061 C 
ATOM      7  C   UNL     1      34.194 -21.255 -19.536  0.00  0.00    +0.123 C 
ATOM      8  C   UNL     1      35.915 -19.865 -20.508  0.00  0.00    +0.072 C 
ATOM      9  C   UNL     1      33.599 -19.517 -21.104  0.00  0.00    +0.017 C 
ATOM     10  C   UNL     1      35.539 -20.908 -19.661  0.00  0.00    +0.033 C 
ATOM     11  C   UNL     1      33.224 -20.560 -20.257  0.00  0.00    +0.021 C 
BRANCH   7  12
ATOM     12  S   UNL     1      33.724 -22.561 -18.477  0.00  0.00    +0.057 S 
ATOM     13  O   UNL     1      32.439 -22.228 -17.880  0.00  0.00    -0.153 OA
ATOM     14  O   UNL     1      33.885 -23.819 -19.193  0.00  0.00    -0.153 OA
BRANCH  12  15
ATOM     15  N   UNL     1      34.934 -22.456 -17.274  0.00  0.00    -0.203 NA
ATOM     16  H   UNL     1      35.615 -23.203 -17.412  0.00  0.00    +0.144 HD
ATOM     17  H   UNL     1      34.507 -22.550 -16.353  0.00  0.00    +0.144 HD
ENDBRANCH  12  15
ENDBRANCH   7  12
ENDBRANCH   2   6
BRANCH   3  18
ATOM     18  C   UNL     1      35.602 -16.733 -24.051  0.00  0.00    +0.152 C 
BRANCH  18  19
ATOM     19  S   UNL     1      34.184 -15.685 -24.442  0.00  0.00    -0.047 S 
BRANCH  19  31
ATOM     20  O   UNL     1      34.615 -14.931 -21.986  0.00  0.00    -0.262 OA
ATOM     21  N   UNL     1      33.779 -13.228 -23.374  0.00  0.00    -0.250 N 
ATOM     22  C   UNL     1      34.360 -11.165 -24.640  0.00  0.00    +0.027 C 
ATOM     23  C   UNL     1      33.298 -10.365 -23.916  0.00  0.00    +0.029 C 
ATOM     24  C   UNL     1      33.937 -12.622 -24.713  0.00  0.00    +0.099 C 
ATOM     25  C   UNL     1      32.913 -11.022 -22.617  0.00  0.00    -0.009 C 
ATOM     26  C   UNL     1      33.141 -12.396 -22.369  0.00  0.00    +0.051 C 
ATOM     27  C   UNL     1      32.270 -10.223 -21.653  0.00  0.00    -0.007 C 
ATOM     28  C   UNL     1      32.687 -12.920 -21.145  0.00  0.00    +0.014 C 
ATOM     29  C   UNL     1      31.854 -10.763 -20.442  0.00  0.00    -0.022 C 
ATOM     30  C   UNL     1      32.059 -12.112 -20.191  0.00  0.00    -0.003 C 
ATOM     31  C   UNL     1      34.226 -14.538 -23.081  0.00  0.00    +0.280 C 
ATOM     32  C   UNL     1      31.208  -9.896 -19.415  0.00  0.00    +0.031 C 
ENDBRANCH  19  31
ENDBRANCH  18  19
ENDBRANCH   3  18
TORSDOF 6
ENDMDL
MODEL 2
REMARK VINA RESULT:     -11.7      1.188      2.367
REMARK  Name = 24878044
REMARK  6 active torsions:
REMARK  status: ('A' for Active; 'I' for Inactive)
REMARK    1  A    between atoms: N_2  and  C_6
REMARK    2  A    between atoms: C_3  and  C_18
REMARK    3  A    between atoms: C_7  and  S_12
REMARK    4  A    between atoms: S_12  and  N_15
REMARK    5  A    between atoms: C_18  and  S_19
REMARK    6  A    between atoms: S_19  and  C_31
REMARK                            x       y       z     vdW  Elec       q    Type
REMARK                         _______ _______ _______ _____ _____    ______ ____
ROOT
ATOM      1  O   UNL     1      34.958 -19.394 -24.035  0.00  0.00    -0.274 OA
ATOM      2  N   UNL     1      34.893 -18.309 -21.951  0.00  0.00    -0.283 N 
ATOM      3  C   UNL     1      35.002 -18.385 -23.335  0.00  0.00    +0.238 C 
ATOM      4  H   UNL     1      34.966 -17.410 -21.557  0.00  0.00    +0.155 HD
ENDROOT
BRANCH   2   6
ATOM      5 CL   UNL     1      37.389 -19.509 -20.680  0.00  0.00    -0.081 Cl
ATOM      6  C   UNL     1      34.688 -19.376 -21.043  0.00  0.00    +0.061 C 
ATOM      7  C   UNL     1      34.214 -21.471 -19.265  0.00  0.00    +0.123 C 
ATOM      8  C   UNL     1      35.757 -20.001 -20.402  0.00  0.00    +0.072 C 
ATOM      9  C   UNL     1      33.382 -19.799 -20.795  0.00  0.00    +0.017 C 
ATOM     10  C   UNL     1      35.520 -21.049 -19.512  0.00  0.00    +0.033 C 
ATOM     11  C   UNL     1      33.145 -20.846 -19.906  0.00  0.00    +0.021 C 
BRANCH   7  12
ATOM     12  S   UNL     1      33.917 -22.783 -18.151  0.00  0.00    +0.057 S 
ATOM     13  O   UNL     1      33.883 -24.028 -18.906  0.00  0.00    -0.153 OA
ATOM     14  O   UNL     1      34.825 -22.646 -17.021  0.00  0.00    -0.153 OA
BRANCH  12  15
ATOM     15  N   UNL     1      32.332 -22.414 -17.629  0.00  0.00    -0.203 NA
ATOM     16  H   UNL     1      31.657 -22.851 -18.257  0.00  0.00    +0.144 HD
ATOM     17  H   UNL     1      32.198 -21.403 -17.636  0.00  0.00    +0.144 HD
ENDBRANCH  12  15
ENDBRANCH   7  12
ENDBRANCH   2   6
BRANCH   3  18
ATOM     18  C   UNL     1      35.218 -17.024 -23.962  0.00  0.00    +0.152 C 
BRANCH  18  19
ATOM     19  S   UNL     1      35.318 -15.786 -22.650  0.00  0.00    -0.047 S 
BRANCH  19  31
ATOM     20  O   UNL     1      34.038 -14.488 -24.511  0.00  0.00    -0.262 OA
ATOM     21  N   UNL     1      33.748 -13.597 -22.355  0.00  0.00    -0.250 N 
ATOM     22  C   UNL     1      32.181 -13.389 -20.433  0.00  0.00    +0.027 C 
ATOM     23  C   UNL     1      32.263 -11.878 -20.468  0.00  0.00    +0.029 C 
ATOM     24  C   UNL     1      33.479 -13.981 -20.953  0.00  0.00    +0.099 C 
ATOM     25  C   UNL     1      32.736 -11.391 -21.812  0.00  0.00    -0.009 C 
ATOM     26  C   UNL     1      33.453 -12.219 -22.705  0.00  0.00    +0.051 C 
ATOM     27  C   UNL     1      32.475 -10.047 -22.141  0.00  0.00    -0.007 C 
ATOM     28  C   UNL     1      33.901 -11.643 -23.909  0.00  0.00    +0.014 C 
ATOM     29  C   UNL     1      32.908  -9.512 -23.349  0.00  0.00    -0.022 C 
ATOM     30  C   UNL     1      33.625 -10.310 -24.230  0.00  0.00    -0.003 C 
ATOM     31  C   UNL     1      34.257 -14.515 -23.304  0.00  0.00    +0.280 C 
ATOM     32  C   UNL     1      32.592  -8.099 -23.701  0.00  0.00    +0.031 C 
ENDBRANCH  19  31
ENDBRANCH  18  19
ENDBRANCH   3  18
TORSDOF 6
ENDMDL
MODEL 3
REMARK VINA RESULT:     -10.7      5.191      8.288
REMARK  Name = 24878044
REMARK  6 active torsions:
REMARK  status: ('A' for Active; 'I' for Inactive)
REMARK    1  A    between atoms: N_2  and  C_6
REMARK    2  A    between atoms: C_3  and  C_18
REMARK    3  A    between atoms: C_7  and  S_12
REMARK    4  A    between atoms: S_12  and  N_15
REMARK    5  A    between atoms: C_18  and  S_19
REMARK    6  A    between atoms: S_19  and  C_31
REMARK                            x       y       z     vdW  Elec       q    Type
REMARK                         _______ _______ _______ _____ _____    ______ ____
ROOT
ATOM      1  O   UNL     1      32.087 -22.724 -15.605  0.00  0.00    -0.274 OA
ATOM      2  N   UNL     1      34.318 -23.084 -16.251  0.00  0.00    -0.283 N 
ATOM      3  C   UNL     1      32.972 -22.802 -16.453  0.00  0.00    +0.238 C 
ATOM      4  H   UNL     1      34.882 -23.119 -17.057  0.00  0.00    +0.155 HD
ENDROOT
BRANCH   2   6
ATOM      5 CL   UNL     1      37.135 -21.957 -15.964  0.00  0.00    -0.081 Cl
ATOM      6  C   UNL     1      34.971 -23.325 -15.018  0.00  0.00    +0.061 C 
ATOM      7  C   UNL     1      36.200 -23.833 -12.566  0.00  0.00    +0.123 C 
ATOM      8  C   UNL     1      36.262 -22.856 -14.775  0.00  0.00    +0.072 C 
ATOM      9  C   UNL     1      34.295 -24.048 -14.035  0.00  0.00    +0.017 C 
ATOM     10  C   UNL     1      36.876 -23.110 -13.549  0.00  0.00    +0.033 C 
ATOM     11  C   UNL     1      34.909 -24.302 -12.809  0.00  0.00    +0.021 C 
BRANCH   7  12
ATOM     12  S   UNL     1      36.970 -24.152 -11.032  0.00  0.00    +0.057 S 
ATOM     13  O   UNL     1      37.925 -25.235 -11.212  0.00  0.00    -0.153 OA
ATOM     14  O   UNL     1      37.410 -22.886 -10.463  0.00  0.00    -0.153 OA
BRANCH  12  15
ATOM     15  N   UNL     1      35.646 -24.732 -10.119  0.00  0.00    -0.203 NA
ATOM     16  H   UNL     1      35.308 -25.605 -10.527  0.00  0.00    +0.144 HD
ATOM     17  H   UNL     1      34.897 -24.040 -10.127  0.00  0.00    +0.144 HD
ENDBRANCH  12  15
ENDBRANCH   7  12
ENDBRANCH   2   6
BRANCH   3  18
ATOM     18  C   UNL     1      32.649 -22.604 -17.919  0.00  0.00    +0.152 C 
BRANCH  18  19
ATOM     19  S   UNL     1      34.194 -22.514 -18.850  0.00  0.00    -0.047 S 
BRANCH  19  31
ATOM     20  O   UNL     1      32.898 -20.434 -19.731  0.00  0.00    -0.262 OA
ATOM     21  N   UNL     1      35.207 -20.371 -20.162  0.00  0.00    -0.250 N 
ATOM     22  C   UNL     1      37.378 -19.357 -19.485  0.00  0.00    +0.027 C 
ATOM     23  C   UNL     1      37.641 -18.865 -20.892  0.00  0.00    +0.029 C 
ATOM     24  C   UNL     1      36.525 -20.613 -19.537  0.00  0.00    +0.099 C 
ATOM     25  C   UNL     1      36.365 -18.781 -21.686  0.00  0.00    -0.009 C 
ATOM     26  C   UNL     1      35.207 -19.512 -21.333  0.00  0.00    +0.051 C 
ATOM     27  C   UNL     1      36.371 -17.971 -22.838  0.00  0.00    -0.007 C 
ATOM     28  C   UNL     1      34.088 -19.407 -22.181  0.00  0.00    +0.014 C 
ATOM     29  C   UNL     1      35.243 -17.867 -23.642  0.00  0.00    -0.022 C 
ATOM     30  C   UNL     1      34.104 -18.590 -23.316  0.00  0.00    -0.003 C 
ATOM     31  C   UNL     1      34.015 -20.934 -19.651  0.00  0.00    +0.280 C 
ATOM     32  C   UNL     1      35.252 -16.977 -24.837  0.00  0.00    +0.031 C 
ENDBRANCH  19  31
ENDBRANCH  18  19
ENDBRANCH   3  18
TORSDOF 6
ENDMDL
MODEL 4
REMARK VINA RESULT:     -10.7      5.551     11.873
REMARK  Name = 24878044
REMARK  6 active torsions:
REMARK  status: ('A' for Active; 'I' for Inactive)
REMARK    1  A    between atoms: N_2  and  C_6
REMARK    2  A    between atoms: C_3  and  C_18
REMARK    3  A    between atoms: C_7  and  S_12
REMARK    4  A    between atoms: S_12  and  N_15
REMARK    5  A    between atoms: C_18  and  S_19
REMARK    6  A    between atoms: S_19  and  C_31
REMARK                            x       y       z     vdW  Elec       q    Type
REMARK                         _______ _______ _______ _____ _____    ______ ____
ROOT
ATOM      1  O   UNL     1      31.993 -21.886 -17.803  0.00  0.00    -0.274 OA
ATOM      2  N   UNL     1      34.262 -22.289 -18.268  0.00  0.00    -0.283 N 
ATOM      3  C   UNL     1      33.037 -22.515 -17.649  0.00  0.00    +0.238 C 
ATOM      4  H   UNL     1      34.997 -22.891 -18.010  0.00  0.00    +0.155 HD
ENDROOT
BRANCH   2   6
ATOM      5 CL   UNL     1      37.200 -21.523 -18.527  0.00  0.00    -0.081 Cl
ATOM      6  C   UNL     1      34.572 -21.294 -19.226  0.00  0.00    +0.061 C 
ATOM      7  C   UNL     1      35.114 -19.331 -21.131  0.00  0.00    +0.123 C 
ATOM      8  C   UNL     1      35.883 -20.865 -19.430  0.00  0.00    +0.072 C 
ATOM      9  C   UNL     1      33.531 -20.741 -19.973  0.00  0.00    +0.017 C 
ATOM     10  C   UNL     1      36.154 -19.884 -20.384  0.00  0.00    +0.033 C 
ATOM     11  C   UNL     1      33.803 -19.759 -20.926  0.00  0.00    +0.021 C 
BRANCH   7  12
ATOM     12  S   UNL     1      35.453 -18.101 -22.323  0.00  0.00    +0.057 S 
ATOM     13  O   UNL     1      34.646 -18.371 -23.504  0.00  0.00    -0.153 OA
ATOM     14  O   UNL     1      35.379 -16.798 -21.678  0.00  0.00    -0.153 OA
BRANCH  12  15
ATOM     15  N   UNL     1      37.089 -18.441 -22.685  0.00  0.00    -0.203 NA
ATOM     16  H   UNL     1      37.290 -19.417 -22.463  0.00  0.00    +0.144 HD
ATOM     17  H   UNL     1      37.693 -17.834 -22.131  0.00  0.00    +0.144 HD
ENDBRANCH  12  15
ENDBRANCH   7  12
ENDBRANCH   2   6
BRANCH   3  18
ATOM     18  C   UNL     1      33.097 -23.676 -16.679  0.00  0.00    +0.152 C 
BRANCH  18  19
ATOM     19  S   UNL     1      33.193 -23.026 -14.997  0.00  0.00    -0.047 S 
BRANCH  19  31
ATOM     20  O   UNL     1      35.605 -22.191 -15.517  0.00  0.00    -0.262 OA
ATOM     21  N   UNL     1      35.490 -23.725 -13.740  0.00  0.00    -0.250 N 
ATOM     22  C   UNL     1      35.573 -23.985 -11.266  0.00  0.00    +0.027 C 
ATOM     23  C   UNL     1      36.698 -24.994 -11.362  0.00  0.00    +0.029 C 
ATOM     24  C   UNL     1      34.721 -24.054 -12.521  0.00  0.00    +0.099 C 
ATOM     25  C   UNL     1      37.422 -24.876 -12.677  0.00  0.00    -0.009 C 
ATOM     26  C   UNL     1      36.832 -24.274 -13.813  0.00  0.00    +0.051 C 
ATOM     27  C   UNL     1      38.714 -25.431 -12.757  0.00  0.00    -0.007 C 
ATOM     28  C   UNL     1      37.576 -24.272 -15.008  0.00  0.00    +0.014 C 
ATOM     29  C   UNL     1      39.434 -25.393 -13.945  0.00  0.00    -0.022 C 
ATOM     30  C   UNL     1      38.862 -24.817 -15.071  0.00  0.00    -0.003 C 
ATOM     31  C   UNL     1      34.956 -22.921 -14.775  0.00  0.00    +0.280 C 
ATOM     32  C   UNL     1      40.814 -25.951 -14.004  0.00  0.00    +0.031 C 
ENDBRANCH  19  31
ENDBRANCH  18  19
ENDBRANCH   3  18
TORSDOF 6
ENDMDL
MODEL 5
REMARK VINA RESULT:     -10.6      3.433      9.720
REMARK  Name = 24878044
REMARK  6 active torsions:
REMARK  status: ('A' for Active; 'I' for Inactive)
REMARK    1  A    between atoms: N_2  and  C_6
REMARK    2  A    between atoms: C_3  and  C_18
REMARK    3  A    between atoms: C_7  and  S_12
REMARK    4  A    between atoms: S_12  and  N_15
REMARK    5  A    between atoms: C_18  and  S_19
REMARK    6  A    between atoms: S_19  and  C_31
REMARK                            x       y       z     vdW  Elec       q    Type
REMARK                         _______ _______ _______ _____ _____    ______ ____
ROOT
ATOM      1  O   UNL     1      33.130 -14.039 -26.155  0.00  0.00    -0.274 OA
ATOM      2  N   UNL     1      33.811 -13.819 -23.917  0.00  0.00    -0.283 N 
ATOM      3  C   UNL     1      33.554 -14.503 -25.100  0.00  0.00    +0.238 C 
ATOM      4  H   UNL     1      34.138 -14.361 -23.163  0.00  0.00    +0.155 HD
ENDROOT
BRANCH   2   6
ATOM      5 CL   UNL     1      32.248 -13.046 -21.418  0.00  0.00    -0.081 Cl
ATOM      6  C   UNL     1      33.657 -12.433 -23.673  0.00  0.00    +0.061 C 
ATOM      7  C   UNL     1      33.392  -9.689 -23.250  0.00  0.00    +0.123 C 
ATOM      8  C   UNL     1      32.961 -11.963 -22.560  0.00  0.00    +0.072 C 
ATOM      9  C   UNL     1      34.221 -11.530 -24.576  0.00  0.00    +0.017 C 
ATOM     10  C   UNL     1      32.829 -10.591 -22.348  0.00  0.00    +0.033 C 
ATOM     11  C   UNL     1      34.089 -10.158 -24.364  0.00  0.00    +0.021 C 
BRANCH   7  12
ATOM     12  S   UNL     1      33.227  -7.971 -22.986  0.00  0.00    +0.057 S 
ATOM     13  O   UNL     1      34.529  -7.349 -23.174  0.00  0.00    -0.153 OA
ATOM     14  O   UNL     1      32.080  -7.494 -23.747  0.00  0.00    -0.153 OA
BRANCH  12  15
ATOM     15  N   UNL     1      32.834  -7.934 -21.323  0.00  0.00    -0.203 NA
ATOM     16  H   UNL     1      33.692  -7.884 -20.773  0.00  0.00    +0.144 HD
ATOM     17  H   UNL     1      32.320  -8.779 -21.076  0.00  0.00    +0.144 HD
ENDBRANCH  12  15
ENDBRANCH   7  12
ENDBRANCH   2   6
BRANCH   3  18
ATOM     18  C   UNL     1      33.841 -15.984 -24.972  0.00  0.00    +0.152 C 
BRANCH  18  19
ATOM     19  S   UNL     1      35.067 -16.230 -23.668  0.00  0.00    -0.047 S 
BRANCH  19  31
ATOM     20  O   UNL     1      33.831 -18.520 -23.775  0.00  0.00    -0.262 OA
ATOM     21  N   UNL     1      35.478 -18.403 -22.102  0.00  0.00    -0.250 N 
ATOM     22  C   UNL     1      37.777 -19.105 -21.457  0.00  0.00    +0.027 C 
ATOM     23  C   UNL     1      37.276 -19.734 -20.174  0.00  0.00    +0.029 C 
ATOM     24  C   UNL     1      36.865 -17.956 -21.850  0.00  0.00    +0.099 C 
ATOM     25  C   UNL     1      35.804 -20.040 -20.258  0.00  0.00    -0.009 C 
ATOM     26  C   UNL     1      34.950 -19.391 -21.179  0.00  0.00    +0.051 C 
ATOM     27  C   UNL     1      35.285 -20.978 -19.345  0.00  0.00    -0.007 C 
ATOM     28  C   UNL     1      33.580 -19.709 -21.130  0.00  0.00    +0.014 C 
ATOM     29  C   UNL     1      33.931 -21.290 -19.336  0.00  0.00    -0.022 C 
ATOM     30  C   UNL     1      33.079 -20.651 -20.226  0.00  0.00    -0.003 C 
ATOM     31  C   UNL     1      34.710 -17.904 -23.180  0.00  0.00    +0.280 C 
ATOM     32  C   UNL     1      33.402 -22.312 -18.390  0.00  0.00    +0.031 C 
ENDBRANCH  19  31
ENDBRANCH  18  19
ENDBRANCH   3  18
TORSDOF 6
ENDMDL
MODEL 6
REMARK VINA RESULT:     -10.2      5.628     10.612
REMARK  Name = 24878044
REMARK  6 active torsions:
REMARK  status: ('A' for Active; 'I' for Inactive)
REMARK    1  A    between atoms: N_2  and  C_6
REMARK    2  A    between atoms: C_3  and  C_18
REMARK    3  A    between atoms: C_7  and  S_12
REMARK    4  A    between atoms: S_12  and  N_15
REMARK    5  A    between atoms: C_18  and  S_19
REMARK    6  A    between atoms: S_19  and  C_31
REMARK                            x       y       z     vdW  Elec       q    Type
REMARK                         _______ _______ _______ _____ _____    ______ ____
ROOT
ATOM      1  O   UNL     1      37.524 -20.705 -16.489  0.00  0.00    -0.274 OA
ATOM      2  N   UNL     1      36.318 -21.945 -18.080  0.00  0.00    -0.283 N 
ATOM      3  C   UNL     1      36.987 -21.739 -16.879  0.00  0.00    +0.238 C 
ATOM      4  H   UNL     1      35.960 -22.850 -18.229  0.00  0.00    +0.155 HD
ENDROOT
BRANCH   2   6
ATOM      5 CL   UNL     1      33.461 -21.728 -19.117  0.00  0.00    -0.081 Cl
ATOM      6  C   UNL     1      36.092 -21.003 -19.112  0.00  0.00    +0.061 C 
ATOM      7  C   UNL     1      35.715 -19.130 -21.144  0.00  0.00    +0.123 C 
ATOM      8  C   UNL     1      34.824 -20.818 -19.663  0.00  0.00    +0.072 C 
ATOM      9  C   UNL     1      37.172 -20.252 -19.578  0.00  0.00    +0.017 C 
ATOM     10  C   UNL     1      34.636 -19.881 -20.679  0.00  0.00    +0.033 C 
ATOM     11  C   UNL     1      36.983 -19.315 -20.593  0.00  0.00    +0.021 C 
BRANCH   7  12
ATOM     12  S   UNL     1      35.479 -17.957 -22.416  0.00  0.00    +0.057 S 
ATOM     13  O   UNL     1      34.468 -18.467 -23.330  0.00  0.00    -0.153 OA
ATOM     14  O   UNL     1      35.310 -16.644 -21.809  0.00  0.00    -0.153 OA
BRANCH  12  15
ATOM     15  N   UNL     1      37.000 -18.010 -23.193  0.00  0.00    -0.203 NA
ATOM     16  H   UNL     1      36.914 -17.626 -24.134  0.00  0.00    +0.144 HD
ATOM     17  H   UNL     1      37.322 -18.976 -23.247  0.00  0.00    +0.144 HD
ENDBRANCH  12  15
ENDBRANCH   7  12
ENDBRANCH   2   6
BRANCH   3  18
ATOM     18  C   UNL     1      37.024 -22.991 -16.028  0.00  0.00    +0.152 C 
BRANCH  18  19
ATOM     19  S   UNL     1      35.807 -22.832 -14.703  0.00  0.00    -0.047 S 
BRANCH  19  31
ATOM     20  O   UNL     1      34.350 -23.484 -16.761  0.00  0.00    -0.262 OA
ATOM     21  N   UNL     1      33.194 -23.549 -14.716  0.00  0.00    -0.250 N 
ATOM     22  C   UNL     1      32.261 -25.036 -12.952  0.00  0.00    +0.027 C 
ATOM     23  C   UNL     1      30.882 -24.429 -13.102  0.00  0.00    +0.029 C 
ATOM     24  C   UNL     1      33.313 -24.003 -13.314  0.00  0.00    +0.099 C 
ATOM     25  C   UNL     1      30.730 -23.751 -14.438  0.00  0.00    -0.009 C 
ATOM     26  C   UNL     1      31.843 -23.326 -15.200  0.00  0.00    +0.051 C 
ATOM     27  C   UNL     1      29.421 -23.509 -14.896  0.00  0.00    -0.007 C 
ATOM     28  C   UNL     1      31.585 -22.648 -16.406  0.00  0.00    +0.014 C 
ATOM     29  C   UNL     1      29.197 -22.858 -16.103  0.00  0.00    -0.022 C 
ATOM     30  C   UNL     1      30.279 -22.424 -16.855  0.00  0.00    -0.003 C 
ATOM     31  C   UNL     1      34.324 -23.348 -15.542  0.00  0.00    +0.280 C 
ATOM     32  C   UNL     1      27.806 -22.643 -16.593  0.00  0.00    +0.031 C 
ENDBRANCH  19  31
ENDBRANCH  18  19
ENDBRANCH   3  18
TORSDOF 6
ENDMDL
MODEL 7
REMARK VINA RESULT:     -10.2      4.154      6.238
REMARK  Name = 24878044
REMARK  6 active torsions:
REMARK  status: ('A' for Active; 'I' for Inactive)
REMARK    1  A    between atoms: N_2  and  C_6
REMARK    2  A    between atoms: C_3  and  C_18
REMARK    3  A    between atoms: C_7  and  S_12
REMARK    4  A    between atoms: S_12  and  N_15
REMARK    5  A    between atoms: C_18  and  S_19
REMARK    6  A    between atoms: S_19  and  C_31
REMARK                            x       y       z     vdW  Elec       q    Type
REMARK                         _______ _______ _______ _____ _____    ______ ____
ROOT
ATOM      1  O   UNL     1      31.939 -13.542 -20.161  0.00  0.00    -0.274 OA
ATOM      2  N   UNL     1      33.504 -13.096 -21.856  0.00  0.00    -0.283 N 
ATOM      3  C   UNL     1      32.477 -12.791 -20.970  0.00  0.00    +0.238 C 
ATOM      4  H   UNL     1      33.803 -12.365 -22.444  0.00  0.00    +0.155 HD
ENDROOT
BRANCH   2   6
ATOM      5 CL   UNL     1      33.878 -14.094 -24.711  0.00  0.00    -0.081 Cl
ATOM      6  C   UNL     1      34.170 -14.336 -22.009  0.00  0.00    +0.061 C 
ATOM      7  C   UNL     1      35.489 -16.782 -22.238  0.00  0.00    +0.123 C 
ATOM      8  C   UNL     1      34.397 -14.889 -23.268  0.00  0.00    +0.072 C 
ATOM      9  C   UNL     1      34.602 -15.006 -20.863  0.00  0.00    +0.017 C 
ATOM     10  C   UNL     1      35.057 -16.113 -23.383  0.00  0.00    +0.033 C 
ATOM     11  C   UNL     1      35.262 -16.229 -20.978  0.00  0.00    +0.021 C 
BRANCH   7  12
ATOM     12  S   UNL     1      36.315 -18.314 -22.382  0.00  0.00    +0.057 S 
ATOM     13  O   UNL     1      35.819 -18.995 -23.569  0.00  0.00    -0.153 OA
ATOM     14  O   UNL     1      37.744 -18.086 -22.222  0.00  0.00    -0.153 OA
BRANCH  12  15
ATOM     15  N   UNL     1      35.732 -19.129 -20.997  0.00  0.00    -0.203 NA
ATOM     16  H   UNL     1      36.198 -18.763 -20.166  0.00  0.00    +0.144 HD
ATOM     17  H   UNL     1      35.923 -20.127 -21.083  0.00  0.00    +0.144 HD
ENDBRANCH  12  15
ENDBRANCH   7  12
ENDBRANCH   2   6
BRANCH   3  18
ATOM     18  C   UNL     1      32.022 -11.353 -21.103  0.00  0.00    +0.152 C 
BRANCH  18  19
ATOM     19  S   UNL     1      32.727 -10.655 -22.613  0.00  0.00    -0.047 S 
BRANCH  19  31
ATOM     20  O   UNL     1      31.849  -8.539 -21.375  0.00  0.00    -0.262 OA
ATOM     21  N   UNL     1      33.374  -8.070 -23.102  0.00  0.00    -0.250 N 
ATOM     22  C   UNL     1      35.715  -7.407 -23.625  0.00  0.00    +0.027 C 
ATOM     23  C   UNL     1      35.247  -6.218 -24.437  0.00  0.00    +0.029 C 
ATOM     24  C   UNL     1      34.665  -8.503 -23.677  0.00  0.00    +0.099 C 
ATOM     25  C   UNL     1      33.843  -5.824 -24.065  0.00  0.00    -0.009 C 
ATOM     26  C   UNL     1      32.950  -6.721 -23.432  0.00  0.00    +0.051 C 
ATOM     27  C   UNL     1      33.422  -4.526 -24.409  0.00  0.00    -0.007 C 
ATOM     28  C   UNL     1      31.641  -6.268 -23.185  0.00  0.00    +0.014 C 
ATOM     29  C   UNL     1      32.130  -4.098 -24.130  0.00  0.00    -0.022 C 
ATOM     30  C   UNL     1      31.239  -4.971 -23.522  0.00  0.00    -0.003 C 
ATOM     31  C   UNL     1      32.596  -8.913 -22.274  0.00  0.00    +0.280 C 
ATOM     32  C   UNL     1      31.709  -2.708 -24.466  0.00  0.00    +0.031 C 
ENDBRANCH  19  31
ENDBRANCH  18  19
ENDBRANCH   3  18
TORSDOF 6
ENDMDL
MODEL 8
REMARK VINA RESULT:     -10.2      4.208     10.916
REMARK  Name = 24878044
REMARK  6 active torsions:
REMARK  status: ('A' for Active; 'I' for Inactive)
REMARK    1  A    between atoms: N_2  and  C_6
REMARK    2  A    between atoms: C_3  and  C_18
REMARK    3  A    between atoms: C_7  and  S_12
REMARK    4  A    between atoms: S_12  and  N_15
REMARK    5  A    between atoms: C_18  and  S_19
REMARK    6  A    between atoms: S_19  and  C_31
REMARK                            x       y       z     vdW  Elec       q    Type
REMARK                         _______ _______ _______ _____ _____    ______ ____
ROOT
ATOM      1  O   UNL     1      34.103 -19.959 -20.645  0.00  0.00    -0.274 OA
ATOM      2  N   UNL     1      36.039 -18.871 -21.414  0.00  0.00    -0.283 N 
ATOM      3  C   UNL     1      35.322 -19.819 -20.693  0.00  0.00    +0.238 C 
ATOM      4  H   UNL     1      37.018 -18.902 -21.321  0.00  0.00    +0.155 HD
ENDROOT
BRANCH   2   6
ATOM      5 CL   UNL     1      35.186 -19.763 -24.200  0.00  0.00    -0.081 Cl
ATOM      6  C   UNL     1      35.522 -17.866 -22.267  0.00  0.00    +0.061 C 
ATOM      7  C   UNL     1      34.512 -15.840 -23.896  0.00  0.00    +0.123 C 
ATOM      8  C   UNL     1      35.100 -18.159 -23.563  0.00  0.00    +0.072 C 
ATOM      9  C   UNL     1      35.439 -16.559 -21.785  0.00  0.00    +0.017 C 
ATOM     10  C   UNL     1      34.595 -17.146 -24.377  0.00  0.00    +0.033 C 
ATOM     11  C   UNL     1      34.933 -15.546 -22.599  0.00  0.00    +0.021 C 
BRANCH   7  12
ATOM     12  S   UNL     1      33.879 -14.571 -24.915  0.00  0.00    +0.057 S 
ATOM     13  O   UNL     1      33.057 -13.691 -24.097  0.00  0.00    -0.153 OA
ATOM     14  O   UNL     1      34.975 -14.017 -25.698  0.00  0.00    -0.153 OA
BRANCH  12  15
ATOM     15  N   UNL     1      32.861 -15.466 -25.955  0.00  0.00    -0.203 NA
ATOM     16  H   UNL     1      31.982 -15.670 -25.477  0.00  0.00    +0.144 HD
ATOM     17  H   UNL     1      33.320 -16.340 -26.211  0.00  0.00    +0.144 HD
ENDBRANCH  12  15
ENDBRANCH   7  12
ENDBRANCH   2   6
BRANCH   3  18
ATOM     18  C   UNL     1      36.231 -20.727 -19.891  0.00  0.00    +0.152 C 
BRANCH  18  19
ATOM     19  S   UNL     1      35.224 -21.982 -19.070  0.00  0.00    -0.047 S 
BRANCH  19  31
ATOM     20  O   UNL     1      36.944 -21.307 -17.234  0.00  0.00    -0.262 OA
ATOM     21  N   UNL     1      35.236 -22.728 -16.465  0.00  0.00    -0.250 N 
ATOM     22  C   UNL     1      33.124 -22.847 -15.153  0.00  0.00    +0.027 C 
ATOM     23  C   UNL     1      33.693 -23.917 -14.245  0.00  0.00    +0.029 C 
ATOM     24  C   UNL     1      33.775 -22.944 -16.522  0.00  0.00    +0.099 C 
ATOM     25  C   UNL     1      35.198 -23.914 -14.279  0.00  0.00    -0.009 C 
ATOM     26  C   UNL     1      35.928 -23.349 -15.350  0.00  0.00    +0.051 C 
ATOM     27  C   UNL     1      35.871 -24.540 -13.212  0.00  0.00    -0.007 C 
ATOM     28  C   UNL     1      37.331 -23.456 -15.309  0.00  0.00    +0.014 C 
ATOM     29  C   UNL     1      37.258 -24.609 -13.186  0.00  0.00    -0.022 C 
ATOM     30  C   UNL     1      37.987 -24.070 -14.237  0.00  0.00    -0.003 C 
ATOM     31  C   UNL     1      35.923 -21.958 -17.433  0.00  0.00    +0.280 C 
ATOM     32  C   UNL     1      37.958 -25.241 -12.032  0.00  0.00    +0.031 C 
ENDBRANCH  19  31
ENDBRANCH  18  19
ENDBRANCH   3  18
TORSDOF 6
ENDMDL
MODEL 9
REMARK VINA RESULT:     -10.2      1.573      2.875
REMARK  Name = 24878044
REMARK  6 active torsions:
REMARK  status: ('A' for Active; 'I' for Inactive)
REMARK    1  A    between atoms: N_2  and  C_6
REMARK    2  A    between atoms: C_3  and  C_18
REMARK    3  A    between atoms: C_7  and  S_12
REMARK    4  A    between atoms: S_12  and  N_15
REMARK    5  A    between atoms: C_18  and  S_19
REMARK    6  A    between atoms: S_19  and  C_31
REMARK                            x       y       z     vdW  Elec       q    Type
REMARK                         _______ _______ _______ _____ _____    ______ ____
ROOT
ATOM      1  O   UNL     1      35.243 -15.892 -21.011  0.00  0.00    -0.274 OA
ATOM      2  N   UNL     1      35.148 -17.739 -22.462  0.00  0.00    -0.283 N 
ATOM      3  C   UNL     1      35.280 -16.394 -22.131  0.00  0.00    +0.238 C 
ATOM      4  H   UNL     1      35.191 -17.957 -23.420  0.00  0.00    +0.155 HD
ENDROOT
BRANCH   2   6
ATOM      5 CL   UNL     1      37.658 -18.888 -21.172  0.00  0.00    -0.081 Cl
ATOM      6  C   UNL     1      34.961 -18.828 -21.577  0.00  0.00    +0.061 C 
ATOM      7  C   UNL     1      34.521 -20.971 -19.847  0.00  0.00    +0.123 C 
ATOM      8  C   UNL     1      36.037 -19.433 -20.931  0.00  0.00    +0.072 C 
ATOM      9  C   UNL     1      33.664 -19.294 -21.359  0.00  0.00    +0.017 C 
ATOM     10  C   UNL     1      35.817 -20.505 -20.065  0.00  0.00    +0.033 C 
ATOM     11  C   UNL     1      33.444 -20.365 -20.494  0.00  0.00    +0.021 C 
BRANCH   7  12
ATOM     12  S   UNL     1      34.245 -22.312 -18.763  0.00  0.00    +0.057 S 
ATOM     13  O   UNL     1      34.222 -23.539 -19.547  0.00  0.00    -0.153 OA
ATOM     14  O   UNL     1      35.159 -22.191 -17.635  0.00  0.00    -0.153 OA
BRANCH  12  15
ATOM     15  N   UNL     1      32.659 -21.973 -18.223  0.00  0.00    -0.203 NA
ATOM     16  H   UNL     1      32.537 -22.338 -17.278  0.00  0.00    +0.144 HD
ATOM     17  H   UNL     1      31.986 -22.414 -18.849  0.00  0.00    +0.144 HD
ENDBRANCH  12  15
ENDBRANCH   7  12
ENDBRANCH   2   6
BRANCH   3  18
ATOM     18  C   UNL     1      35.467 -15.525 -23.357  0.00  0.00    +0.152 C 
BRANCH  18  19
ATOM     19  S   UNL     1      34.010 -15.687 -24.414  0.00  0.00    -0.047 S 
BRANCH  19  31
ATOM     20  O   UNL     1      33.811 -13.721 -26.111  0.00  0.00    -0.262 OA
ATOM     21  N   UNL     1      33.554 -13.073 -23.866  0.00  0.00    -0.250 N 
ATOM     22  C   UNL     1      31.918 -12.393 -22.117  0.00  0.00    +0.027 C 
ATOM     23  C   UNL     1      32.669 -11.106 -21.848  0.00  0.00    +0.029 C 
ATOM     24  C   UNL     1      32.889 -13.456 -22.602  0.00  0.00    +0.099 C 
ATOM     25  C   UNL     1      33.549 -10.736 -23.012  0.00  0.00    -0.009 C 
ATOM     26  C   UNL     1      33.974 -11.687 -23.969  0.00  0.00    +0.051 C 
ATOM     27  C   UNL     1      33.979  -9.398 -23.099  0.00  0.00    -0.007 C 
ATOM     28  C   UNL     1      34.844 -11.244 -24.983  0.00  0.00    +0.014 C 
ATOM     29  C   UNL     1      34.819  -8.985 -24.126  0.00  0.00    -0.022 C 
ATOM     30  C   UNL     1      35.255  -9.909 -25.064  0.00  0.00    -0.003 C 
ATOM     31  C   UNL     1      33.768 -13.997 -24.916  0.00  0.00    +0.280 C 
ATOM     32  C   UNL     1      35.235  -7.558 -24.227  0.00  0.00    +0.031 C 
ENDBRANCH  19  31
ENDBRANCH  18  19
ENDBRANCH   3  18
TORSDOF 6
ENDMDL
