MODEL 1
REMARK VINA RESULT:     -11.5      0.000      0.000
REMARK  Name = 3351
REMARK  5 active torsions:
REMARK  status: ('A' for Active; 'I' for Inactive)
REMARK    1  A    between atoms: N_2  and  C_10
REMARK    2  A    between atoms: C_8  and  C_20
REMARK    3  A    between atoms: C_10  and  C_13
REMARK    4  A    between atoms: C_20  and  O_21
REMARK    5  A    between atoms: O_21  and  C_23
REMARK                            x       y       z     vdW  Elec       q    Type
REMARK                         _______ _______ _______ _____ _____    ______ ____
ROOT
ATOM      1  O   UNL     1      35.592 -16.777 -23.711  0.00  0.00    -0.271 OA
ATOM      2  N   UNL     1      33.135 -12.827 -21.902  0.00  0.00    +0.392 N 
ATOM      3  N   UNL     1      34.845 -15.090 -22.299  0.00  0.00    -0.281 N 
ATOM      4  C   UNL     1      33.229 -13.468 -23.221  0.00  0.00    -0.055 C 
ATOM      5  C   UNL     1      33.314 -13.820 -20.833  0.00  0.00    -0.055 C 
ATOM      6  C   UNL     1      34.583 -14.157 -23.393  0.00  0.00    +0.071 C 
ATOM      7  C   UNL     1      34.668 -14.523 -20.960  0.00  0.00    +0.071 C 
ATOM      8  C   UNL     1      35.345 -16.362 -22.576  0.00  0.00    +0.270 C 
ATOM      9  H   UNL     1      33.881 -12.134 -21.826  0.00  0.00    -0.079 HD
ENDROOT
BRANCH   2  10
ATOM     10  C   UNL     1      31.853 -12.140 -21.755  0.00  0.00    -0.050 C 
BRANCH  10  13
ATOM     11  O   UNL     1      32.522  -7.248 -21.692  0.00  0.00    -0.435 OA
ATOM     12  O   UNL     1      32.429  -7.150 -19.286  0.00  0.00    -0.435 OA
ATOM     13  C   UNL     1      32.004 -10.814 -21.057  0.00  0.00    -0.040 C 
ATOM     14  C   UNL     1      32.195  -9.664 -21.816  0.00  0.00    +0.034 C 
ATOM     15  C   UNL     1      31.948 -10.768 -19.659  0.00  0.00    -0.003 C 
ATOM     16  C   UNL     1      32.328  -8.472 -21.132  0.00  0.00    +0.176 C 
ATOM     17  C   UNL     1      32.275  -8.417 -19.758  0.00  0.00    +0.176 C 
ATOM     18  C   UNL     1      32.086  -9.548 -18.992  0.00  0.00    +0.040 C 
ATOM     19  C   UNL     1      32.585  -6.414 -20.518  0.00  0.00    +0.429 C 
ENDBRANCH  10  13
ENDBRANCH   2  10
BRANCH   8  20
ATOM     20  C   UNL     1      35.583 -17.266 -21.393  0.00  0.00    +0.290 C 
BRANCH  20  21
ATOM     21  O   UNL     1      35.486 -18.586 -21.868  0.00  0.00    -0.466 OA
BRANCH  21  23
ATOM     22 CL   UNL     1      33.690 -22.698 -18.080  0.00  0.00    -0.082 Cl
ATOM     23  C   UNL     1      35.065 -19.549 -20.978  0.00  0.00    +0.139 C 
ATOM     24  C   UNL     1      36.007 -20.303 -20.294  0.00  0.00    +0.038 C 
ATOM     25  C   UNL     1      33.707 -19.749 -20.783  0.00  0.00    +0.038 C 
ATOM     26  C   UNL     1      35.580 -21.280 -19.395  0.00  0.00    +0.015 C 
ATOM     27  C   UNL     1      33.280 -20.727 -19.883  0.00  0.00    +0.015 C 
ATOM     28  C   UNL     1      34.216 -21.492 -19.189  0.00  0.00    +0.058 C 
ENDBRANCH  21  23
ENDBRANCH  20  21
ENDBRANCH   8  20
TORSDOF 5
ENDMDL
MODEL 2
REMARK VINA RESULT:     -11.2      4.542     10.356
REMARK  Name = 3351
REMARK  5 active torsions:
REMARK  status: ('A' for Active; 'I' for Inactive)
REMARK    1  A    between atoms: N_2  and  C_10
REMARK    2  A    between atoms: C_8  and  C_20
REMARK    3  A    between atoms: C_10  and  C_13
REMARK    4  A    between atoms: C_20  and  O_21
REMARK    5  A    between atoms: O_21  and  C_23
REMARK                            x       y       z     vdW  Elec       q    Type
REMARK                         _______ _______ _______ _____ _____    ______ ____
ROOT
ATOM      1  O   UNL     1      33.618 -13.015 -25.753  0.00  0.00    -0.271 OA
ATOM      2  N   UNL     1      35.102 -17.011 -23.156  0.00  0.00    +0.392 N 
ATOM      3  N   UNL     1      34.088 -14.469 -24.003  0.00  0.00    -0.281 N 
ATOM      4  C   UNL     1      34.955 -16.706 -24.586  0.00  0.00    -0.055 C 
ATOM      5  C   UNL     1      35.426 -15.792 -22.401  0.00  0.00    -0.055 C 
ATOM      6  C   UNL     1      33.855 -15.668 -24.808  0.00  0.00    +0.071 C 
ATOM      7  C   UNL     1      34.339 -14.729 -22.583  0.00  0.00    +0.071 C 
ATOM      8  C   UNL     1      33.941 -13.207 -24.578  0.00  0.00    +0.270 C 
ATOM      9  H   UNL     1      34.214 -17.377 -22.810  0.00  0.00    -0.079 HD
ENDROOT
BRANCH   2  10
ATOM     10  C   UNL     1      36.130 -18.030 -22.950  0.00  0.00    -0.050 C 
BRANCH  10  13
ATOM     11  O   UNL     1      32.928 -20.642 -20.248  0.00  0.00    -0.435 OA
ATOM     12  O   UNL     1      34.664 -21.514 -18.823  0.00  0.00    -0.435 OA
ATOM     13  C   UNL     1      35.772 -18.970 -21.830  0.00  0.00    -0.040 C 
ATOM     14  C   UNL     1      34.440 -19.321 -21.636  0.00  0.00    +0.034 C 
ATOM     15  C   UNL     1      36.789 -19.470 -21.008  0.00  0.00    -0.003 C 
ATOM     16  C   UNL     1      34.161 -20.185 -20.597  0.00  0.00    +0.176 C 
ATOM     17  C   UNL     1      35.153 -20.683 -19.783  0.00  0.00    +0.176 C 
ATOM     18  C   UNL     1      36.478 -20.344 -19.963  0.00  0.00    +0.040 C 
ATOM     19  C   UNL     1      33.254 -21.484 -19.124  0.00  0.00    +0.429 C 
ENDBRANCH  10  13
ENDBRANCH   2  10
BRANCH   8  20
ATOM     20  C   UNL     1      34.204 -12.023 -23.682  0.00  0.00    +0.290 C 
BRANCH  20  21
ATOM     21  O   UNL     1      34.717 -11.003 -24.503  0.00  0.00    -0.466 OA
BRANCH  21  23
ATOM     22 CL   UNL     1      33.581  -5.459 -22.935  0.00  0.00    -0.082 Cl
ATOM     23  C   UNL     1      34.451  -9.703 -24.137  0.00  0.00    +0.139 C 
ATOM     24  C   UNL     1      35.462  -8.757 -24.198  0.00  0.00    +0.038 C 
ATOM     25  C   UNL     1      33.174  -9.362 -23.713  0.00  0.00    +0.038 C 
ATOM     26  C   UNL     1      35.193  -7.440 -23.825  0.00  0.00    +0.015 C 
ATOM     27  C   UNL     1      32.905  -8.045 -23.340  0.00  0.00    +0.015 C 
ATOM     28  C   UNL     1      33.913  -7.084 -23.396  0.00  0.00    +0.058 C 
ENDBRANCH  21  23
ENDBRANCH  20  21
ENDBRANCH   8  20
TORSDOF 5
ENDMDL
MODEL 3
REMARK VINA RESULT:     -10.8      5.413      8.192
REMARK  Name = 3351
REMARK  5 active torsions:
REMARK  status: ('A' for Active; 'I' for Inactive)
REMARK    1  A    between atoms: N_2  and  C_10
REMARK    2  A    between atoms: C_8  and  C_20
REMARK    3  A    between atoms: C_10  and  C_13
REMARK    4  A    between atoms: C_20  and  O_21
REMARK    5  A    between atoms: O_21  and  C_23
REMARK                            x       y       z     vdW  Elec       q    Type
REMARK                         _______ _______ _______ _____ _____    ______ ____
ROOT
ATOM      1  O   UNL     1      31.769 -22.033 -17.558  0.00  0.00    -0.271 OA
ATOM      2  N   UNL     1      35.278 -20.381 -20.700  0.00  0.00    +0.392 N 
ATOM      3  N   UNL     1      33.650 -21.922 -18.916  0.00  0.00    -0.281 N 
ATOM      4  C   UNL     1      34.002 -19.845 -20.203  0.00  0.00    -0.055 C 
ATOM      5  C   UNL     1      35.899 -21.250 -19.690  0.00  0.00    -0.055 C 
ATOM      6  C   UNL     1      33.039 -20.978 -19.852  0.00  0.00    +0.071 C 
ATOM      7  C   UNL     1      34.971 -22.410 -19.321  0.00  0.00    +0.071 C 
ATOM      8  C   UNL     1      32.926 -22.376 -17.815  0.00  0.00    +0.270 C 
ATOM      9  H   UNL     1      35.091 -20.938 -21.534  0.00  0.00    -0.079 HD
ENDROOT
BRANCH   2  10
ATOM     10  C   UNL     1      36.184 -19.293 -21.068  0.00  0.00    -0.050 C 
BRANCH  10  13
ATOM     11  O   UNL     1      34.988 -15.051 -23.294  0.00  0.00    -0.435 OA
ATOM     12  O   UNL     1      34.230 -16.176 -25.286  0.00  0.00    -0.435 OA
ATOM     13  C   UNL     1      35.652 -18.487 -22.223  0.00  0.00    -0.040 C 
ATOM     14  C   UNL     1      35.608 -17.100 -22.120  0.00  0.00    +0.034 C 
ATOM     15  C   UNL     1      35.214 -19.150 -23.374  0.00  0.00    -0.003 C 
ATOM     16  C   UNL     1      35.113 -16.403 -23.203  0.00  0.00    +0.176 C 
ATOM     17  C   UNL     1      34.680 -17.046 -24.340  0.00  0.00    +0.176 C 
ATOM     18  C   UNL     1      34.717 -18.420 -24.457  0.00  0.00    +0.040 C 
ATOM     19  C   UNL     1      34.429 -14.914 -24.616  0.00  0.00    +0.429 C 
ENDBRANCH  10  13
ENDBRANCH   2  10
BRANCH   8  20
ATOM     20  C   UNL     1      33.629 -23.343 -16.897  0.00  0.00    +0.290 C 
BRANCH  20  21
ATOM     21  O   UNL     1      34.442 -22.573 -16.047  0.00  0.00    -0.466 OA
BRANCH  21  23
ATOM     22 CL   UNL     1      39.433 -25.010 -14.139  0.00  0.00    -0.082 Cl
ATOM     23  C   UNL     1      35.612 -23.146 -15.601  0.00  0.00    +0.139 C 
ATOM     24  C   UNL     1      35.562 -24.336 -14.892  0.00  0.00    +0.038 C 
ATOM     25  C   UNL     1      36.822 -22.520 -15.868  0.00  0.00    +0.038 C 
ATOM     26  C   UNL     1      36.747 -24.915 -14.438  0.00  0.00    +0.015 C 
ATOM     27  C   UNL     1      38.007 -23.099 -15.414  0.00  0.00    +0.015 C 
ATOM     28  C   UNL     1      37.971 -24.296 -14.700  0.00  0.00    +0.058 C 
ENDBRANCH  21  23
ENDBRANCH  20  21
ENDBRANCH   8  20
TORSDOF 5
ENDMDL
MODEL 4
REMARK VINA RESULT:     -10.4      3.900      6.349
REMARK  Name = 3351
REMARK  5 active torsions:
REMARK  status: ('A' for Active; 'I' for Inactive)
REMARK    1  A    between atoms: N_2  and  C_10
REMARK    2  A    between atoms: C_8  and  C_20
REMARK    3  A    between atoms: C_10  and  C_13
REMARK    4  A    between atoms: C_20  and  O_21
REMARK    5  A    between atoms: O_21  and  C_23
REMARK                            x       y       z     vdW  Elec       q    Type
REMARK                         _______ _______ _______ _____ _____    ______ ____
ROOT
ATOM      1  O   UNL     1      37.032 -21.521 -18.871  0.00  0.00    -0.271 OA
ATOM      2  N   UNL     1      35.476 -18.335 -22.383  0.00  0.00    +0.392 N 
ATOM      3  N   UNL     1      35.688 -20.143 -20.172  0.00  0.00    -0.281 N 
ATOM      4  C   UNL     1      36.789 -18.842 -21.958  0.00  0.00    -0.055 C 
ATOM      5  C   UNL     1      34.433 -19.343 -22.144  0.00  0.00    -0.055 C 
ATOM      6  C   UNL     1      36.772 -19.209 -20.475  0.00  0.00    +0.071 C 
ATOM      7  C   UNL     1      34.372 -19.728 -20.664  0.00  0.00    +0.071 C 
ATOM      8  C   UNL     1      35.934 -21.254 -19.367  0.00  0.00    +0.270 C 
ATOM      9  H   UNL     1      35.256 -17.506 -21.831  0.00  0.00    -0.079 HD
ENDROOT
BRANCH   2  10
ATOM     10  C   UNL     1      35.505 -17.952 -23.794  0.00  0.00    -0.050 C 
BRANCH  10  13
ATOM     11  O   UNL     1      34.956 -13.183 -22.638  0.00  0.00    -0.435 OA
ATOM     12  O   UNL     1      33.471 -12.785 -24.494  0.00  0.00    -0.435 OA
ATOM     13  C   UNL     1      34.940 -16.574 -24.013  0.00  0.00    -0.040 C 
ATOM     14  C   UNL     1      35.285 -15.550 -23.137  0.00  0.00    +0.034 C 
ATOM     15  C   UNL     1      34.078 -16.354 -25.094  0.00  0.00    -0.003 C 
ATOM     16  C   UNL     1      34.741 -14.304 -23.378  0.00  0.00    +0.176 C 
ATOM     17  C   UNL     1      33.893 -14.077 -24.438  0.00  0.00    +0.176 C 
ATOM     18  C   UNL     1      33.541 -15.083 -25.315  0.00  0.00    +0.040 C 
ATOM     19  C   UNL     1      34.149 -12.224 -23.351  0.00  0.00    +0.429 C 
ENDBRANCH  10  13
ENDBRANCH   2  10
BRANCH   8  20
ATOM     20  C   UNL     1      34.765 -22.171 -19.106  0.00  0.00    +0.290 C 
BRANCH  20  21
ATOM     21  O   UNL     1      34.998 -22.776 -17.859  0.00  0.00    -0.466 OA
BRANCH  21  23
ATOM     22 CL   UNL     1      30.505 -22.996 -14.085  0.00  0.00    -0.082 Cl
ATOM     23  C   UNL     1      33.944 -22.830 -16.975  0.00  0.00    +0.139 C 
ATOM     24  C   UNL     1      32.661 -22.561 -17.427  0.00  0.00    +0.038 C 
ATOM     25  C   UNL     1      34.185 -23.149 -15.646  0.00  0.00    +0.038 C 
ATOM     26  C   UNL     1      31.594 -22.613 -16.530  0.00  0.00    +0.015 C 
ATOM     27  C   UNL     1      33.117 -23.201 -14.750  0.00  0.00    +0.015 C 
ATOM     28  C   UNL     1      31.822 -22.933 -15.191  0.00  0.00    +0.058 C 
ENDBRANCH  21  23
ENDBRANCH  20  21
ENDBRANCH   8  20
TORSDOF 5
ENDMDL
MODEL 5
REMARK VINA RESULT:     -10.4      8.252     13.758
REMARK  Name = 3351
REMARK  5 active torsions:
REMARK  status: ('A' for Active; 'I' for Inactive)
REMARK    1  A    between atoms: N_2  and  C_10
REMARK    2  A    between atoms: C_8  and  C_20
REMARK    3  A    between atoms: C_10  and  C_13
REMARK    4  A    between atoms: C_20  and  O_21
REMARK    5  A    between atoms: O_21  and  C_23
REMARK                            x       y       z     vdW  Elec       q    Type
REMARK                         _______ _______ _______ _____ _____    ______ ____
ROOT
ATOM      1  O   UNL     1      31.650 -23.189 -16.573  0.00  0.00    -0.271 OA
ATOM      2  N   UNL     1      35.520 -23.988 -13.523  0.00  0.00    +0.392 N 
ATOM      3  N   UNL     1      33.783 -23.177 -15.652  0.00  0.00    -0.281 N 
ATOM      4  C   UNL     1      34.077 -24.256 -13.451  0.00  0.00    -0.055 C 
ATOM      5  C   UNL     1      35.982 -24.033 -14.918  0.00  0.00    -0.055 C 
ATOM      6  C   UNL     1      33.295 -23.234 -14.275  0.00  0.00    +0.071 C 
ATOM      7  C   UNL     1      35.234 -23.011 -15.776  0.00  0.00    +0.071 C 
ATOM      8  C   UNL     1      32.876 -23.160 -16.710  0.00  0.00    +0.270 C 
ATOM      9  H   UNL     1      35.694 -23.052 -13.156  0.00  0.00    -0.079 HD
ENDROOT
BRANCH   2  10
ATOM     10  C   UNL     1      36.263 -24.947 -12.706  0.00  0.00    -0.050 C 
BRANCH  10  13
ATOM     11  O   UNL     1      38.909 -27.578 -15.940  0.00  0.00    -0.435 OA
ATOM     12  O   UNL     1      40.985 -26.585 -15.224  0.00  0.00    -0.435 OA
ATOM     13  C   UNL     1      37.552 -25.363 -13.362  0.00  0.00    -0.040 C 
ATOM     14  C   UNL     1      37.524 -26.318 -14.374  0.00  0.00    +0.034 C 
ATOM     15  C   UNL     1      38.753 -24.781 -12.938  0.00  0.00    -0.003 C 
ATOM     16  C   UNL     1      38.731 -26.668 -14.944  0.00  0.00    +0.176 C 
ATOM     17  C   UNL     1      39.916 -26.101 -14.535  0.00  0.00    +0.176 C 
ATOM     18  C   UNL     1      39.961 -25.154 -13.533  0.00  0.00    +0.040 C 
ATOM     19  C   UNL     1      40.339 -27.520 -16.113  0.00  0.00    +0.429 C 
ENDBRANCH  10  13
ENDBRANCH   2  10
BRANCH   8  20
ATOM     20  C   UNL     1      33.461 -23.107 -18.099  0.00  0.00    +0.290 C 
BRANCH  20  21
ATOM     21  O   UNL     1      32.933 -21.958 -18.714  0.00  0.00    -0.466 OA
BRANCH  21  23
ATOM     22 CL   UNL     1      36.618 -18.644 -21.864  0.00  0.00    -0.082 Cl
ATOM     23  C   UNL     1      33.797 -21.183 -19.454  0.00  0.00    +0.139 C 
ATOM     24  C   UNL     1      35.165 -21.327 -19.276  0.00  0.00    +0.038 C 
ATOM     25  C   UNL     1      33.285 -20.268 -20.363  0.00  0.00    +0.038 C 
ATOM     26  C   UNL     1      36.040 -20.540 -20.024  0.00  0.00    +0.015 C 
ATOM     27  C   UNL     1      34.161 -19.481 -21.111  0.00  0.00    +0.015 C 
ATOM     28  C   UNL     1      35.538 -19.616 -20.942  0.00  0.00    +0.058 C 
ENDBRANCH  21  23
ENDBRANCH  20  21
ENDBRANCH   8  20
TORSDOF 5
ENDMDL
MODEL 6
REMARK VINA RESULT:     -10.3      7.688     11.396
REMARK  Name = 3351
REMARK  5 active torsions:
REMARK  status: ('A' for Active; 'I' for Inactive)
REMARK    1  A    between atoms: N_2  and  C_10
REMARK    2  A    between atoms: C_8  and  C_20
REMARK    3  A    between atoms: C_10  and  C_13
REMARK    4  A    between atoms: C_20  and  O_21
REMARK    5  A    between atoms: O_21  and  C_23
REMARK                            x       y       z     vdW  Elec       q    Type
REMARK                         _______ _______ _______ _____ _____    ______ ____
ROOT
ATOM      1  O   UNL     1      37.586 -21.048 -17.234  0.00  0.00    -0.271 OA
ATOM      2  N   UNL     1      33.866 -23.501 -14.985  0.00  0.00    +0.392 N 
ATOM      3  N   UNL     1      35.745 -22.413 -16.853  0.00  0.00    -0.281 N 
ATOM      4  C   UNL     1      34.996 -22.685 -14.517  0.00  0.00    -0.055 C 
ATOM      5  C   UNL     1      33.420 -23.050 -16.310  0.00  0.00    -0.055 C 
ATOM      6  C   UNL     1      36.165 -22.767 -15.497  0.00  0.00    +0.071 C 
ATOM      7  C   UNL     1      34.559 -23.131 -17.329  0.00  0.00    +0.071 C 
ATOM      8  C   UNL     1      36.529 -21.553 -17.621  0.00  0.00    +0.270 C 
ATOM      9  H   UNL     1      34.177 -24.470 -15.062  0.00  0.00    -0.079 HD
ENDROOT
BRANCH   2  10
ATOM     10  C   UNL     1      32.763 -23.449 -14.027  0.00  0.00    -0.050 C 
BRANCH  10  13
ATOM     11  O   UNL     1      28.914 -21.880 -16.693  0.00  0.00    -0.435 OA
ATOM     12  O   UNL     1      27.805 -24.016 -16.561  0.00  0.00    -0.435 OA
ATOM     13  C   UNL     1      31.428 -23.638 -14.697  0.00  0.00    -0.040 C 
ATOM     14  C   UNL     1      30.856 -22.572 -15.384  0.00  0.00    +0.034 C 
ATOM     15  C   UNL     1      30.792 -24.882 -14.614  0.00  0.00    -0.003 C 
ATOM     16  C   UNL     1      29.631 -22.792 -15.982  0.00  0.00    +0.176 C 
ATOM     17  C   UNL     1      28.998 -24.012 -15.906  0.00  0.00    +0.176 C 
ATOM     18  C   UNL     1      29.553 -25.078 -15.228  0.00  0.00    +0.040 C 
ATOM     19  C   UNL     1      27.759 -22.662 -17.057  0.00  0.00    +0.429 C 
ENDBRANCH  10  13
ENDBRANCH   2  10
BRANCH   8  20
ATOM     20  C   UNL     1      36.024 -21.235 -19.005  0.00  0.00    +0.290 C 
BRANCH  20  21
ATOM     21  O   UNL     1      36.758 -20.124 -19.456  0.00  0.00    -0.466 OA
BRANCH  21  23
ATOM     22 CL   UNL     1      35.014 -17.587 -24.457  0.00  0.00    -0.082 Cl
ATOM     23  C   UNL     1      36.348 -19.528 -20.628  0.00  0.00    +0.139 C 
ATOM     24  C   UNL     1      35.066 -19.763 -21.100  0.00  0.00    +0.038 C 
ATOM     25  C   UNL     1      37.226 -18.703 -21.316  0.00  0.00    +0.038 C 
ATOM     26  C   UNL     1      34.651 -19.161 -22.288  0.00  0.00    +0.015 C 
ATOM     27  C   UNL     1      36.811 -18.101 -22.505  0.00  0.00    +0.015 C 
ATOM     28  C   UNL     1      35.525 -18.329 -22.991  0.00  0.00    +0.058 C 
ENDBRANCH  21  23
ENDBRANCH  20  21
ENDBRANCH   8  20
TORSDOF 5
ENDMDL
MODEL 7
REMARK VINA RESULT:     -10.3      8.288     11.829
REMARK  Name = 3351
REMARK  5 active torsions:
REMARK  status: ('A' for Active; 'I' for Inactive)
REMARK    1  A    between atoms: N_2  and  C_10
REMARK    2  A    between atoms: C_8  and  C_20
REMARK    3  A    between atoms: C_10  and  C_13
REMARK    4  A    between atoms: C_20  and  O_21
REMARK    5  A    between atoms: O_21  and  C_23
REMARK                            x       y       z     vdW  Elec       q    Type
REMARK                         _______ _______ _______ _____ _____    ______ ____
ROOT
ATOM      1  O   UNL     1      38.534 -22.446 -15.722  0.00  0.00    -0.271 OA
ATOM      2  N   UNL     1      33.946 -23.944 -14.451  0.00  0.00    +0.392 N 
ATOM      3  N   UNL     1      36.263 -22.931 -15.796  0.00  0.00    -0.281 N 
ATOM      4  C   UNL     1      35.269 -24.020 -13.815  0.00  0.00    -0.055 C 
ATOM      5  C   UNL     1      33.849 -22.747 -15.299  0.00  0.00    -0.055 C 
ATOM      6  C   UNL     1      36.375 -24.058 -14.870  0.00  0.00    +0.071 C 
ATOM      7  C   UNL     1      34.932 -22.754 -16.381  0.00  0.00    +0.071 C 
ATOM      8  C   UNL     1      37.401 -22.205 -16.145  0.00  0.00    +0.270 C 
ATOM      9  H   UNL     1      33.824 -24.768 -15.041  0.00  0.00    -0.079 HD
ENDROOT
BRANCH   2  10
ATOM     10  C   UNL     1      32.889 -23.943 -13.440  0.00  0.00    -0.050 C 
BRANCH  10  13
ATOM     11  O   UNL     1      28.823 -21.749 -15.181  0.00  0.00    -0.435 OA
ATOM     12  O   UNL     1      27.789 -23.852 -15.743  0.00  0.00    -0.435 OA
ATOM     13  C   UNL     1      31.518 -23.957 -14.062  0.00  0.00    -0.040 C 
ATOM     14  C   UNL     1      30.869 -22.750 -14.302  0.00  0.00    +0.034 C 
ATOM     15  C   UNL     1      30.926 -25.184 -14.384  0.00  0.00    -0.003 C 
ATOM     16  C   UNL     1      29.613 -22.813 -14.872  0.00  0.00    +0.176 C 
ATOM     17  C   UNL     1      29.023 -24.014 -15.193  0.00  0.00    +0.176 C 
ATOM     18  C   UNL     1      29.654 -25.218 -14.961  0.00  0.00    +0.040 C 
ATOM     19  C   UNL     1      27.669 -22.414 -15.732  0.00  0.00    +0.429 C 
ENDBRANCH  10  13
ENDBRANCH   2  10
BRANCH   8  20
ATOM     20  C   UNL     1      37.200 -21.055 -17.100  0.00  0.00    +0.290 C 
BRANCH  20  21
ATOM     21  O   UNL     1      37.004 -21.619 -18.374  0.00  0.00    -0.466 OA
BRANCH  21  23
ATOM     22 CL   UNL     1      34.892 -18.116 -22.587  0.00  0.00    -0.082 Cl
ATOM     23  C   UNL     1      36.508 -20.797 -19.360  0.00  0.00    +0.139 C 
ATOM     24  C   UNL     1      35.167 -20.877 -19.704  0.00  0.00    +0.038 C 
ATOM     25  C   UNL     1      37.359 -19.903 -19.994  0.00  0.00    +0.038 C 
ATOM     26  C   UNL     1      34.666 -20.046 -20.706  0.00  0.00    +0.015 C 
ATOM     27  C   UNL     1      36.857 -19.071 -20.995  0.00  0.00    +0.015 C 
ATOM     28  C   UNL     1      35.511 -19.142 -21.351  0.00  0.00    +0.058 C 
ENDBRANCH  21  23
ENDBRANCH  20  21
ENDBRANCH   8  20
TORSDOF 5
ENDMDL
MODEL 8
REMARK VINA RESULT:     -10.1      2.406      3.490
REMARK  Name = 3351
REMARK  5 active torsions:
REMARK  status: ('A' for Active; 'I' for Inactive)
REMARK    1  A    between atoms: N_2  and  C_10
REMARK    2  A    between atoms: C_8  and  C_20
REMARK    3  A    between atoms: C_10  and  C_13
REMARK    4  A    between atoms: C_20  and  O_21
REMARK    5  A    between atoms: O_21  and  C_23
REMARK                            x       y       z     vdW  Elec       q    Type
REMARK                         _______ _______ _______ _____ _____    ______ ____
ROOT
ATOM      1  O   UNL     1      34.197 -13.180 -26.312  0.00  0.00    -0.271 OA
ATOM      2  N   UNL     1      32.732 -11.145 -21.996  0.00  0.00    +0.392 N 
ATOM      3  N   UNL     1      33.698 -12.877 -24.063  0.00  0.00    -0.281 N 
ATOM      4  C   UNL     1      32.931 -10.637 -23.361  0.00  0.00    -0.055 C 
ATOM      5  C   UNL     1      32.336 -12.560 -22.026  0.00  0.00    -0.055 C 
ATOM      6  C   UNL     1      34.005 -11.447 -24.088  0.00  0.00    +0.071 C 
ATOM      7  C   UNL     1      33.394 -13.410 -22.733  0.00  0.00    +0.071 C 
ATOM      8  C   UNL     1      33.829 -13.635 -25.226  0.00  0.00    +0.270 C 
ATOM      9  H   UNL     1      33.615 -11.068 -21.491  0.00  0.00    -0.079 HD
ENDROOT
BRANCH   2  10
ATOM     10  C   UNL     1      31.729 -10.347 -21.292  0.00  0.00    -0.050 C 
BRANCH  10  13
ATOM     11  O   UNL     1      31.520  -5.925 -23.480  0.00  0.00    -0.435 OA
ATOM     12  O   UNL     1      32.772  -4.864 -21.715  0.00  0.00    -0.435 OA
ATOM     13  C   UNL     1      32.028  -8.873 -21.373  0.00  0.00    -0.040 C 
ATOM     14  C   UNL     1      31.574  -8.146 -22.469  0.00  0.00    +0.034 C 
ATOM     15  C   UNL     1      32.756  -8.267 -20.342  0.00  0.00    -0.003 C 
ATOM     16  C   UNL     1      31.872  -6.799 -22.498  0.00  0.00    +0.176 C 
ATOM     17  C   UNL     1      32.587  -6.194 -21.490  0.00  0.00    +0.176 C 
ATOM     18  C   UNL     1      33.044  -6.901 -20.398  0.00  0.00    +0.040 C 
ATOM     19  C   UNL     1      32.093  -4.701 -22.977  0.00  0.00    +0.429 C 
ENDBRANCH  10  13
ENDBRANCH   2  10
BRANCH   8  20
ATOM     20  C   UNL     1      33.489 -15.100 -25.118  0.00  0.00    +0.290 C 
BRANCH  20  21
ATOM     21  O   UNL     1      34.709 -15.799 -25.136  0.00  0.00    -0.466 OA
BRANCH  21  23
ATOM     22 CL   UNL     1      35.549 -19.856 -20.975  0.00  0.00    -0.082 Cl
ATOM     23  C   UNL     1      34.907 -16.751 -24.162  0.00  0.00    +0.139 C 
ATOM     24  C   UNL     1      34.536 -18.064 -24.406  0.00  0.00    +0.038 C 
ATOM     25  C   UNL     1      35.474 -16.379 -22.952  0.00  0.00    +0.038 C 
ATOM     26  C   UNL     1      34.734 -19.028 -23.417  0.00  0.00    +0.015 C 
ATOM     27  C   UNL     1      35.673 -17.343 -21.963  0.00  0.00    +0.015 C 
ATOM     28  C   UNL     1      35.304 -18.667 -22.195  0.00  0.00    +0.058 C 
ENDBRANCH  21  23
ENDBRANCH  20  21
ENDBRANCH   8  20
TORSDOF 5
ENDMDL
MODEL 9
REMARK VINA RESULT:     -10.0      3.831      5.841
REMARK  Name = 3351
REMARK  5 active torsions:
REMARK  status: ('A' for Active; 'I' for Inactive)
REMARK    1  A    between atoms: N_2  and  C_10
REMARK    2  A    between atoms: C_8  and  C_20
REMARK    3  A    between atoms: C_10  and  C_13
REMARK    4  A    between atoms: C_20  and  O_21
REMARK    5  A    between atoms: O_21  and  C_23
REMARK                            x       y       z     vdW  Elec       q    Type
REMARK                         _______ _______ _______ _____ _____    ______ ____
ROOT
ATOM      1  O   UNL     1      32.684 -12.702 -22.094  0.00  0.00    -0.271 OA
ATOM      2  N   UNL     1      33.918  -8.053 -23.427  0.00  0.00    +0.392 N 
ATOM      3  N   UNL     1      33.453 -10.877 -23.309  0.00  0.00    -0.281 N 
ATOM      4  C   UNL     1      33.218  -8.646 -22.278  0.00  0.00    -0.055 C 
ATOM      5  C   UNL     1      34.911  -8.993 -23.966  0.00  0.00    -0.055 C 
ATOM      6  C   UNL     1      32.518  -9.943 -22.682  0.00  0.00    +0.071 C 
ATOM      7  C   UNL     1      34.247 -10.303 -24.398  0.00  0.00    +0.071 C 
ATOM      8  C   UNL     1      33.444 -12.221 -22.938  0.00  0.00    +0.270 C 
ATOM      9  H   UNL     1      33.232  -7.855 -24.156  0.00  0.00    -0.079 HD
ENDROOT
BRANCH   2  10
ATOM     10  C   UNL     1      34.558  -6.795 -23.045  0.00  0.00    -0.050 C 
BRANCH  10  13
ATOM     11  O   UNL     1      31.146  -3.270 -23.608  0.00  0.00    -0.435 OA
ATOM     12  O   UNL     1      32.193  -2.413 -25.602  0.00  0.00    -0.435 OA
ATOM     13  C   UNL     1      33.950  -5.617 -23.759  0.00  0.00    -0.040 C 
ATOM     14  C   UNL     1      32.789  -5.040 -23.253  0.00  0.00    +0.034 C 
ATOM     15  C   UNL     1      34.566  -5.127 -24.916  0.00  0.00    -0.003 C 
ATOM     16  C   UNL     1      32.268  -3.963 -23.941  0.00  0.00    +0.176 C 
ATOM     17  C   UNL     1      32.866  -3.475 -25.080  0.00  0.00    +0.176 C 
ATOM     18  C   UNL     1      34.017  -4.035 -25.594  0.00  0.00    +0.040 C 
ATOM     19  C   UNL     1      31.105  -2.289 -24.663  0.00  0.00    +0.429 C 
ENDBRANCH  10  13
ENDBRANCH   2  10
BRANCH   8  20
ATOM     20  C   UNL     1      34.442 -13.117 -23.628  0.00  0.00    +0.290 C 
BRANCH  20  21
ATOM     21  O   UNL     1      34.932 -14.001 -22.651  0.00  0.00    -0.466 OA
BRANCH  21  23
ATOM     22 CL   UNL     1      35.301 -19.682 -24.091  0.00  0.00    -0.082 Cl
ATOM     23  C   UNL     1      35.021 -15.332 -22.989  0.00  0.00    +0.139 C 
ATOM     24  C   UNL     1      34.803 -15.717 -24.303  0.00  0.00    +0.038 C 
ATOM     25  C   UNL     1      35.324 -16.266 -22.009  0.00  0.00    +0.038 C 
ATOM     26  C   UNL     1      34.890 -17.067 -24.646  0.00  0.00    +0.015 C 
ATOM     27  C   UNL     1      35.411 -17.616 -22.351  0.00  0.00    +0.015 C 
ATOM     28  C   UNL     1      35.194 -18.016 -23.669  0.00  0.00    +0.058 C 
ENDBRANCH  21  23
ENDBRANCH  20  21
ENDBRANCH   8  20
TORSDOF 5
ENDMDL
