MODEL 1
REMARK VINA RESULT:     -13.3      0.000      0.000
REMARK  Name = 25171648
REMARK  8 active torsions:
REMARK  status: ('A' for Active; 'I' for Inactive)
REMARK    1  A    between atoms: C_1  and  C_12
REMARK    2  A    between atoms: C_2  and  C_23
REMARK    3  A    between atoms: C_9  and  O_13
REMARK    4  A    between atoms: O_13  and  C_14
REMARK    5  A    between atoms: C_14  and  C_16
REMARK    6  A    between atoms: C_23  and  N_25
REMARK    7  A    between atoms: C_27  and  C_31
REMARK    8  A    between atoms: C_34  and  C_38
REMARK                            x       y       z     vdW  Elec       q    Type
REMARK                         _______ _______ _______ _____ _____    ______ ____
ROOT
ATOM      1  C   UNL     1      35.553 -20.132 -20.224  0.00  0.00    +0.062 C 
ATOM      2  C   UNL     1      34.577 -21.928 -18.936  0.00  0.00    +0.000 C 
ATOM      3  C   UNL     1      34.474 -20.972 -19.947  0.00  0.00    +0.007 C 
ATOM      4  C   UNL     1      36.732 -20.247 -19.489  0.00  0.00    +0.010 C 
ATOM      5  C   UNL     1      35.757 -22.043 -18.202  0.00  0.00    -0.003 C 
ATOM      6  C   UNL     1      36.835 -21.203 -18.479  0.00  0.00    +0.000 C 
ENDROOT
BRANCH   1  12
ATOM      7  N   UNL     1      35.867 -17.903 -20.965  0.00  0.00    -0.212 NA
ATOM      8  N   UNL     1      34.938 -19.565 -22.442  0.00  0.00    -0.190 NA
ATOM      9  C   UNL     1      35.249 -17.307 -23.215  0.00  0.00    +0.161 C 
ATOM     10  C   UNL     1      35.754 -17.005 -21.966  0.00  0.00    +0.201 C 
ATOM     11  C   UNL     1      34.853 -18.617 -23.397  0.00  0.00    +0.144 C 
ATOM     12  C   UNL     1      35.446 -19.145 -21.268  0.00  0.00    +0.031 C 
BRANCH   9  13
ATOM     13  O   UNL     1      35.149 -16.367 -24.210  0.00  0.00    -0.476 OA
BRANCH  13  14
ATOM     14  C   UNL     1      33.849 -16.060 -24.678  0.00  0.00    +0.205 C 
BRANCH  14  16
ATOM     15  N   UNL     1      34.573 -11.810 -24.423  0.00  0.00    +0.386 N 
ATOM     16  C   UNL     1      33.592 -14.573 -24.459  0.00  0.00    +0.040 C 
ATOM     17  C   UNL     1      33.851 -13.775 -25.742  0.00  0.00    -0.019 C 
ATOM     18  C   UNL     1      34.462 -14.023 -23.323  0.00  0.00    -0.019 C 
ATOM     19  C   UNL     1      33.692 -12.272 -25.505  0.00  0.00    -0.077 C 
ATOM     20  C   UNL     1      34.282 -12.512 -23.166  0.00  0.00    -0.077 C 
ATOM     21  C   UNL     1      34.448 -10.363 -24.243  0.00  0.00    -0.101 C 
ATOM     22  H   UNL     1      35.535 -12.024 -24.688  0.00  0.00    -0.080 HD
ENDBRANCH  14  16
ENDBRANCH  13  14
ENDBRANCH   9  13
ENDBRANCH   1  12
BRANCH   2  23
ATOM     23  C   UNL     1      33.424 -22.828 -18.639  0.00  0.00    +0.146 C 
BRANCH  23  25
ATOM     24  O   UNL     1      31.055 -21.952 -17.286  0.00  0.00    -0.268 OA
ATOM     25  N   UNL     1      33.160 -22.934 -17.214  0.00  0.00    -0.173 N 
ATOM     26  N   UNL     1      34.166 -23.503 -16.487  0.00  0.00    -0.175 NA
ATOM     27  C   UNL     1      34.005 -23.624 -15.208  0.00  0.00    +0.099 C 
ATOM     28  C   UNL     1      31.974 -22.479 -16.658  0.00  0.00    +0.268 C 
ATOM     29  C   UNL     1      32.792 -23.212 -14.477  0.00  0.00    +0.025 C 
ATOM     30  C   UNL     1      31.820 -22.657 -15.199  0.00  0.00    +0.061 C 
BRANCH  27  31
ATOM     31  C   UNL     1      35.095 -24.237 -14.404  0.00  0.00    +0.020 C 
ATOM     32  C   UNL     1      35.138 -24.045 -13.023  0.00  0.00    +0.012 C 
ATOM     33  C   UNL     1      36.076 -25.006 -15.032  0.00  0.00    +0.002 C 
ATOM     34  C   UNL     1      36.161 -24.621 -12.270  0.00  0.00    +0.068 C 
ATOM     35  C   UNL     1      37.099 -25.582 -14.279  0.00  0.00    +0.001 C 
ATOM     36  C   UNL     1      37.142 -25.390 -12.898  0.00  0.00    +0.010 C 
BRANCH  34  38
ATOM     37  N   UNL     1      36.242 -24.263  -9.707  0.00  0.00    -0.191 NA
ATOM     38  C   UNL     1      36.206 -24.423 -10.856  0.00  0.00    +0.100 C 
ENDBRANCH  34  38
ENDBRANCH  27  31
ENDBRANCH  23  25
ENDBRANCH   2  23
TORSDOF 8
ENDMDL
MODEL 2
REMARK VINA RESULT:     -12.8      2.168      3.773
REMARK  Name = 25171648
REMARK  8 active torsions:
REMARK  status: ('A' for Active; 'I' for Inactive)
REMARK    1  A    between atoms: C_1  and  C_12
REMARK    2  A    between atoms: C_2  and  C_23
REMARK    3  A    between atoms: C_9  and  O_13
REMARK    4  A    between atoms: O_13  and  C_14
REMARK    5  A    between atoms: C_14  and  C_16
REMARK    6  A    between atoms: C_23  and  N_25
REMARK    7  A    between atoms: C_27  and  C_31
REMARK    8  A    between atoms: C_34  and  C_38
REMARK                            x       y       z     vdW  Elec       q    Type
REMARK                         _______ _______ _______ _____ _____    ______ ____
ROOT
ATOM      1  C   UNL     1      34.658 -19.984 -20.462  0.00  0.00    +0.062 C 
ATOM      2  C   UNL     1      35.633 -21.479 -18.833  0.00  0.00    +0.000 C 
ATOM      3  C   UNL     1      35.777 -20.468 -19.785  0.00  0.00    +0.007 C 
ATOM      4  C   UNL     1      33.396 -20.511 -20.189  0.00  0.00    +0.010 C 
ATOM      5  C   UNL     1      34.370 -22.005 -18.560  0.00  0.00    -0.003 C 
ATOM      6  C   UNL     1      33.251 -21.520 -19.237  0.00  0.00    +0.000 C 
ENDROOT
BRANCH   1  12
ATOM      7  N   UNL     1      34.367 -19.218 -22.685  0.00  0.00    -0.212 NA
ATOM      8  N   UNL     1      35.371 -17.794 -21.021  0.00  0.00    -0.190 NA
ATOM      9  C   UNL     1      35.084 -16.996 -23.274  0.00  0.00    +0.161 C 
ATOM     10  C   UNL     1      34.522 -18.219 -23.579  0.00  0.00    +0.201 C 
ATOM     11  C   UNL     1      35.494 -16.839 -21.965  0.00  0.00    +0.144 C 
ATOM     12  C   UNL     1      34.807 -18.942 -21.444  0.00  0.00    +0.031 C 
BRANCH   9  13
ATOM     13  O   UNL     1      35.225 -16.002 -24.209  0.00  0.00    -0.476 OA
BRANCH  13  14
ATOM     14  C   UNL     1      34.069 -15.635 -24.938  0.00  0.00    +0.205 C 
BRANCH  14  16
ATOM     15  N   UNL     1      34.603 -11.385 -24.381  0.00  0.00    +0.386 N 
ATOM     16  C   UNL     1      33.742 -14.177 -24.630  0.00  0.00    +0.040 C 
ATOM     17  C   UNL     1      34.004 -13.285 -25.849  0.00  0.00    -0.019 C 
ATOM     18  C   UNL     1      34.554 -13.670 -23.434  0.00  0.00    -0.019 C 
ATOM     19  C   UNL     1      33.774 -11.809 -25.519  0.00  0.00    -0.077 C 
ATOM     20  C   UNL     1      34.305 -12.181 -23.183  0.00  0.00    -0.077 C 
ATOM     21  C   UNL     1      34.410  -9.960 -24.111  0.00  0.00    -0.101 C 
ATOM     22  H   UNL     1      35.580 -11.542 -24.629  0.00  0.00    -0.080 HD
ENDBRANCH  14  16
ENDBRANCH  13  14
ENDBRANCH   9  13
ENDBRANCH   1  12
BRANCH   2  23
ATOM     23  C   UNL     1      36.829 -21.998 -18.108  0.00  0.00    +0.146 C 
BRANCH  23  25
ATOM     24  O   UNL     1      38.679 -22.017 -15.920  0.00  0.00    -0.268 OA
ATOM     25  N   UNL     1      36.528 -22.355 -16.732  0.00  0.00    -0.173 N 
ATOM     26  N   UNL     1      35.231 -22.720 -16.506  0.00  0.00    -0.175 NA
ATOM     27  C   UNL     1      34.891 -23.059 -15.304  0.00  0.00    +0.099 C 
ATOM     28  C   UNL     1      37.501 -22.329 -15.744  0.00  0.00    +0.268 C 
ATOM     29  C   UNL     1      35.805 -23.057 -14.146  0.00  0.00    +0.025 C 
ATOM     30  C   UNL     1      37.066 -22.702 -14.382  0.00  0.00    +0.061 C 
BRANCH  27  31
ATOM     31  C   UNL     1      33.484 -23.463 -15.046  0.00  0.00    +0.020 C 
ATOM     32  C   UNL     1      32.443 -22.854 -15.747  0.00  0.00    +0.012 C 
ATOM     33  C   UNL     1      33.204 -24.452 -14.103  0.00  0.00    +0.002 C 
ATOM     34  C   UNL     1      31.123 -23.234 -15.504  0.00  0.00    +0.068 C 
ATOM     35  C   UNL     1      31.884 -24.833 -13.860  0.00  0.00    +0.001 C 
ATOM     36  C   UNL     1      30.843 -24.224 -14.561  0.00  0.00    +0.010 C 
BRANCH  34  38
ATOM     37  N   UNL     1      29.189 -22.104 -16.804  0.00  0.00    -0.191 NA
ATOM     38  C   UNL     1      30.055 -22.610 -16.221  0.00  0.00    +0.100 C 
ENDBRANCH  34  38
ENDBRANCH  27  31
ENDBRANCH  23  25
ENDBRANCH   2  23
TORSDOF 8
ENDMDL
MODEL 3
REMARK VINA RESULT:     -12.7      1.218      1.597
REMARK  Name = 25171648
REMARK  8 active torsions:
REMARK  status: ('A' for Active; 'I' for Inactive)
REMARK    1  A    between atoms: C_1  and  C_12
REMARK    2  A    between atoms: C_2  and  C_23
REMARK    3  A    between atoms: C_9  and  O_13
REMARK    4  A    between atoms: O_13  and  C_14
REMARK    5  A    between atoms: C_14  and  C_16
REMARK    6  A    between atoms: C_23  and  N_25
REMARK    7  A    between atoms: C_27  and  C_31
REMARK    8  A    between atoms: C_34  and  C_38
REMARK                            x       y       z     vdW  Elec       q    Type
REMARK                         _______ _______ _______ _____ _____    ______ ____
ROOT
ATOM      1  C   UNL     1      35.740 -20.463 -19.843  0.00  0.00    +0.062 C 
ATOM      2  C   UNL     1      34.676 -22.179 -18.515  0.00  0.00    +0.000 C 
ATOM      3  C   UNL     1      34.648 -21.295 -19.595  0.00  0.00    +0.007 C 
ATOM      4  C   UNL     1      36.859 -20.514 -19.012  0.00  0.00    +0.010 C 
ATOM      5  C   UNL     1      35.795 -22.229 -17.684  0.00  0.00    -0.003 C 
ATOM      6  C   UNL     1      36.887 -21.398 -17.934  0.00  0.00    +0.000 C 
ENDROOT
BRANCH   1  12
ATOM      7  N   UNL     1      36.737 -18.686 -21.053  0.00  0.00    -0.212 NA
ATOM      8  N   UNL     1      34.660 -19.657 -21.793  0.00  0.00    -0.190 NA
ATOM      9  C   UNL     1      35.656 -17.852 -23.036  0.00  0.00    +0.161 C 
ATOM     10  C   UNL     1      36.678 -17.847 -22.108  0.00  0.00    +0.201 C 
ATOM     11  C   UNL     1      34.665 -18.789 -22.826  0.00  0.00    +0.144 C 
ATOM     12  C   UNL     1      35.711 -19.551 -20.957  0.00  0.00    +0.031 C 
BRANCH   9  13
ATOM     13  O   UNL     1      35.629 -16.984 -24.099  0.00  0.00    -0.476 OA
BRANCH  13  14
ATOM     14  C   UNL     1      34.366 -16.706 -24.672  0.00  0.00    +0.205 C 
BRANCH  14  16
ATOM     15  N   UNL     1      34.510 -12.409 -24.262  0.00  0.00    +0.386 N 
ATOM     16  C   UNL     1      33.957 -15.289 -24.285  0.00  0.00    +0.040 C 
ATOM     17  C   UNL     1      33.784 -14.407 -25.527  0.00  0.00    -0.019 C 
ATOM     18  C   UNL     1      34.985 -14.656 -23.341  0.00  0.00    -0.019 C 
ATOM     19  C   UNL     1      33.471 -12.959 -25.144  0.00  0.00    -0.077 C 
ATOM     20  C   UNL     1      34.633 -13.200 -23.030  0.00  0.00    -0.077 C 
ATOM     21  C   UNL     1      34.224 -11.009 -23.946  0.00  0.00    -0.101 C 
ATOM     22  H   UNL     1      35.400 -12.458 -24.757  0.00  0.00    -0.080 HD
ENDBRANCH  14  16
ENDBRANCH  13  14
ENDBRANCH   9  13
ENDBRANCH   1  12
BRANCH   2  23
ATOM     23  C   UNL     1      33.509 -23.068 -18.248  0.00  0.00    +0.146 C 
BRANCH  23  25
ATOM     24  O   UNL     1      31.034 -22.234 -17.068  0.00  0.00    -0.268 OA
ATOM     25  N   UNL     1      33.169 -23.124 -16.837  0.00  0.00    -0.173 N 
ATOM     26  N   UNL     1      34.153 -23.618 -16.030  0.00  0.00    -0.175 NA
ATOM     27  C   UNL     1      33.924 -23.691 -14.758  0.00  0.00    +0.099 C 
ATOM     28  C   UNL     1      31.936 -22.695 -16.368  0.00  0.00    +0.268 C 
ATOM     29  C   UNL     1      32.657 -23.298 -14.114  0.00  0.00    +0.025 C 
ATOM     30  C   UNL     1      31.707 -22.816 -14.913  0.00  0.00    +0.061 C 
BRANCH  27  31
ATOM     31  C   UNL     1      34.991 -24.223 -13.868  0.00  0.00    +0.020 C 
ATOM     32  C   UNL     1      36.030 -24.985 -14.402  0.00  0.00    +0.012 C 
ATOM     33  C   UNL     1      34.952 -23.958 -12.499  0.00  0.00    +0.002 C 
ATOM     34  C   UNL     1      37.030 -25.483 -13.566  0.00  0.00    +0.068 C 
ATOM     35  C   UNL     1      35.952 -24.455 -11.663  0.00  0.00    +0.001 C 
ATOM     36  C   UNL     1      36.991 -25.218 -12.197  0.00  0.00    +0.010 C 
BRANCH  34  38
ATOM     37  N   UNL     1      38.959 -26.899 -14.555  0.00  0.00    -0.191 NA
ATOM     38  C   UNL     1      38.094 -26.265 -14.112  0.00  0.00    +0.100 C 
ENDBRANCH  34  38
ENDBRANCH  27  31
ENDBRANCH  23  25
ENDBRANCH   2  23
TORSDOF 8
ENDMDL
MODEL 4
REMARK VINA RESULT:     -12.6      2.081      4.080
REMARK  Name = 25171648
REMARK  8 active torsions:
REMARK  status: ('A' for Active; 'I' for Inactive)
REMARK    1  A    between atoms: C_1  and  C_12
REMARK    2  A    between atoms: C_2  and  C_23
REMARK    3  A    between atoms: C_9  and  O_13
REMARK    4  A    between atoms: O_13  and  C_14
REMARK    5  A    between atoms: C_14  and  C_16
REMARK    6  A    between atoms: C_23  and  N_25
REMARK    7  A    between atoms: C_27  and  C_31
REMARK    8  A    between atoms: C_34  and  C_38
REMARK                            x       y       z     vdW  Elec       q    Type
REMARK                         _______ _______ _______ _____ _____    ______ ____
ROOT
ATOM      1  C   UNL     1      34.933 -20.921 -19.508  0.00  0.00    +0.062 C 
ATOM      2  C   UNL     1      35.635 -22.075 -17.504  0.00  0.00    +0.000 C 
ATOM      3  C   UNL     1      35.911 -21.195 -18.552  0.00  0.00    +0.007 C 
ATOM      4  C   UNL     1      33.680 -21.527 -19.417  0.00  0.00    +0.010 C 
ATOM      5  C   UNL     1      34.382 -22.680 -17.414  0.00  0.00    -0.003 C 
ATOM      6  C   UNL     1      33.405 -22.406 -18.370  0.00  0.00    +0.000 C 
ENDROOT
BRANCH   1  12
ATOM      7  N   UNL     1      34.240 -19.832 -21.495  0.00  0.00    -0.212 NA
ATOM      8  N   UNL     1      36.434 -19.434 -20.582  0.00  0.00    -0.190 NA
ATOM      9  C   UNL     1      35.750 -18.318 -22.602  0.00  0.00    +0.161 C 
ATOM     10  C   UNL     1      34.541 -18.975 -22.493  0.00  0.00    +0.201 C 
ATOM     11  C   UNL     1      36.667 -18.589 -21.608  0.00  0.00    +0.144 C 
ATOM     12  C   UNL     1      35.218 -20.012 -20.588  0.00  0.00    +0.031 C 
BRANCH   9  13
ATOM     13  O   UNL     1      36.021 -17.451 -23.632  0.00  0.00    -0.476 OA
BRANCH  13  14
ATOM     14  C   UNL     1      34.914 -16.931 -24.344  0.00  0.00    +0.205 C 
BRANCH  14  16
ATOM     15  N   UNL     1      33.605 -12.908 -23.477  0.00  0.00    +0.386 N 
ATOM     16  C   UNL     1      34.934 -15.410 -24.231  0.00  0.00    +0.040 C 
ATOM     17  C   UNL     1      34.785 -14.965 -22.772  0.00  0.00    -0.019 C 
ATOM     18  C   UNL     1      33.826 -14.779 -25.080  0.00  0.00    -0.019 C 
ATOM     19  C   UNL     1      34.704 -13.441 -22.660  0.00  0.00    -0.077 C 
ATOM     20  C   UNL     1      33.777 -13.261 -24.893  0.00  0.00    -0.077 C 
ATOM     21  C   UNL     1      33.508 -11.456 -23.319  0.00  0.00    -0.101 C 
ATOM     22  H   UNL     1      32.736 -13.331 -23.150  0.00  0.00    -0.080 HD
ENDBRANCH  14  16
ENDBRANCH  13  14
ENDBRANCH   9  13
ENDBRANCH   1  12
BRANCH   2  23
ATOM     23  C   UNL     1      36.681 -22.369 -16.481  0.00  0.00    +0.146 C 
BRANCH  23  25
ATOM     24  O   UNL     1      38.119 -22.958 -14.074  0.00  0.00    -0.268 OA
ATOM     25  N   UNL     1      36.116 -22.895 -15.250  0.00  0.00    -0.173 N 
ATOM     26  N   UNL     1      34.770 -23.126 -15.291  0.00  0.00    -0.175 NA
ATOM     27  C   UNL     1      34.198 -23.602 -14.232  0.00  0.00    +0.099 C 
ATOM     28  C   UNL     1      36.904 -23.144 -14.136  0.00  0.00    +0.268 C 
ATOM     29  C   UNL     1      34.896 -23.894 -12.966  0.00  0.00    +0.025 C 
ATOM     30  C   UNL     1      36.208 -23.666 -12.942  0.00  0.00    +0.061 C 
BRANCH  27  31
ATOM     31  C   UNL     1      32.734 -23.862 -14.265  0.00  0.00    +0.020 C 
ATOM     32  C   UNL     1      31.915 -23.133 -15.127  0.00  0.00    +0.012 C 
ATOM     33  C   UNL     1      32.181 -24.837 -13.435  0.00  0.00    +0.002 C 
ATOM     34  C   UNL     1      30.542 -23.378 -15.158  0.00  0.00    +0.068 C 
ATOM     35  C   UNL     1      30.808 -25.082 -13.466  0.00  0.00    +0.001 C 
ATOM     36  C   UNL     1      29.988 -24.353 -14.327  0.00  0.00    +0.010 C 
BRANCH  34  38
ATOM     37  N   UNL     1      29.019 -22.024 -16.756  0.00  0.00    -0.191 NA
ATOM     38  C   UNL     1      29.702 -22.631 -16.040  0.00  0.00    +0.100 C 
ENDBRANCH  34  38
ENDBRANCH  27  31
ENDBRANCH  23  25
ENDBRANCH   2  23
TORSDOF 8
ENDMDL
MODEL 5
REMARK VINA RESULT:     -12.6      4.461      9.156
REMARK  Name = 25171648
REMARK  8 active torsions:
REMARK  status: ('A' for Active; 'I' for Inactive)
REMARK    1  A    between atoms: C_1  and  C_12
REMARK    2  A    between atoms: C_2  and  C_23
REMARK    3  A    between atoms: C_9  and  O_13
REMARK    4  A    between atoms: O_13  and  C_14
REMARK    5  A    between atoms: C_14  and  C_16
REMARK    6  A    between atoms: C_23  and  N_25
REMARK    7  A    between atoms: C_27  and  C_31
REMARK    8  A    between atoms: C_34  and  C_38
REMARK                            x       y       z     vdW  Elec       q    Type
REMARK                         _______ _______ _______ _____ _____    ______ ____
ROOT
ATOM      1  C   UNL     1      33.071 -11.940 -21.879  0.00  0.00    +0.062 C 
ATOM      2  C   UNL     1      34.359 -13.935 -22.325  0.00  0.00    +0.000 C 
ATOM      3  C   UNL     1      34.010 -12.624 -22.651  0.00  0.00    +0.007 C 
ATOM      4  C   UNL     1      32.481 -12.568 -20.782  0.00  0.00    +0.010 C 
ATOM      5  C   UNL     1      33.769 -14.562 -21.228  0.00  0.00    -0.003 C 
ATOM      6  C   UNL     1      32.831 -13.877 -20.456  0.00  0.00    +0.000 C 
ENDROOT
BRANCH   1  12
ATOM      7  N   UNL     1      33.146 -10.127 -23.403  0.00  0.00    -0.212 NA
ATOM      8  N   UNL     1      31.973  -9.918 -21.309  0.00  0.00    -0.190 NA
ATOM      9  C   UNL     1      32.037  -8.065 -22.843  0.00  0.00    +0.161 C 
ATOM     10  C   UNL     1      32.790  -8.857 -23.686  0.00  0.00    +0.201 C 
ATOM     11  C   UNL     1      31.652  -8.655 -21.656  0.00  0.00    +0.144 C 
ATOM     12  C   UNL     1      32.710 -10.588 -22.216  0.00  0.00    +0.031 C 
BRANCH   9  13
ATOM     13  O   UNL     1      31.693  -6.776 -23.165  0.00  0.00    -0.476 OA
BRANCH  13  14
ATOM     14  C   UNL     1      32.467  -5.740 -22.591  0.00  0.00    +0.205 C 
BRANCH  14  16
ATOM     15  N   UNL     1      33.900  -4.678 -26.525  0.00  0.00    +0.386 N 
ATOM     16  C   UNL     1      33.099  -4.925 -23.715  0.00  0.00    +0.040 C 
ATOM     17  C   UNL     1      32.090  -4.662 -24.838  0.00  0.00    -0.019 C 
ATOM     18  C   UNL     1      34.333  -5.633 -24.284  0.00  0.00    -0.019 C 
ATOM     19  C   UNL     1      32.742  -3.931 -26.014  0.00  0.00    -0.077 C 
ATOM     20  C   UNL     1      34.912  -4.870 -25.477  0.00  0.00    -0.077 C 
ATOM     21  C   UNL     1      34.481  -3.993 -27.680  0.00  0.00    -0.101 C 
ATOM     22  H   UNL     1      33.574  -5.598 -26.820  0.00  0.00    -0.080 HD
ENDBRANCH  14  16
ENDBRANCH  13  14
ENDBRANCH   9  13
ENDBRANCH   1  12
BRANCH   2  23
ATOM     23  C   UNL     1      35.364 -14.667 -23.150  0.00  0.00    +0.146 C 
BRANCH  23  25
ATOM     24  O   UNL     1      34.026 -15.674 -25.476  0.00  0.00    -0.268 OA
ATOM     25  N   UNL     1      34.980 -16.048 -23.390  0.00  0.00    -0.173 N 
ATOM     26  N   UNL     1      35.297 -16.913 -22.382  0.00  0.00    -0.175 NA
ATOM     27  C   UNL     1      34.978 -18.160 -22.522  0.00  0.00    +0.099 C 
ATOM     28  C   UNL     1      34.335 -16.432 -24.557  0.00  0.00    +0.268 C 
ATOM     29  C   UNL     1      34.315 -18.723 -23.713  0.00  0.00    +0.025 C 
ATOM     30  C   UNL     1      34.010 -17.868 -24.686  0.00  0.00    +0.061 C 
BRANCH  27  31
ATOM     31  C   UNL     1      35.313 -19.111 -21.429  0.00  0.00    +0.020 C 
ATOM     32  C   UNL     1      34.304 -19.854 -20.816  0.00  0.00    +0.012 C 
ATOM     33  C   UNL     1      36.638 -19.262 -21.018  0.00  0.00    +0.002 C 
ATOM     34  C   UNL     1      34.620 -20.746 -19.791  0.00  0.00    +0.068 C 
ATOM     35  C   UNL     1      36.954 -20.154 -19.993  0.00  0.00    +0.001 C 
ATOM     36  C   UNL     1      35.945 -20.896 -19.380  0.00  0.00    +0.010 C 
BRANCH  34  38
ATOM     37  N   UNL     1      32.747 -22.123 -18.650  0.00  0.00    -0.191 NA
ATOM     38  C   UNL     1      33.586 -21.506 -19.162  0.00  0.00    +0.100 C 
ENDBRANCH  34  38
ENDBRANCH  27  31
ENDBRANCH  23  25
ENDBRANCH   2  23
TORSDOF 8
ENDMDL
MODEL 6
REMARK VINA RESULT:     -12.6      4.126     14.300
REMARK  Name = 25171648
REMARK  8 active torsions:
REMARK  status: ('A' for Active; 'I' for Inactive)
REMARK    1  A    between atoms: C_1  and  C_12
REMARK    2  A    between atoms: C_2  and  C_23
REMARK    3  A    between atoms: C_9  and  O_13
REMARK    4  A    between atoms: O_13  and  C_14
REMARK    5  A    between atoms: C_14  and  C_16
REMARK    6  A    between atoms: C_23  and  N_25
REMARK    7  A    between atoms: C_27  and  C_31
REMARK    8  A    between atoms: C_34  and  C_38
REMARK                            x       y       z     vdW  Elec       q    Type
REMARK                         _______ _______ _______ _____ _____    ______ ____
ROOT
ATOM      1  C   UNL     1      34.055 -13.175 -23.321  0.00  0.00    +0.062 C 
ATOM      2  C   UNL     1      32.694 -11.330 -22.556  0.00  0.00    +0.000 C 
ATOM      3  C   UNL     1      33.120 -12.653 -22.426  0.00  0.00    +0.007 C 
ATOM      4  C   UNL     1      34.563 -12.374 -24.344  0.00  0.00    +0.010 C 
ATOM      5  C   UNL     1      33.202 -10.531 -23.579  0.00  0.00    -0.003 C 
ATOM      6  C   UNL     1      34.138 -11.052 -24.472  0.00  0.00    +0.000 C 
ENDROOT
BRANCH   1  12
ATOM      7  N   UNL     1      34.465 -15.292 -24.302  0.00  0.00    -0.212 NA
ATOM      8  N   UNL     1      34.893 -14.924 -21.959  0.00  0.00    -0.190 NA
ATOM      9  C   UNL     1      35.316 -17.083 -22.936  0.00  0.00    +0.161 C 
ATOM     10  C   UNL     1      34.884 -16.565 -24.140  0.00  0.00    +0.201 C 
ATOM     11  C   UNL     1      35.300 -16.208 -21.870  0.00  0.00    +0.144 C 
ATOM     12  C   UNL     1      34.495 -14.539 -23.187  0.00  0.00    +0.031 C 
BRANCH   9  13
ATOM     13  O   UNL     1      35.736 -18.384 -22.809  0.00  0.00    -0.476 OA
BRANCH  13  14
ATOM     14  C   UNL     1      36.311 -18.757 -21.571  0.00  0.00    +0.205 C 
BRANCH  14  16
ATOM     15  N   UNL     1      34.164 -21.351 -18.867  0.00  0.00    +0.386 N 
ATOM     16  C   UNL     1      35.576 -19.984 -21.043  0.00  0.00    +0.040 C 
ATOM     17  C   UNL     1      34.135 -19.636 -20.650  0.00  0.00    -0.019 C 
ATOM     18  C   UNL     1      36.307 -20.592 -19.842  0.00  0.00    -0.019 C 
ATOM     19  C   UNL     1      33.422 -20.838 -20.027  0.00  0.00    -0.077 C 
ATOM     20  C   UNL     1      35.522 -21.762 -19.246  0.00  0.00    -0.077 C 
ATOM     21  C   UNL     1      33.444 -22.466 -18.252  0.00  0.00    -0.101 C 
ATOM     22  H   UNL     1      34.242 -20.596 -18.185  0.00  0.00    -0.080 HD
ENDBRANCH  14  16
ENDBRANCH  13  14
ENDBRANCH   9  13
ENDBRANCH   1  12
BRANCH   2  23
ATOM     23  C   UNL     1      31.694 -10.771 -21.601  0.00  0.00    +0.146 C 
BRANCH  23  25
ATOM     24  O   UNL     1      31.852  -9.973 -18.853  0.00  0.00    -0.268 OA
ATOM     25  N   UNL     1      32.074  -9.458 -21.108  0.00  0.00    -0.173 N 
ATOM     26  N   UNL     1      32.366  -8.545 -22.081  0.00  0.00    -0.175 NA
ATOM     27  C   UNL     1      32.706  -7.350 -21.717  0.00  0.00    +0.099 C 
ATOM     28  C   UNL     1      32.121  -9.176 -19.751  0.00  0.00    +0.268 C 
ATOM     29  C   UNL     1      32.826  -6.907 -20.316  0.00  0.00    +0.025 C 
ATOM     30  C   UNL     1      32.536  -7.807 -19.379  0.00  0.00    +0.061 C 
BRANCH  27  31
ATOM     31  C   UNL     1      33.021  -6.346 -22.767  0.00  0.00    +0.020 C 
ATOM     32  C   UNL     1      32.112  -5.327 -23.055  0.00  0.00    +0.012 C 
ATOM     33  C   UNL     1      34.228  -6.421 -23.464  0.00  0.00    +0.002 C 
ATOM     34  C   UNL     1      32.410  -4.385 -24.040  0.00  0.00    +0.068 C 
ATOM     35  C   UNL     1      34.525  -5.479 -24.449  0.00  0.00    +0.001 C 
ATOM     36  C   UNL     1      33.616  -4.460 -24.737  0.00  0.00    +0.010 C 
BRANCH  34  38
ATOM     37  N   UNL     1      30.723  -2.494 -24.575  0.00  0.00    -0.191 NA
ATOM     38  C   UNL     1      31.479  -3.342 -24.335  0.00  0.00    +0.100 C 
ENDBRANCH  34  38
ENDBRANCH  27  31
ENDBRANCH  23  25
ENDBRANCH   2  23
TORSDOF 8
ENDMDL
MODEL 7
REMARK VINA RESULT:     -12.0      4.540     15.158
REMARK  Name = 25171648
REMARK  8 active torsions:
REMARK  status: ('A' for Active; 'I' for Inactive)
REMARK    1  A    between atoms: C_1  and  C_12
REMARK    2  A    between atoms: C_2  and  C_23
REMARK    3  A    between atoms: C_9  and  O_13
REMARK    4  A    between atoms: O_13  and  C_14
REMARK    5  A    between atoms: C_14  and  C_16
REMARK    6  A    between atoms: C_23  and  N_25
REMARK    7  A    between atoms: C_27  and  C_31
REMARK    8  A    between atoms: C_34  and  C_38
REMARK                            x       y       z     vdW  Elec       q    Type
REMARK                         _______ _______ _______ _____ _____    ______ ____
ROOT
ATOM      1  C   UNL     1      34.010 -11.888 -23.628  0.00  0.00    +0.062 C 
ATOM      2  C   UNL     1      32.779  -9.964 -22.840  0.00  0.00    +0.000 C 
ATOM      3  C   UNL     1      33.026 -11.337 -22.808  0.00  0.00    +0.007 C 
ATOM      4  C   UNL     1      34.748 -11.066 -24.480  0.00  0.00    +0.010 C 
ATOM      5  C   UNL     1      33.518  -9.143 -23.691  0.00  0.00    -0.003 C 
ATOM      6  C   UNL     1      34.503  -9.693 -24.510  0.00  0.00    +0.000 C 
ENDROOT
BRANCH   1  12
ATOM      7  N   UNL     1      33.962 -13.995 -24.710  0.00  0.00    -0.212 NA
ATOM      8  N   UNL     1      34.780 -13.797 -22.452  0.00  0.00    -0.190 NA
ATOM      9  C   UNL     1      34.739 -15.947 -23.534  0.00  0.00    +0.161 C 
ATOM     10  C   UNL     1      34.212 -15.320 -24.644  0.00  0.00    +0.201 C 
ATOM     11  C   UNL     1      35.007 -15.127 -22.456  0.00  0.00    +0.144 C 
ATOM     12  C   UNL     1      34.264 -13.305 -23.595  0.00  0.00    +0.031 C 
BRANCH   9  13
ATOM     13  O   UNL     1      34.982 -17.298 -23.503  0.00  0.00    -0.476 OA
BRANCH  13  14
ATOM     14  C   UNL     1      36.196 -17.720 -22.912  0.00  0.00    +0.205 C 
BRANCH  14  16
ATOM     15  N   UNL     1      35.634 -20.908 -20.052  0.00  0.00    +0.386 N 
ATOM     16  C   UNL     1      35.877 -18.429 -21.599  0.00  0.00    +0.040 C 
ATOM     17  C   UNL     1      37.097 -19.197 -21.078  0.00  0.00    -0.019 C 
ATOM     18  C   UNL     1      34.693 -19.388 -21.763  0.00  0.00    -0.019 C 
ATOM     19  C   UNL     1      36.758 -19.992 -19.815  0.00  0.00    -0.077 C 
ATOM     20  C   UNL     1      34.433 -20.176 -20.477  0.00  0.00    -0.077 C 
ATOM     21  C   UNL     1      35.355 -21.696 -18.851  0.00  0.00    -0.101 C 
ATOM     22  H   UNL     1      35.899 -21.542 -20.805  0.00  0.00    -0.080 HD
ENDBRANCH  14  16
ENDBRANCH  13  14
ENDBRANCH   9  13
ENDBRANCH   1  12
BRANCH   2  23
ATOM     23  C   UNL     1      31.726  -9.374 -21.963  0.00  0.00    +0.146 C 
BRANCH  23  25
ATOM     24  O   UNL     1      32.468  -8.750 -19.266  0.00  0.00    -0.268 OA
ATOM     25  N   UNL     1      32.100  -8.064 -21.456  0.00  0.00    -0.173 N 
ATOM     26  N   UNL     1      32.071  -7.063 -22.384  0.00  0.00    -0.175 NA
ATOM     27  C   UNL     1      32.385  -5.866 -22.003  0.00  0.00    +0.099 C 
ATOM     28  C   UNL     1      32.445  -7.870 -20.127  0.00  0.00    +0.268 C 
ATOM     29  C   UNL     1      32.798  -5.507 -20.633  0.00  0.00    +0.025 C 
ATOM     30  C   UNL     1      32.818  -6.494 -19.739  0.00  0.00    +0.061 C 
BRANCH  27  31
ATOM     31  C   UNL     1      32.353  -4.765 -23.003  0.00  0.00    +0.020 C 
ATOM     32  C   UNL     1      32.943  -4.941 -24.254  0.00  0.00    +0.012 C 
ATOM     33  C   UNL     1      31.730  -3.557 -22.689  0.00  0.00    +0.002 C 
ATOM     34  C   UNL     1      32.912  -3.908 -25.191  0.00  0.00    +0.068 C 
ATOM     35  C   UNL     1      31.699  -2.524 -23.626  0.00  0.00    +0.001 C 
ATOM     36  C   UNL     1      32.290  -2.699 -24.877  0.00  0.00    +0.010 C 
BRANCH  34  38
ATOM     37  N   UNL     1      34.010  -4.232 -27.514  0.00  0.00    -0.191 NA
ATOM     38  C   UNL     1      33.518  -4.087 -26.473  0.00  0.00    +0.100 C 
ENDBRANCH  34  38
ENDBRANCH  27  31
ENDBRANCH  23  25
ENDBRANCH   2  23
TORSDOF 8
ENDMDL
MODEL 8
REMARK VINA RESULT:     -12.0      3.753     14.721
REMARK  Name = 25171648
REMARK  8 active torsions:
REMARK  status: ('A' for Active; 'I' for Inactive)
REMARK    1  A    between atoms: C_1  and  C_12
REMARK    2  A    between atoms: C_2  and  C_23
REMARK    3  A    between atoms: C_9  and  O_13
REMARK    4  A    between atoms: O_13  and  C_14
REMARK    5  A    between atoms: C_14  and  C_16
REMARK    6  A    between atoms: C_23  and  N_25
REMARK    7  A    between atoms: C_27  and  C_31
REMARK    8  A    between atoms: C_34  and  C_38
REMARK                            x       y       z     vdW  Elec       q    Type
REMARK                         _______ _______ _______ _____ _____    ______ ____
ROOT
ATOM      1  C   UNL     1      34.155 -13.915 -24.866  0.00  0.00    +0.062 C 
ATOM      2  C   UNL     1      34.271 -11.510 -24.663  0.00  0.00    +0.000 C 
ATOM      3  C   UNL     1      34.571 -12.780 -24.169  0.00  0.00    +0.007 C 
ATOM      4  C   UNL     1      33.438 -13.779 -26.055  0.00  0.00    +0.010 C 
ATOM      5  C   UNL     1      33.555 -11.375 -25.851  0.00  0.00    -0.003 C 
ATOM      6  C   UNL     1      33.139 -12.509 -26.548  0.00  0.00    +0.000 C 
ENDROOT
BRANCH   1  12
ATOM      7  N   UNL     1      35.034 -15.278 -23.138  0.00  0.00    -0.212 NA
ATOM      8  N   UNL     1      34.151 -16.268 -25.150  0.00  0.00    -0.190 NA
ATOM      9  C   UNL     1      35.040 -17.670 -23.408  0.00  0.00    +0.161 C 
ATOM     10  C   UNL     1      35.310 -16.521 -22.693  0.00  0.00    +0.201 C 
ATOM     11  C   UNL     1      34.454 -17.481 -24.642  0.00  0.00    +0.144 C 
ATOM     12  C   UNL     1      34.464 -15.226 -24.356  0.00  0.00    +0.031 C 
BRANCH   9  13
ATOM     13  O   UNL     1      35.334 -18.920 -22.922  0.00  0.00    -0.476 OA
BRANCH  13  14
ATOM     14  C   UNL     1      35.813 -18.998 -21.592  0.00  0.00    +0.205 C 
BRANCH  14  16
ATOM     15  N   UNL     1      34.100 -21.592 -18.594  0.00  0.00    +0.386 N 
ATOM     16  C   UNL     1      35.238 -20.251 -20.940  0.00  0.00    +0.040 C 
ATOM     17  C   UNL     1      33.795 -20.018 -20.478  0.00  0.00    -0.019 C 
ATOM     18  C   UNL     1      36.095 -20.698 -19.752  0.00  0.00    -0.019 C 
ATOM     19  C   UNL     1      33.244 -21.236 -19.734  0.00  0.00    -0.077 C 
ATOM     20  C   UNL     1      35.469 -21.895 -19.032  0.00  0.00    -0.077 C 
ATOM     21  C   UNL     1      33.533 -22.726 -17.863  0.00  0.00    -0.101 C 
ATOM     22  H   UNL     1      34.140 -20.787 -17.969  0.00  0.00    -0.080 HD
ENDBRANCH  14  16
ENDBRANCH  13  14
ENDBRANCH   9  13
ENDBRANCH   1  12
BRANCH   2  23
ATOM     23  C   UNL     1      34.716 -10.296 -23.918  0.00  0.00    +0.146 C 
BRANCH  23  25
ATOM     24  O   UNL     1      32.564 -11.274 -22.299  0.00  0.00    -0.268 OA
ATOM     25  N   UNL     1      33.598  -9.517 -23.414  0.00  0.00    -0.173 N 
ATOM     26  N   UNL     1      33.608  -8.201 -23.779  0.00  0.00    -0.175 NA
ATOM     27  C   UNL     1      32.638  -7.446 -23.372  0.00  0.00    +0.099 C 
ATOM     28  C   UNL     1      32.606 -10.090 -22.633  0.00  0.00    +0.268 C 
ATOM     29  C   UNL     1      31.527  -7.902 -22.517  0.00  0.00    +0.025 C 
ATOM     30  C   UNL     1      31.529  -9.188 -22.171  0.00  0.00    +0.061 C 
BRANCH  27  31
ATOM     31  C   UNL     1      32.634  -6.012 -23.767  0.00  0.00    +0.020 C 
ATOM     32  C   UNL     1      33.511  -5.556 -24.751  0.00  0.00    +0.012 C 
ATOM     33  C   UNL     1      31.752  -5.122 -23.152  0.00  0.00    +0.002 C 
ATOM     34  C   UNL     1      33.506  -4.211 -25.120  0.00  0.00    +0.068 C 
ATOM     35  C   UNL     1      31.748  -3.777 -23.521  0.00  0.00    +0.001 C 
ATOM     36  C   UNL     1      32.624  -3.321 -24.506  0.00  0.00    +0.010 C 
BRANCH  34  38
ATOM     37  N   UNL     1      35.135  -3.362 -26.946  0.00  0.00    -0.191 NA
ATOM     38  C   UNL     1      34.405  -3.743 -26.128  0.00  0.00    +0.100 C 
ENDBRANCH  34  38
ENDBRANCH  27  31
ENDBRANCH  23  25
ENDBRANCH   2  23
TORSDOF 8
ENDMDL
MODEL 9
REMARK VINA RESULT:     -11.9      2.391     12.331
REMARK  Name = 25171648
REMARK  8 active torsions:
REMARK  status: ('A' for Active; 'I' for Inactive)
REMARK    1  A    between atoms: C_1  and  C_12
REMARK    2  A    between atoms: C_2  and  C_23
REMARK    3  A    between atoms: C_9  and  O_13
REMARK    4  A    between atoms: O_13  and  C_14
REMARK    5  A    between atoms: C_14  and  C_16
REMARK    6  A    between atoms: C_23  and  N_25
REMARK    7  A    between atoms: C_27  and  C_31
REMARK    8  A    between atoms: C_34  and  C_38
REMARK                            x       y       z     vdW  Elec       q    Type
REMARK                         _______ _______ _______ _____ _____    ______ ____
ROOT
ATOM      1  C   UNL     1      34.741 -21.389 -18.760  0.00  0.00    +0.062 C 
ATOM      2  C   UNL     1      35.293 -20.049 -20.693  0.00  0.00    +0.000 C 
ATOM      3  C   UNL     1      35.694 -20.763 -19.563  0.00  0.00    +0.007 C 
ATOM      4  C   UNL     1      33.388 -21.302 -19.086  0.00  0.00    +0.010 C 
ATOM      5  C   UNL     1      33.940 -19.962 -21.019  0.00  0.00    -0.003 C 
ATOM      6  C   UNL     1      32.988 -20.589 -20.216  0.00  0.00    +0.000 C 
ENDROOT
BRANCH   1  12
ATOM      7  N   UNL     1      34.213 -22.874 -16.990  0.00  0.00    -0.212 NA
ATOM      8  N   UNL     1      36.444 -21.993 -17.225  0.00  0.00    -0.190 NA
ATOM      9  C   UNL     1      35.928 -23.499 -15.420  0.00  0.00    +0.161 C 
ATOM     10  C   UNL     1      34.636 -23.551 -15.902  0.00  0.00    +0.201 C 
ATOM     11  C   UNL     1      36.798 -22.697 -16.129  0.00  0.00    +0.144 C 
ATOM     12  C   UNL     1      35.155 -22.126 -17.594  0.00  0.00    +0.031 C 
BRANCH   9  13
ATOM     13  O   UNL     1      36.323 -24.203 -14.309  0.00  0.00    -0.476 OA
BRANCH  13  14
ATOM     14  C   UNL     1      37.600 -23.904 -13.778  0.00  0.00    +0.205 C 
BRANCH  14  16
ATOM     15  N   UNL     1      39.923 -26.880 -15.877  0.00  0.00    +0.386 N 
ATOM     16  C   UNL     1      38.518 -25.098 -14.019  0.00  0.00    +0.040 C 
ATOM     17  C   UNL     1      39.788 -24.674 -14.765  0.00  0.00    -0.019 C 
ATOM     18  C   UNL     1      37.799 -26.197 -14.807  0.00  0.00    -0.019 C 
ATOM     19  C   UNL     1      40.668 -25.880 -15.099  0.00  0.00    -0.077 C 
ATOM     20  C   UNL     1      38.744 -27.354 -15.139  0.00  0.00    -0.077 C 
ATOM     21  C   UNL     1      40.791 -28.003 -16.231  0.00  0.00    -0.101 C 
ATOM     22  H   UNL     1      39.599 -26.433 -16.734  0.00  0.00    -0.080 HD
ENDBRANCH  14  16
ENDBRANCH  13  14
ENDBRANCH   9  13
ENDBRANCH   1  12
BRANCH   2  23
ATOM     23  C   UNL     1      36.312 -19.378 -21.552  0.00  0.00    +0.146 C 
BRANCH  23  25
ATOM     24  O   UNL     1      35.597 -20.286 -24.175  0.00  0.00    -0.268 OA
ATOM     25  N   UNL     1      35.706 -18.578 -22.603  0.00  0.00    -0.173 N 
ATOM     26  N   UNL     1      35.483 -17.272 -22.271  0.00  0.00    -0.175 NA
ATOM     27  C   UNL     1      34.953 -16.496 -23.160  0.00  0.00    +0.099 C 
ATOM     28  C   UNL     1      35.397 -19.118 -23.843  0.00  0.00    +0.268 C 
ATOM     29  C   UNL     1      34.546 -16.928 -24.510  0.00  0.00    +0.025 C 
ATOM     30  C   UNL     1      34.772 -18.203 -24.821  0.00  0.00    +0.061 C 
BRANCH  27  31
ATOM     31  C   UNL     1      34.709 -15.070 -22.812  0.00  0.00    +0.020 C 
ATOM     32  C   UNL     1      34.580 -14.117 -23.822  0.00  0.00    +0.012 C 
ATOM     33  C   UNL     1      34.607 -14.687 -21.474  0.00  0.00    +0.002 C 
ATOM     34  C   UNL     1      34.351 -12.781 -23.494  0.00  0.00    +0.068 C 
ATOM     35  C   UNL     1      34.378 -13.351 -21.146  0.00  0.00    +0.001 C 
ATOM     36  C   UNL     1      34.250 -12.398 -22.156  0.00  0.00    +0.010 C 
BRANCH  34  38
ATOM     37  N   UNL     1      34.115 -11.009 -25.368  0.00  0.00    -0.191 NA
ATOM     38  C   UNL     1      34.221 -11.803 -24.528  0.00  0.00    +0.100 C 
ENDBRANCH  34  38
ENDBRANCH  27  31
ENDBRANCH  23  25
ENDBRANCH   2  23
TORSDOF 8
ENDMDL
