MODEL 1
REMARK VINA RESULT:     -12.7      0.000      0.000
REMARK  Name = 4369496
REMARK  6 active torsions:
REMARK  status: ('A' for Active; 'I' for Inactive)
REMARK    1  A    between atoms: N_2  and  C_21
REMARK    2  A    between atoms: C_3  and  C_10
REMARK    3  A    between atoms: C_5  and  C_11
REMARK    4  A    between atoms: C_11  and  N_12
REMARK    5  A    between atoms: C_23  and  N_27
REMARK    6  A    between atoms: C_31  and  C_36
REMARK                            x       y       z     vdW  Elec       q    Type
REMARK                         _______ _______ _______ _____ _____    ______ ____
ROOT
ATOM      1  O   UNL     1      33.832 -23.576 -19.062  0.00  0.00    -0.270 OA
ATOM      2  N   UNL     1      33.696 -22.055 -17.281  0.00  0.00    -0.280 N 
ATOM      3  C   UNL     1      34.016 -22.443 -18.590  0.00  0.00    +0.249 C 
ATOM      4  H   UNL     1      33.900 -21.120 -17.051  0.00  0.00    +0.155 HD
ENDROOT
BRANCH   3  10
ATOM      5  C   UNL     1      35.803 -19.470 -21.010  0.00  0.00    -0.043 C 
ATOM      6  C   UNL     1      36.607 -20.310 -20.254  0.00  0.00    -0.006 C 
ATOM      7  C   UNL     1      34.421 -19.590 -20.985  0.00  0.00    -0.006 C 
ATOM      8  C   UNL     1      36.018 -21.291 -19.457  0.00  0.00    +0.004 C 
ATOM      9  C   UNL     1      33.831 -20.571 -20.187  0.00  0.00    +0.004 C 
ATOM     10  C   UNL     1      34.630 -21.422 -19.423  0.00  0.00    +0.054 C 
BRANCH   5  11
ATOM     11  C   UNL     1      36.439 -18.411 -21.872  0.00  0.00    -0.050 C 
BRANCH  11  12
ATOM     12  N   UNL     1      35.438 -17.580 -22.539  0.00  0.00    +0.387 N 
ATOM     13  N   UNL     1      34.623 -15.541 -24.419  0.00  0.00    +0.383 N 
ATOM     14  C   UNL     1      35.428 -17.837 -23.984  0.00  0.00    -0.100 C 
ATOM     15  C   UNL     1      35.682 -16.157 -22.274  0.00  0.00    -0.100 C 
ATOM     16  C   UNL     1      34.381 -16.964 -24.685  0.00  0.00    -0.101 C 
ATOM     17  C   UNL     1      34.635 -15.284 -22.974  0.00  0.00    -0.101 C 
ATOM     18  C   UNL     1      33.622 -14.711 -25.086  0.00  0.00    -0.101 C 
ATOM     19  H   UNL     1      34.523 -17.825 -22.163  0.00  0.00    -0.079 HD
ATOM     20  H   UNL     1      35.538 -15.294 -24.798  0.00  0.00    -0.080 HD
ENDBRANCH  11  12
ENDBRANCH   5  11
ENDBRANCH   3  10
BRANCH   2  21
ATOM     21  C   UNL     1      33.119 -22.832 -16.247  0.00  0.00    +0.052 C 
ATOM     22  C   UNL     1      33.700 -22.824 -14.991  0.00  0.00    +0.030 C 
ATOM     23  C   UNL     1      33.131 -23.591 -13.973  0.00  0.00    +0.059 C 
ATOM     24  C   UNL     1      31.987 -23.581 -16.517  0.00  0.00    +0.015 C 
ATOM     25  C   UNL     1      31.990 -24.352 -14.227  0.00  0.00    +0.015 C 
ATOM     26  C   UNL     1      31.418 -24.347 -15.499  0.00  0.00    +0.003 C 
BRANCH  23  27
ATOM     27  N   UNL     1      33.709 -23.594 -12.686  0.00  0.00    -0.247 N 
ATOM     28  N   UNL     1      35.792 -24.594 -13.100  0.00  0.00    -0.337 NA
ATOM     29  N   UNL     1      35.176 -23.890 -10.879  0.00  0.00    -0.170 NA
ATOM     30  C   UNL     1      34.950 -24.048 -12.199  0.00  0.00    +0.149 C 
ATOM     31  C   UNL     1      36.971 -25.017 -12.599  0.00  0.00    +0.147 C 
ATOM     32  C   UNL     1      37.320 -24.912 -11.269  0.00  0.00    +0.055 C 
ATOM     33  C   UNL     1      36.374 -24.335 -10.446  0.00  0.00    +0.114 C 
ATOM     34  H   UNL     1      33.131 -23.203 -11.992  0.00  0.00    +0.165 HD
BRANCH  31  36
ATOM     35  N   UNL     1      38.182 -26.912 -15.571  0.00  0.00    -0.242 NA
ATOM     36  C   UNL     1      37.872 -25.601 -13.563  0.00  0.00    +0.050 C 
ATOM     37  C   UNL     1      39.249 -25.439 -13.449  0.00  0.00    +0.006 C 
ATOM     38  C   UNL     1      37.394 -26.340 -14.634  0.00  0.00    +0.101 C 
ATOM     39  C   UNL     1      40.092 -26.014 -14.394  0.00  0.00    +0.021 C 
ATOM     40  C   UNL     1      39.513 -26.733 -15.426  0.00  0.00    +0.099 C 
ENDBRANCH  31  36
ENDBRANCH  23  27
ENDBRANCH   2  21
TORSDOF 6
ENDMDL
MODEL 2
REMARK VINA RESULT:     -12.2      2.614      5.620
REMARK  Name = 4369496
REMARK  6 active torsions:
REMARK  status: ('A' for Active; 'I' for Inactive)
REMARK    1  A    between atoms: N_2  and  C_21
REMARK    2  A    between atoms: C_3  and  C_10
REMARK    3  A    between atoms: C_5  and  C_11
REMARK    4  A    between atoms: C_11  and  N_12
REMARK    5  A    between atoms: C_23  and  N_27
REMARK    6  A    between atoms: C_31  and  C_36
REMARK                            x       y       z     vdW  Elec       q    Type
REMARK                         _______ _______ _______ _____ _____    ______ ____
ROOT
ATOM      1  O   UNL     1      36.807 -18.270 -20.971  0.00  0.00    -0.270 OA
ATOM      2  N   UNL     1      34.579 -18.995 -21.075  0.00  0.00    -0.280 N 
ATOM      3  C   UNL     1      35.644 -18.136 -21.382  0.00  0.00    +0.249 C 
ATOM      4  H   UNL     1      33.711 -18.759 -21.475  0.00  0.00    +0.155 HD
ENDROOT
BRANCH   3  10
ATOM      5  C   UNL     1      34.696 -14.827 -23.840  0.00  0.00    -0.043 C 
ATOM      6  C   UNL     1      34.868 -14.638 -22.477  0.00  0.00    -0.006 C 
ATOM      7  C   UNL     1      34.830 -16.085 -24.410  0.00  0.00    -0.006 C 
ATOM      8  C   UNL     1      35.182 -15.729 -21.666  0.00  0.00    +0.004 C 
ATOM      9  C   UNL     1      35.144 -17.176 -23.600  0.00  0.00    +0.004 C 
ATOM     10  C   UNL     1      35.319 -16.999 -22.227  0.00  0.00    +0.054 C 
BRANCH   5  11
ATOM     11  C   UNL     1      34.359 -13.650 -24.716  0.00  0.00    -0.050 C 
BRANCH  11  12
ATOM     12  N   UNL     1      34.252 -12.412 -23.946  0.00  0.00    +0.387 N 
ATOM     13  N   UNL     1      33.042  -9.861 -23.325  0.00  0.00    +0.383 N 
ATOM     14  C   UNL     1      32.953 -12.330 -23.268  0.00  0.00    -0.100 C 
ATOM     15  C   UNL     1      34.454 -11.242 -24.810  0.00  0.00    -0.100 C 
ATOM     16  C   UNL     1      32.840 -11.031 -22.463  0.00  0.00    -0.101 C 
ATOM     17  C   UNL     1      34.341  -9.943 -24.005  0.00  0.00    -0.101 C 
ATOM     18  C   UNL     1      32.937  -8.624 -22.554  0.00  0.00    -0.101 C 
ATOM     19  H   UNL     1      34.985 -12.418 -23.237  0.00  0.00    -0.079 HD
ATOM     20  H   UNL     1      32.308  -9.853 -24.034  0.00  0.00    -0.080 HD
ENDBRANCH  11  12
ENDBRANCH   5  11
ENDBRANCH   3  10
BRANCH   2  21
ATOM     21  C   UNL     1      34.587 -20.156 -20.264  0.00  0.00    +0.052 C 
ATOM     22  C   UNL     1      33.427 -20.531 -19.608  0.00  0.00    +0.030 C 
ATOM     23  C   UNL     1      33.437 -21.675 -18.808  0.00  0.00    +0.059 C 
ATOM     24  C   UNL     1      35.756 -20.889 -20.147  0.00  0.00    +0.015 C 
ATOM     25  C   UNL     1      34.605 -22.425 -18.679  0.00  0.00    +0.015 C 
ATOM     26  C   UNL     1      35.764 -22.033 -19.348  0.00  0.00    +0.003 C 
BRANCH  23  27
ATOM     27  N   UNL     1      32.264 -22.072 -18.133  0.00  0.00    -0.247 N 
ATOM     28  N   UNL     1      33.140 -23.031 -16.179  0.00  0.00    -0.337 NA
ATOM     29  N   UNL     1      30.762 -22.948 -16.558  0.00  0.00    -0.170 NA
ATOM     30  C   UNL     1      32.045 -22.714 -16.899  0.00  0.00    +0.149 C 
ATOM     31  C   UNL     1      32.893 -23.645 -15.003  0.00  0.00    +0.147 C 
ATOM     32  C   UNL     1      31.626 -23.938 -14.543  0.00  0.00    +0.055 C 
ATOM     33  C   UNL     1      30.588 -23.564 -15.370  0.00  0.00    +0.114 C 
ATOM     34  H   UNL     1      31.436 -21.860 -18.622  0.00  0.00    +0.165 HD
BRANCH  31  36
ATOM     35  N   UNL     1      35.100 -24.265 -12.064  0.00  0.00    -0.242 NA
ATOM     36  C   UNL     1      34.064 -23.984 -14.231  0.00  0.00    +0.050 C 
ATOM     37  C   UNL     1      35.254 -24.346 -14.854  0.00  0.00    +0.006 C 
ATOM     38  C   UNL     1      34.041 -23.959 -12.846  0.00  0.00    +0.101 C 
ATOM     39  C   UNL     1      36.367 -24.667 -14.083  0.00  0.00    +0.021 C 
ATOM     40  C   UNL     1      36.238 -24.612 -12.705  0.00  0.00    +0.099 C 
ENDBRANCH  31  36
ENDBRANCH  23  27
ENDBRANCH   2  21
TORSDOF 6
ENDMDL
MODEL 3
REMARK VINA RESULT:     -12.0      2.646      5.793
REMARK  Name = 4369496
REMARK  6 active torsions:
REMARK  status: ('A' for Active; 'I' for Inactive)
REMARK    1  A    between atoms: N_2  and  C_21
REMARK    2  A    between atoms: C_3  and  C_10
REMARK    3  A    between atoms: C_5  and  C_11
REMARK    4  A    between atoms: C_11  and  N_12
REMARK    5  A    between atoms: C_23  and  N_27
REMARK    6  A    between atoms: C_31  and  C_36
REMARK                            x       y       z     vdW  Elec       q    Type
REMARK                         _______ _______ _______ _____ _____    ______ ____
ROOT
ATOM      1  O   UNL     1      35.422 -19.374 -23.625  0.00  0.00    -0.270 OA
ATOM      2  N   UNL     1      34.829 -18.637 -21.478  0.00  0.00    -0.280 N 
ATOM      3  C   UNL     1      35.036 -18.479 -22.856  0.00  0.00    +0.249 C 
ATOM      4  H   UNL     1      34.521 -17.835 -20.998  0.00  0.00    +0.155 HD
ENDROOT
BRANCH   3  10
ATOM      5  C   UNL     1      34.334 -14.602 -24.394  0.00  0.00    -0.043 C 
ATOM      6  C   UNL     1      35.042 -14.749 -23.210  0.00  0.00    -0.006 C 
ATOM      7  C   UNL     1      33.853 -15.707 -25.082  0.00  0.00    -0.006 C 
ATOM      8  C   UNL     1      35.274 -16.028 -22.703  0.00  0.00    +0.004 C 
ATOM      9  C   UNL     1      34.085 -16.986 -24.575  0.00  0.00    +0.004 C 
ATOM     10  C   UNL     1      34.796 -17.146 -23.386  0.00  0.00    +0.054 C 
BRANCH   5  11
ATOM     11  C   UNL     1      34.084 -13.222 -24.943  0.00  0.00    -0.050 C 
BRANCH  11  12
ATOM     12  N   UNL     1      33.889 -12.240 -23.878  0.00  0.00    +0.387 N 
ATOM     13  N   UNL     1      32.375 -10.196 -22.504  0.00  0.00    +0.383 N 
ATOM     14  C   UNL     1      32.715 -12.579 -23.066  0.00  0.00    -0.100 C 
ATOM     15  C   UNL     1      33.754 -10.889 -24.434  0.00  0.00    -0.100 C 
ATOM     16  C   UNL     1      32.508 -11.549 -21.950  0.00  0.00    -0.101 C 
ATOM     17  C   UNL     1      33.548  -9.857 -23.319  0.00  0.00    -0.101 C 
ATOM     18  C   UNL     1      32.181  -9.215 -21.439  0.00  0.00    -0.101 C 
ATOM     19  H   UNL     1      34.712 -12.260 -23.277  0.00  0.00    -0.079 HD
ATOM     20  H   UNL     1      31.549 -10.175 -23.105  0.00  0.00    -0.080 HD
ENDBRANCH  11  12
ENDBRANCH   5  11
ENDBRANCH   3  10
BRANCH   2  21
ATOM     21  C   UNL     1      35.004 -19.798 -20.687  0.00  0.00    +0.052 C 
ATOM     22  C   UNL     1      33.918 -20.324 -20.009  0.00  0.00    +0.030 C 
ATOM     23  C   UNL     1      34.092 -21.468 -19.228  0.00  0.00    +0.059 C 
ATOM     24  C   UNL     1      36.258 -20.380 -20.610  0.00  0.00    +0.015 C 
ATOM     25  C   UNL     1      35.348 -22.067 -19.139  0.00  0.00    +0.015 C 
ATOM     26  C   UNL     1      36.431 -21.524 -19.830  0.00  0.00    +0.003 C 
BRANCH  23  27
ATOM     27  N   UNL     1      32.996 -22.018 -18.530  0.00  0.00    -0.247 N 
ATOM     28  N   UNL     1      34.010 -22.740 -16.541  0.00  0.00    -0.337 NA
ATOM     29  N   UNL     1      31.650 -23.054 -16.912  0.00  0.00    -0.170 NA
ATOM     30  C   UNL     1      32.880 -22.633 -17.269  0.00  0.00    +0.149 C 
ATOM     31  C   UNL     1      33.862 -23.333 -15.338  0.00  0.00    +0.147 C 
ATOM     32  C   UNL     1      32.657 -23.805 -14.860  0.00  0.00    +0.055 C 
ATOM     33  C   UNL     1      31.574 -23.638 -15.698  0.00  0.00    +0.114 C 
ATOM     34  H   UNL     1      32.146 -21.963 -19.024  0.00  0.00    +0.165 HD
BRANCH  31  36
ATOM     35  N   UNL     1      37.326 -22.692 -14.122  0.00  0.00    -0.242 NA
ATOM     36  C   UNL     1      35.070 -23.446 -14.558  0.00  0.00    +0.050 C 
ATOM     37  C   UNL     1      35.174 -24.372 -13.524  0.00  0.00    +0.006 C 
ATOM     38  C   UNL     1      36.166 -22.638 -14.814  0.00  0.00    +0.101 C 
ATOM     39  C   UNL     1      36.352 -24.458 -12.790  0.00  0.00    +0.021 C 
ATOM     40  C   UNL     1      37.388 -23.603 -13.126  0.00  0.00    +0.099 C 
ENDBRANCH  31  36
ENDBRANCH  23  27
ENDBRANCH   2  21
TORSDOF 6
ENDMDL
MODEL 4
REMARK VINA RESULT:     -11.7      6.174     15.530
REMARK  Name = 4369496
REMARK  6 active torsions:
REMARK  status: ('A' for Active; 'I' for Inactive)
REMARK    1  A    between atoms: N_2  and  C_21
REMARK    2  A    between atoms: C_3  and  C_10
REMARK    3  A    between atoms: C_5  and  C_11
REMARK    4  A    between atoms: C_11  and  N_12
REMARK    5  A    between atoms: C_23  and  N_27
REMARK    6  A    between atoms: C_31  and  C_36
REMARK                            x       y       z     vdW  Elec       q    Type
REMARK                         _______ _______ _______ _____ _____    ______ ____
ROOT
ATOM      1  O   UNL     1      33.898 -15.218 -25.099  0.00  0.00    -0.270 OA
ATOM      2  N   UNL     1      34.639 -13.865 -23.331  0.00  0.00    -0.280 N 
ATOM      3  C   UNL     1      34.463 -15.084 -24.001  0.00  0.00    +0.249 C 
ATOM      4  H   UNL     1      35.107 -13.917 -22.467  0.00  0.00    +0.155 HD
ENDROOT
BRANCH   3  10
ATOM      5  C   UNL     1      35.930 -18.517 -22.014  0.00  0.00    -0.043 C 
ATOM      6  C   UNL     1      35.589 -18.598 -23.356  0.00  0.00    -0.006 C 
ATOM      7  C   UNL     1      35.797 -17.326 -21.313  0.00  0.00    -0.006 C 
ATOM      8  C   UNL     1      35.106 -17.466 -24.012  0.00  0.00    +0.004 C 
ATOM      9  C   UNL     1      35.314 -16.194 -21.969  0.00  0.00    +0.004 C 
ATOM     10  C   UNL     1      34.968 -16.263 -23.318  0.00  0.00    +0.054 C 
BRANCH   5  11
ATOM     11  C   UNL     1      36.453 -19.739 -21.305  0.00  0.00    -0.050 C 
BRANCH  11  12
ATOM     12  N   UNL     1      35.579 -20.146 -20.207  0.00  0.00    +0.387 N 
ATOM     13  N   UNL     1      33.801 -22.001 -18.882  0.00  0.00    +0.383 N 
ATOM     14  C   UNL     1      36.090 -21.359 -19.557  0.00  0.00    -0.100 C 
ATOM     15  C   UNL     1      34.208 -20.360 -20.684  0.00  0.00    -0.100 C 
ATOM     16  C   UNL     1      35.174 -21.789 -18.406  0.00  0.00    -0.101 C 
ATOM     17  C   UNL     1      33.290 -20.789 -19.533  0.00  0.00    -0.101 C 
ATOM     18  C   UNL     1      32.928 -22.408 -17.782  0.00  0.00    -0.101 C 
ATOM     19  H   UNL     1      35.567 -19.394 -19.518  0.00  0.00    -0.079 HD
ATOM     20  H   UNL     1      33.813 -22.756 -19.570  0.00  0.00    -0.080 HD
ENDBRANCH  11  12
ENDBRANCH   5  11
ENDBRANCH   3  10
BRANCH   2  21
ATOM     21  C   UNL     1      34.234 -12.569 -23.735  0.00  0.00    +0.052 C 
ATOM     22  C   UNL     1      33.690 -11.709 -22.797  0.00  0.00    +0.030 C 
ATOM     23  C   UNL     1      33.288 -10.433 -23.196  0.00  0.00    +0.059 C 
ATOM     24  C   UNL     1      34.391 -12.194 -25.058  0.00  0.00    +0.015 C 
ATOM     25  C   UNL     1      33.439 -10.038 -24.525  0.00  0.00    +0.015 C 
ATOM     26  C   UNL     1      33.990 -10.918 -25.456  0.00  0.00    +0.003 C 
BRANCH  23  27
ATOM     27  N   UNL     1      32.733  -9.542 -22.253  0.00  0.00    -0.247 N 
ATOM     28  N   UNL     1      33.234  -7.460 -23.213  0.00  0.00    -0.337 NA
ATOM     29  N   UNL     1      32.050  -7.606 -21.119  0.00  0.00    -0.170 NA
ATOM     30  C   UNL     1      32.670  -8.137 -22.192  0.00  0.00    +0.149 C 
ATOM     31  C   UNL     1      33.155  -6.116 -23.121  0.00  0.00    +0.147 C 
ATOM     32  C   UNL     1      32.547  -5.454 -22.075  0.00  0.00    +0.055 C 
ATOM     33  C   UNL     1      32.006  -6.257 -21.092  0.00  0.00    +0.114 C 
ATOM     34  H   UNL     1      32.307  -9.992 -21.488  0.00  0.00    +0.165 HD
BRANCH  31  36
ATOM     35  N   UNL     1      33.714  -3.487 -25.704  0.00  0.00    -0.242 NA
ATOM     36  C   UNL     1      33.758  -5.391 -24.213  0.00  0.00    +0.050 C 
ATOM     37  C   UNL     1      34.920  -5.851 -24.825  0.00  0.00    +0.006 C 
ATOM     38  C   UNL     1      33.200  -4.214 -24.686  0.00  0.00    +0.101 C 
ATOM     39  C   UNL     1      35.478  -5.131 -25.876  0.00  0.00    +0.021 C 
ATOM     40  C   UNL     1      34.842  -3.966 -26.273  0.00  0.00    +0.099 C 
ENDBRANCH  31  36
ENDBRANCH  23  27
ENDBRANCH   2  21
TORSDOF 6
ENDMDL
MODEL 5
REMARK VINA RESULT:     -11.2      1.649      2.326
REMARK  Name = 4369496
REMARK  6 active torsions:
REMARK  status: ('A' for Active; 'I' for Inactive)
REMARK    1  A    between atoms: N_2  and  C_21
REMARK    2  A    between atoms: C_3  and  C_10
REMARK    3  A    between atoms: C_5  and  C_11
REMARK    4  A    between atoms: C_11  and  N_12
REMARK    5  A    between atoms: C_23  and  N_27
REMARK    6  A    between atoms: C_31  and  C_36
REMARK                            x       y       z     vdW  Elec       q    Type
REMARK                         _______ _______ _______ _____ _____    ______ ____
ROOT
ATOM      1  O   UNL     1      37.016 -21.065 -18.101  0.00  0.00    -0.270 OA
ATOM      2  N   UNL     1      34.769 -21.630 -18.472  0.00  0.00    -0.280 N 
ATOM      3  C   UNL     1      35.984 -21.006 -18.789  0.00  0.00    +0.249 C 
ATOM      4  H   UNL     1      34.037 -21.492 -19.115  0.00  0.00    +0.155 HD
ENDROOT
BRANCH   3  10
ATOM      5  C   UNL     1      36.010 -18.714 -22.343  0.00  0.00    -0.043 C 
ATOM      6  C   UNL     1      34.855 -19.389 -21.974  0.00  0.00    -0.006 C 
ATOM      7  C   UNL     1      37.156 -18.778 -21.564  0.00  0.00    -0.006 C 
ATOM      8  C   UNL     1      34.846 -20.144 -20.802  0.00  0.00    +0.004 C 
ATOM      9  C   UNL     1      37.147 -19.533 -20.392  0.00  0.00    +0.004 C 
ATOM     10  C   UNL     1      35.993 -20.217 -20.010  0.00  0.00    +0.054 C 
BRANCH   5  11
ATOM     11  C   UNL     1      36.019 -17.897 -23.609  0.00  0.00    -0.050 C 
BRANCH  11  12
ATOM     12  N   UNL     1      35.723 -16.489 -23.350  0.00  0.00    +0.387 N 
ATOM     13  N   UNL     1      33.931 -14.303 -22.743  0.00  0.00    +0.383 N 
ATOM     14  C   UNL     1      35.164 -16.313 -22.004  0.00  0.00    -0.100 C 
ATOM     15  C   UNL     1      34.802 -15.956 -24.361  0.00  0.00    -0.100 C 
ATOM     16  C   UNL     1      34.851 -14.838 -21.732  0.00  0.00    -0.101 C 
ATOM     17  C   UNL     1      34.489 -14.480 -24.090  0.00  0.00    -0.101 C 
ATOM     18  C   UNL     1      33.637 -12.895 -22.484  0.00  0.00    -0.101 C 
ATOM     19  H   UNL     1      36.598 -15.968 -23.404  0.00  0.00    -0.079 HD
ATOM     20  H   UNL     1      33.055 -14.823 -22.687  0.00  0.00    -0.080 HD
ENDBRANCH  11  12
ENDBRANCH   5  11
ENDBRANCH   3  10
BRANCH   2  21
ATOM     21  C   UNL     1      34.457 -22.433 -17.347  0.00  0.00    +0.052 C 
ATOM     22  C   UNL     1      35.092 -22.186 -16.143  0.00  0.00    +0.030 C 
ATOM     23  C   UNL     1      34.786 -22.978 -15.036  0.00  0.00    +0.059 C 
ATOM     24  C   UNL     1      33.523 -23.446 -17.480  0.00  0.00    +0.015 C 
ATOM     25  C   UNL     1      33.847 -24.004 -15.151  0.00  0.00    +0.015 C 
ATOM     26  C   UNL     1      33.216 -24.238 -16.373  0.00  0.00    +0.003 C 
BRANCH  23  27
ATOM     27  N   UNL     1      35.423 -22.740 -13.800  0.00  0.00    -0.247 N 
ATOM     28  N   UNL     1      37.264 -24.190 -13.924  0.00  0.00    -0.337 NA
ATOM     29  N   UNL     1      36.907 -22.805 -11.985  0.00  0.00    -0.170 NA
ATOM     30  C   UNL     1      36.586 -23.270 -13.209  0.00  0.00    +0.149 C 
ATOM     31  C   UNL     1      38.372 -24.676 -13.328  0.00  0.00    +0.147 C 
ATOM     32  C   UNL     1      38.806 -24.281 -12.079  0.00  0.00    +0.055 C 
ATOM     33  C   UNL     1      38.027 -23.334 -11.448  0.00  0.00    +0.114 C 
ATOM     34  H   UNL     1      34.963 -22.073 -13.241  0.00  0.00    +0.165 HD
BRANCH  31  36
ATOM     35  N   UNL     1      41.202 -26.734 -14.611  0.00  0.00    -0.242 NA
ATOM     36  C   UNL     1      39.098 -25.660 -14.094  0.00  0.00    +0.050 C 
ATOM     37  C   UNL     1      38.451 -26.467 -15.023  0.00  0.00    +0.006 C 
ATOM     38  C   UNL     1      40.463 -25.831 -13.927  0.00  0.00    +0.101 C 
ATOM     39  C   UNL     1      39.178 -27.407 -15.747  0.00  0.00    +0.021 C 
ATOM     40  C   UNL     1      40.538 -27.499 -15.505  0.00  0.00    +0.099 C 
ENDBRANCH  31  36
ENDBRANCH  23  27
ENDBRANCH   2  21
TORSDOF 6
ENDMDL
MODEL 6
REMARK VINA RESULT:     -10.9      8.819     17.965
REMARK  Name = 4369496
REMARK  6 active torsions:
REMARK  status: ('A' for Active; 'I' for Inactive)
REMARK    1  A    between atoms: N_2  and  C_21
REMARK    2  A    between atoms: C_3  and  C_10
REMARK    3  A    between atoms: C_5  and  C_11
REMARK    4  A    between atoms: C_11  and  N_12
REMARK    5  A    between atoms: C_23  and  N_27
REMARK    6  A    between atoms: C_31  and  C_36
REMARK                            x       y       z     vdW  Elec       q    Type
REMARK                         _______ _______ _______ _____ _____    ______ ____
ROOT
ATOM      1  O   UNL     1      34.645  -8.683 -23.934  0.00  0.00    -0.270 OA
ATOM      2  N   UNL     1      32.801  -9.092 -22.543  0.00  0.00    -0.280 N 
ATOM      3  C   UNL     1      33.781  -9.450 -23.479  0.00  0.00    +0.249 C 
ATOM      4  H   UNL     1      32.183  -9.810 -22.276  0.00  0.00    +0.155 HD
ENDROOT
BRANCH   3  10
ATOM      5  C   UNL     1      33.658 -13.450 -24.847  0.00  0.00    -0.043 C 
ATOM      6  C   UNL     1      33.363 -13.173 -23.520  0.00  0.00    -0.006 C 
ATOM      7  C   UNL     1      33.992 -12.435 -25.733  0.00  0.00    -0.006 C 
ATOM      8  C   UNL     1      33.403 -11.853 -23.069  0.00  0.00    +0.004 C 
ATOM      9  C   UNL     1      34.032 -11.116 -25.282  0.00  0.00    +0.004 C 
ATOM     10  C   UNL     1      33.738 -10.825 -23.950  0.00  0.00    +0.054 C 
BRANCH   5  11
ATOM     11  C   UNL     1      33.613 -14.874 -25.335  0.00  0.00    -0.050 C 
BRANCH  11  12
ATOM     12  N   UNL     1      34.071 -15.814 -24.313  0.00  0.00    +0.387 N 
ATOM     13  N   UNL     1      35.981 -17.673 -23.194  0.00  0.00    +0.383 N 
ATOM     14  C   UNL     1      35.317 -15.346 -23.696  0.00  0.00    -0.100 C 
ATOM     15  C   UNL     1      34.253 -17.154 -24.883  0.00  0.00    -0.100 C 
ATOM     16  C   UNL     1      35.800 -16.332 -22.626  0.00  0.00    -0.101 C 
ATOM     17  C   UNL     1      34.734 -18.141 -23.813  0.00  0.00    -0.101 C 
ATOM     18  C   UNL     1      36.437 -18.612 -22.172  0.00  0.00    -0.101 C 
ATOM     19  H   UNL     1      33.355 -15.866 -23.590  0.00  0.00    -0.079 HD
ATOM     20  H   UNL     1      36.699 -17.622 -23.917  0.00  0.00    -0.080 HD
ENDBRANCH  11  12
ENDBRANCH   5  11
ENDBRANCH   3  10
BRANCH   2  21
ATOM     21  C   UNL     1      32.583  -7.833 -21.931  0.00  0.00    +0.052 C 
ATOM     22  C   UNL     1      31.948  -6.833 -22.649  0.00  0.00    +0.030 C 
ATOM     23  C   UNL     1      31.736  -5.593 -22.047  0.00  0.00    +0.059 C 
ATOM     24  C   UNL     1      33.010  -7.631 -20.630  0.00  0.00    +0.015 C 
ATOM     25  C   UNL     1      32.159  -5.372 -20.736  0.00  0.00    +0.015 C 
ATOM     26  C   UNL     1      32.797  -6.391 -20.028  0.00  0.00    +0.003 C 
BRANCH  23  27
ATOM     27  N   UNL     1      31.089  -4.563 -22.763  0.00  0.00    -0.247 N 
ATOM     28  N   UNL     1      32.670  -4.074 -24.426  0.00  0.00    -0.337 NA
ATOM     29  N   UNL     1      30.581  -2.878 -24.314  0.00  0.00    -0.170 NA
ATOM     30  C   UNL     1      31.465  -3.803 -23.887  0.00  0.00    +0.149 C 
ATOM     31  C   UNL     1      32.997  -3.327 -25.502  0.00  0.00    +0.147 C 
ATOM     32  C   UNL     1      32.179  -2.352 -26.034  0.00  0.00    +0.055 C 
ATOM     33  C   UNL     1      30.972  -2.168 -25.393  0.00  0.00    +0.114 C 
ATOM     34  H   UNL     1      30.202  -4.330 -22.405  0.00  0.00    +0.165 HD
BRANCH  31  36
ATOM     35  N   UNL     1      36.187  -2.866 -27.373  0.00  0.00    -0.242 NA
ATOM     36  C   UNL     1      34.286  -3.617 -26.080  0.00  0.00    +0.050 C 
ATOM     37  C   UNL     1      34.877  -4.868 -25.927  0.00  0.00    +0.006 C 
ATOM     38  C   UNL     1      34.977  -2.660 -26.806  0.00  0.00    +0.101 C 
ATOM     39  C   UNL     1      36.121  -5.118 -26.496  0.00  0.00    +0.021 C 
ATOM     40  C   UNL     1      36.728  -4.093 -27.203  0.00  0.00    +0.099 C 
ENDBRANCH  31  36
ENDBRANCH  23  27
ENDBRANCH   2  21
TORSDOF 6
ENDMDL
MODEL 7
REMARK VINA RESULT:     -10.5      5.264     14.203
REMARK  Name = 4369496
REMARK  6 active torsions:
REMARK  status: ('A' for Active; 'I' for Inactive)
REMARK    1  A    between atoms: N_2  and  C_21
REMARK    2  A    between atoms: C_3  and  C_10
REMARK    3  A    between atoms: C_5  and  C_11
REMARK    4  A    between atoms: C_11  and  N_12
REMARK    5  A    between atoms: C_23  and  N_27
REMARK    6  A    between atoms: C_31  and  C_36
REMARK                            x       y       z     vdW  Elec       q    Type
REMARK                         _______ _______ _______ _____ _____    ______ ____
ROOT
ATOM      1  O   UNL     1      34.997 -16.755 -23.846  0.00  0.00    -0.270 OA
ATOM      2  N   UNL     1      34.779 -15.518 -21.865  0.00  0.00    -0.280 N 
ATOM      3  C   UNL     1      35.086 -16.665 -22.611  0.00  0.00    +0.249 C 
ATOM      4  H   UNL     1      34.899 -15.598 -20.891  0.00  0.00    +0.155 HD
ENDROOT
BRANCH   3  10
ATOM      5  C   UNL     1      36.324 -20.040 -20.383  0.00  0.00    -0.043 C 
ATOM      6  C   UNL     1      35.008 -19.950 -20.813  0.00  0.00    -0.006 C 
ATOM      7  C   UNL     1      37.241 -19.039 -20.674  0.00  0.00    -0.006 C 
ATOM      8  C   UNL     1      34.600 -18.838 -21.549  0.00  0.00    +0.004 C 
ATOM      9  C   UNL     1      36.833 -17.927 -21.409  0.00  0.00    +0.004 C 
ATOM     10  C   UNL     1      35.512 -17.825 -21.847  0.00  0.00    +0.054 C 
BRANCH   5  11
ATOM     11  C   UNL     1      36.766 -21.242 -19.591  0.00  0.00    -0.050 C 
BRANCH  11  12
ATOM     12  N   UNL     1      35.941 -21.442 -18.401  0.00  0.00    +0.387 N 
ATOM     13  N   UNL     1      34.770 -23.077 -16.324  0.00  0.00    +0.383 N 
ATOM     14  C   UNL     1      36.748 -21.951 -17.286  0.00  0.00    -0.100 C 
ATOM     15  C   UNL     1      34.829 -22.357 -18.687  0.00  0.00    -0.100 C 
ATOM     16  C   UNL     1      35.883 -22.164 -16.039  0.00  0.00    -0.101 C 
ATOM     17  C   UNL     1      33.963 -22.570 -17.441  0.00  0.00    -0.101 C 
ATOM     18  C   UNL     1      33.944 -23.276 -15.135  0.00  0.00    -0.101 C 
ATOM     19  H   UNL     1      35.553 -20.539 -18.131  0.00  0.00    -0.079 HD
ATOM     20  H   UNL     1      35.158 -23.982 -16.593  0.00  0.00    -0.080 HD
ENDBRANCH  11  12
ENDBRANCH   5  11
ENDBRANCH   3  10
BRANCH   2  21
ATOM     21  C   UNL     1      34.321 -14.261 -22.327  0.00  0.00    +0.052 C 
ATOM     22  C   UNL     1      33.628 -13.433 -21.460  0.00  0.00    +0.030 C 
ATOM     23  C   UNL     1      33.175 -12.195 -21.917  0.00  0.00    +0.059 C 
ATOM     24  C   UNL     1      34.576 -13.889 -23.636  0.00  0.00    +0.015 C 
ATOM     25  C   UNL     1      33.423 -11.804 -23.233  0.00  0.00    +0.015 C 
ATOM     26  C   UNL     1      34.123 -12.650 -24.092  0.00  0.00    +0.003 C 
BRANCH  23  27
ATOM     27  N   UNL     1      32.468 -11.338 -21.047  0.00  0.00    -0.247 N 
ATOM     28  N   UNL     1      33.039  -9.224 -21.892  0.00  0.00    -0.337 NA
ATOM     29  N   UNL     1      31.578  -9.443 -19.988  0.00  0.00    -0.170 NA
ATOM     30  C   UNL     1      32.357  -9.936 -20.972  0.00  0.00    +0.149 C 
ATOM     31  C   UNL     1      32.910  -7.885 -21.790  0.00  0.00    +0.147 C 
ATOM     32  C   UNL     1      32.143  -7.260 -20.828  0.00  0.00    +0.055 C 
ATOM     33  C   UNL     1      31.494  -8.097 -19.945  0.00  0.00    +0.114 C 
ATOM     34  H   UNL     1      31.952 -11.814 -20.357  0.00  0.00    +0.165 HD
BRANCH  31  36
ATOM     35  N   UNL     1      33.838  -5.106 -24.093  0.00  0.00    -0.242 NA
ATOM     36  C   UNL     1      33.639  -7.123 -22.775  0.00  0.00    +0.050 C 
ATOM     37  C   UNL     1      34.804  -7.621 -23.350  0.00  0.00    +0.006 C 
ATOM     38  C   UNL     1      33.202  -5.871 -23.178  0.00  0.00    +0.101 C 
ATOM     39  C   UNL     1      35.485  -6.863 -24.296  0.00  0.00    +0.021 C 
ATOM     40  C   UNL     1      34.965  -5.623 -24.630  0.00  0.00    +0.099 C 
ENDBRANCH  31  36
ENDBRANCH  23  27
ENDBRANCH   2  21
TORSDOF 6
ENDMDL
MODEL 8
REMARK VINA RESULT:     -10.5      4.686     14.067
REMARK  Name = 4369496
REMARK  6 active torsions:
REMARK  status: ('A' for Active; 'I' for Inactive)
REMARK    1  A    between atoms: N_2  and  C_21
REMARK    2  A    between atoms: C_3  and  C_10
REMARK    3  A    between atoms: C_5  and  C_11
REMARK    4  A    between atoms: C_11  and  N_12
REMARK    5  A    between atoms: C_23  and  N_27
REMARK    6  A    between atoms: C_31  and  C_36
REMARK                            x       y       z     vdW  Elec       q    Type
REMARK                         _______ _______ _______ _____ _____    ______ ____
ROOT
ATOM      1  O   UNL     1      33.721 -16.814 -25.439  0.00  0.00    -0.270 OA
ATOM      2  N   UNL     1      34.609 -14.961 -24.307  0.00  0.00    -0.280 N 
ATOM      3  C   UNL     1      34.386 -16.330 -24.509  0.00  0.00    +0.249 C 
ATOM      4  H   UNL     1      35.157 -14.729 -23.524  0.00  0.00    +0.155 HD
ENDROOT
BRANCH   3  10
ATOM      5  C   UNL     1      36.087 -18.925 -21.634  0.00  0.00    -0.043 C 
ATOM      6  C   UNL     1      35.595 -19.448 -22.821  0.00  0.00    -0.006 C 
ATOM      7  C   UNL     1      36.030 -17.562 -21.375  0.00  0.00    -0.006 C 
ATOM      8  C   UNL     1      35.035 -18.593 -23.769  0.00  0.00    +0.004 C 
ATOM      9  C   UNL     1      35.469 -16.707 -22.324  0.00  0.00    +0.004 C 
ATOM     10  C   UNL     1      34.972 -17.222 -23.521  0.00  0.00    +0.054 C 
BRANCH   5  11
ATOM     11  C   UNL     1      36.693 -19.848 -20.610  0.00  0.00    -0.050 C 
BRANCH  11  12
ATOM     12  N   UNL     1      35.705 -20.300 -19.633  0.00  0.00    +0.387 N 
ATOM     13  N   UNL     1      33.864 -22.245 -18.542  0.00  0.00    +0.383 N 
ATOM     14  C   UNL     1      36.187 -21.487 -18.916  0.00  0.00    -0.100 C 
ATOM     15  C   UNL     1      34.420 -20.582 -20.284  0.00  0.00    -0.100 C 
ATOM     16  C   UNL     1      35.150 -21.964 -17.892  0.00  0.00    -0.101 C 
ATOM     17  C   UNL     1      33.382 -21.059 -19.261  0.00  0.00    -0.101 C 
ATOM     18  C   UNL     1      32.876 -22.696 -17.565  0.00  0.00    -0.101 C 
ATOM     19  H   UNL     1      35.565 -19.551 -18.956  0.00  0.00    -0.079 HD
ATOM     20  H   UNL     1      34.004 -22.997 -19.219  0.00  0.00    -0.080 HD
ENDBRANCH  11  12
ENDBRANCH   5  11
ENDBRANCH   3  10
BRANCH   2  21
ATOM     21  C   UNL     1      34.147 -13.868 -25.081  0.00  0.00    +0.052 C 
ATOM     22  C   UNL     1      34.671 -12.608 -24.851  0.00  0.00    +0.030 C 
ATOM     23  C   UNL     1      34.215 -11.531 -25.613  0.00  0.00    +0.059 C 
ATOM     24  C   UNL     1      33.184 -14.087 -26.051  0.00  0.00    +0.015 C 
ATOM     25  C   UNL     1      33.244 -11.733 -26.594  0.00  0.00    +0.015 C 
ATOM     26  C   UNL     1      32.729 -13.010 -26.813  0.00  0.00    +0.003 C 
BRANCH  23  27
ATOM     27  N   UNL     1      34.738 -10.240 -25.392  0.00  0.00    -0.247 N 
ATOM     28  N   UNL     1      33.704  -9.645 -23.371  0.00  0.00    -0.337 NA
ATOM     29  N   UNL     1      35.219  -8.133 -24.479  0.00  0.00    -0.170 NA
ATOM     30  C   UNL     1      34.544  -9.295 -24.366  0.00  0.00    +0.149 C 
ATOM     31  C   UNL     1      33.542  -8.716 -22.406  0.00  0.00    +0.147 C 
ATOM     32  C   UNL     1      34.176  -7.491 -22.407  0.00  0.00    +0.055 C 
ATOM     33  C   UNL     1      35.011  -7.251 -23.479  0.00  0.00    +0.114 C 
ATOM     34  H   UNL     1      35.359  -9.940 -26.094  0.00  0.00    +0.165 HD
BRANCH  31  36
ATOM     35  N   UNL     1      31.780  -8.667 -19.122  0.00  0.00    -0.242 NA
ATOM     36  C   UNL     1      32.644  -9.090 -21.340  0.00  0.00    +0.050 C 
ATOM     37  C   UNL     1      31.795 -10.185 -21.469  0.00  0.00    +0.006 C 
ATOM     38  C   UNL     1      32.598  -8.371 -20.157  0.00  0.00    +0.101 C 
ATOM     39  C   UNL     1      30.940 -10.521 -20.424  0.00  0.00    +0.021 C 
ATOM     40  C   UNL     1      30.971  -9.737 -19.283  0.00  0.00    +0.099 C 
ENDBRANCH  31  36
ENDBRANCH  23  27
ENDBRANCH   2  21
TORSDOF 6
ENDMDL
MODEL 9
REMARK VINA RESULT:     -10.0      1.835     12.306
REMARK  Name = 4369496
REMARK  6 active torsions:
REMARK  status: ('A' for Active; 'I' for Inactive)
REMARK    1  A    between atoms: N_2  and  C_21
REMARK    2  A    between atoms: C_3  and  C_10
REMARK    3  A    between atoms: C_5  and  C_11
REMARK    4  A    between atoms: C_11  and  N_12
REMARK    5  A    between atoms: C_23  and  N_27
REMARK    6  A    between atoms: C_31  and  C_36
REMARK                            x       y       z     vdW  Elec       q    Type
REMARK                         _______ _______ _______ _____ _____    ______ ____
ROOT
ATOM      1  O   UNL     1      33.760 -21.576 -19.876  0.00  0.00    -0.270 OA
ATOM      2  N   UNL     1      35.851 -20.590 -19.481  0.00  0.00    -0.280 N 
ATOM      3  C   UNL     1      34.754 -21.399 -19.154  0.00  0.00    +0.249 C 
ATOM      4  H   UNL     1      36.566 -20.548 -18.807  0.00  0.00    +0.155 HD
ENDROOT
BRANCH   3  10
ATOM      5  C   UNL     1      34.909 -23.280 -15.369  0.00  0.00    -0.043 C 
ATOM      6  C   UNL     1      36.016 -22.583 -15.832  0.00  0.00    -0.006 C 
ATOM      7  C   UNL     1      33.751 -23.369 -16.129  0.00  0.00    -0.006 C 
ATOM      8  C   UNL     1      35.965 -21.962 -17.079  0.00  0.00    +0.004 C 
ATOM      9  C   UNL     1      33.700 -22.748 -17.377  0.00  0.00    +0.004 C 
ATOM     10  C   UNL     1      34.807 -22.045 -17.853  0.00  0.00    +0.054 C 
BRANCH   5  11
ATOM     11  C   UNL     1      34.963 -23.950 -14.021  0.00  0.00    -0.050 C 
BRANCH  11  12
ATOM     12  N   UNL     1      36.200 -24.707 -13.839  0.00  0.00    +0.387 N 
ATOM     13  N   UNL     1      38.929 -25.383 -14.513  0.00  0.00    +0.383 N 
ATOM     14  C   UNL     1      37.313 -23.812 -13.498  0.00  0.00    -0.100 C 
ATOM     15  C   UNL     1      36.518 -25.483 -15.044  0.00  0.00    -0.100 C 
ATOM     16  C   UNL     1      38.611 -24.605 -13.310  0.00  0.00    -0.101 C 
ATOM     17  C   UNL     1      37.816 -26.277 -14.856  0.00  0.00    -0.101 C 
ATOM     18  C   UNL     1      40.165 -26.141 -14.330  0.00  0.00    -0.101 C 
ATOM     19  H   UNL     1      36.062 -25.356 -13.066  0.00  0.00    -0.079 HD
ATOM     20  H   UNL     1      39.070 -24.733 -15.288  0.00  0.00    -0.080 HD
ENDBRANCH  11  12
ENDBRANCH   5  11
ENDBRANCH   3  10
BRANCH   2  21
ATOM     21  C   UNL     1      36.066 -19.826 -20.655  0.00  0.00    +0.052 C 
ATOM     22  C   UNL     1      35.110 -19.843 -21.656  0.00  0.00    +0.030 C 
ATOM     23  C   UNL     1      35.323 -19.092 -22.813  0.00  0.00    +0.059 C 
ATOM     24  C   UNL     1      37.226 -19.080 -20.772  0.00  0.00    +0.015 C 
ATOM     25  C   UNL     1      36.486 -18.334 -22.948  0.00  0.00    +0.015 C 
ATOM     26  C   UNL     1      37.438 -18.328 -21.928  0.00  0.00    +0.003 C 
BRANCH  23  27
ATOM     27  N   UNL     1      34.360 -19.096 -23.844  0.00  0.00    -0.247 N 
ATOM     28  N   UNL     1      34.049 -16.800 -24.216  0.00  0.00    -0.337 NA
ATOM     29  N   UNL     1      32.826 -18.438 -25.492  0.00  0.00    -0.170 NA
ATOM     30  C   UNL     1      33.715 -18.063 -24.550  0.00  0.00    +0.149 C 
ATOM     31  C   UNL     1      33.412 -15.836 -24.913  0.00  0.00    +0.147 C 
ATOM     32  C   UNL     1      32.483 -16.092 -25.901  0.00  0.00    +0.055 C 
ATOM     33  C   UNL     1      32.227 -17.424 -26.150  0.00  0.00    +0.114 C 
ATOM     34  H   UNL     1      34.084 -19.999 -24.122  0.00  0.00    +0.165 HD
BRANCH  31  36
ATOM     35  N   UNL     1      34.037 -12.175 -25.222  0.00  0.00    -0.242 NA
ATOM     36  C   UNL     1      33.771 -14.485 -24.557  0.00  0.00    +0.050 C 
ATOM     37  C   UNL     1      34.182 -14.167 -23.267  0.00  0.00    +0.006 C 
ATOM     38  C   UNL     1      33.717 -13.461 -25.489  0.00  0.00    +0.101 C 
ATOM     39  C   UNL     1      34.521 -12.856 -22.954  0.00  0.00    +0.021 C 
ATOM     40  C   UNL     1      34.432 -11.906 -23.958  0.00  0.00    +0.099 C 
ENDBRANCH  31  36
ENDBRANCH  23  27
ENDBRANCH   2  21
TORSDOF 6
ENDMDL
