MODEL 1
REMARK VINA RESULT:     -11.4      0.000      0.000
REMARK  Name = 448841
REMARK  3 active torsions:
REMARK  status: ('A' for Active; 'I' for Inactive)
REMARK    1  A    between atoms: C_1  and  C_17
REMARK    2  A    between atoms: C_9  and  C_13
REMARK    3  A    between atoms: C_18  and  C_20
REMARK                            x       y       z     vdW  Elec       q    Type
REMARK                         _______ _______ _______ _____ _____    ______ ____
ROOT
ATOM      1  C   UNL     1      35.537 -20.570 -20.030  0.00  0.00    -0.022 C 
ATOM      2  C   UNL     1      36.466 -20.893 -19.041  0.00  0.00    -0.004 C 
ATOM      3  C   UNL     1      34.219 -21.005 -19.918  0.00  0.00    -0.004 C 
ATOM      4  C   UNL     1      36.088 -21.656 -17.924  0.00  0.00    -0.000 C 
ATOM      5  C   UNL     1      33.827 -21.765 -18.814  0.00  0.00    -0.000 C 
ATOM      6  C   UNL     1      34.748 -22.099 -17.809  0.00  0.00    +0.000 C 
ATOM      7  C   UNL     1      37.010 -21.991 -16.919  0.00  0.00    +0.000 C 
ATOM      8  C   UNL     1      34.370 -22.861 -16.693  0.00  0.00    +0.003 C 
ATOM      9  C   UNL     1      35.299 -23.184 -15.702  0.00  0.00    +0.031 C 
ATOM     10  C   UNL     1      36.617 -22.749 -15.816  0.00  0.00    +0.003 C 
ENDROOT
BRANCH   9  13
ATOM     11  N   UNL     1      34.022 -23.462 -13.591  0.00  0.00    -0.343 N 
ATOM     12  N   UNL     1      35.352 -25.204 -14.402  0.00  0.00    -0.285 NA
ATOM     13  C   UNL     1      34.892 -23.975 -14.553  0.00  0.00    +0.117 C 
ATOM     14  H   UNL     1      33.759 -24.015 -12.820  0.00  0.00    +0.144 HD
ATOM     15  H   UNL     1      33.671 -22.547 -13.684  0.00  0.00    +0.144 HD
ATOM     16  H   UNL     1      35.077 -25.741 -13.624  0.00  0.00    +0.188 HD
ENDBRANCH   9  13
BRANCH   1  17
ATOM     17  C   UNL     1      35.955 -19.760 -21.208  0.00  0.00    +0.027 C 
ATOM     18  C   UNL     1      35.794 -18.273 -21.168  0.00  0.00    +0.027 C 
ATOM     19  C   UNL     1      37.163 -18.882 -21.100  0.00  0.00    +0.009 C 
BRANCH  18  20
ATOM     20  C   UNL     1      35.378 -17.554 -22.399  0.00  0.00    -0.022 C 
ATOM     21  C   UNL     1      35.426 -16.158 -22.448  0.00  0.00    -0.004 C 
ATOM     22  C   UNL     1      34.934 -18.268 -23.515  0.00  0.00    -0.004 C 
ATOM     23  C   UNL     1      35.033 -15.482 -23.604  0.00  0.00    -0.000 C 
ATOM     24  C   UNL     1      34.541 -17.593 -24.671  0.00  0.00    -0.000 C 
ATOM     25  C   UNL     1      34.591 -16.200 -24.714  0.00  0.00    -0.000 C 
ENDBRANCH  18  20
ENDBRANCH   1  17
TORSDOF 3
ENDMDL
MODEL 2
REMARK VINA RESULT:     -11.3      1.251      2.402
REMARK  Name = 448841
REMARK  3 active torsions:
REMARK  status: ('A' for Active; 'I' for Inactive)
REMARK    1  A    between atoms: C_1  and  C_17
REMARK    2  A    between atoms: C_9  and  C_13
REMARK    3  A    between atoms: C_18  and  C_20
REMARK                            x       y       z     vdW  Elec       q    Type
REMARK                         _______ _______ _______ _____ _____    ______ ____
ROOT
ATOM      1  C   UNL     1      35.154 -19.594 -21.209  0.00  0.00    -0.022 C 
ATOM      2  C   UNL     1      33.989 -20.099 -20.633  0.00  0.00    -0.004 C 
ATOM      3  C   UNL     1      36.396 -19.926 -20.675  0.00  0.00    -0.004 C 
ATOM      4  C   UNL     1      34.050 -20.944 -19.513  0.00  0.00    -0.000 C 
ATOM      5  C   UNL     1      36.476 -20.765 -19.562  0.00  0.00    -0.000 C 
ATOM      6  C   UNL     1      35.313 -21.283 -18.970  0.00  0.00    +0.000 C 
ATOM      7  C   UNL     1      32.887 -21.461 -18.920  0.00  0.00    +0.000 C 
ATOM      8  C   UNL     1      35.375 -22.127 -17.851  0.00  0.00    +0.003 C 
ATOM      9  C   UNL     1      34.209 -22.633 -17.274  0.00  0.00    +0.031 C 
ATOM     10  C   UNL     1      32.968 -22.300 -17.809  0.00  0.00    +0.003 C 
ENDROOT
BRANCH   9  13
ATOM     11  N   UNL     1      33.192 -23.711 -15.282  0.00  0.00    -0.343 N 
ATOM     12  N   UNL     1      35.425 -24.123 -15.833  0.00  0.00    -0.285 NA
ATOM     13  C   UNL     1      34.291 -23.507 -16.115  0.00  0.00    +0.117 C 
ATOM     14  H   UNL     1      33.269 -24.307 -14.502  0.00  0.00    +0.144 HD
ATOM     15  H   UNL     1      32.339 -23.258 -15.473  0.00  0.00    +0.144 HD
ATOM     16  H   UNL     1      35.482 -24.716 -15.049  0.00  0.00    +0.188 HD
ENDBRANCH   9  13
BRANCH   1  17
ATOM     17  C   UNL     1      35.070 -18.698 -22.397  0.00  0.00    +0.027 C 
ATOM     18  C   UNL     1      35.769 -17.375 -22.366  0.00  0.00    +0.027 C 
ATOM     19  C   UNL     1      36.292 -18.481 -23.235  0.00  0.00    +0.009 C 
BRANCH  18  20
ATOM     20  C   UNL     1      35.122 -16.197 -22.997  0.00  0.00    -0.022 C 
ATOM     21  C   UNL     1      34.938 -15.019 -22.267  0.00  0.00    -0.004 C 
ATOM     22  C   UNL     1      34.690 -16.259 -24.325  0.00  0.00    -0.004 C 
ATOM     23  C   UNL     1      34.328 -13.913 -22.859  0.00  0.00    -0.000 C 
ATOM     24  C   UNL     1      34.079 -15.154 -24.917  0.00  0.00    -0.000 C 
ATOM     25  C   UNL     1      33.899 -13.981 -24.184  0.00  0.00    -0.000 C 
ENDBRANCH  18  20
ENDBRANCH   1  17
TORSDOF 3
ENDMDL
MODEL 3
REMARK VINA RESULT:     -11.3      0.958      1.943
REMARK  Name = 448841
REMARK  3 active torsions:
REMARK  status: ('A' for Active; 'I' for Inactive)
REMARK    1  A    between atoms: C_1  and  C_17
REMARK    2  A    between atoms: C_9  and  C_13
REMARK    3  A    between atoms: C_18  and  C_20
REMARK                            x       y       z     vdW  Elec       q    Type
REMARK                         _______ _______ _______ _____ _____    ______ ____
ROOT
ATOM      1  C   UNL     1      35.921 -20.792 -19.663  0.00  0.00    -0.022 C 
ATOM      2  C   UNL     1      34.621 -21.239 -19.425  0.00  0.00    -0.004 C 
ATOM      3  C   UNL     1      36.923 -21.031 -18.726  0.00  0.00    -0.004 C 
ATOM      4  C   UNL     1      34.306 -21.932 -18.245  0.00  0.00    -0.000 C 
ATOM      5  C   UNL     1      36.626 -21.719 -17.547  0.00  0.00    -0.000 C 
ATOM      6  C   UNL     1      35.324 -22.176 -17.292  0.00  0.00    +0.000 C 
ATOM      7  C   UNL     1      33.003 -22.389 -17.988  0.00  0.00    +0.000 C 
ATOM      8  C   UNL     1      35.009 -22.869 -16.112  0.00  0.00    +0.003 C 
ATOM      9  C   UNL     1      33.709 -23.316 -15.874  0.00  0.00    +0.031 C 
ATOM     10  C   UNL     1      32.708 -23.076 -16.811  0.00  0.00    +0.003 C 
ENDROOT
BRANCH   9  13
ATOM     11  N   UNL     1      34.386 -24.718 -13.939  0.00  0.00    -0.343 N 
ATOM     12  N   UNL     1      32.161 -24.045 -14.187  0.00  0.00    -0.285 NA
ATOM     13  C   UNL     1      33.400 -24.033 -14.648  0.00  0.00    +0.117 C 
ATOM     14  H   UNL     1      34.153 -25.197 -13.111  0.00  0.00    +0.144 HD
ATOM     15  H   UNL     1      35.313 -24.724 -14.268  0.00  0.00    +0.144 HD
ATOM     16  H   UNL     1      31.950 -24.530 -13.356  0.00  0.00    +0.188 HD
ENDBRANCH   9  13
BRANCH   1  17
ATOM     17  C   UNL     1      36.237 -20.058 -20.919  0.00  0.00    +0.027 C 
ATOM     18  C   UNL     1      35.855 -18.616 -21.041  0.00  0.00    +0.027 C 
ATOM     19  C   UNL     1      37.299 -19.001 -20.900  0.00  0.00    +0.009 C 
BRANCH  18  20
ATOM     20  C   UNL     1      35.363 -18.102 -22.343  0.00  0.00    -0.022 C 
ATOM     21  C   UNL     1      35.502 -16.749 -22.664  0.00  0.00    -0.004 C 
ATOM     22  C   UNL     1      34.755 -18.968 -23.257  0.00  0.00    -0.004 C 
ATOM     23  C   UNL     1      35.037 -16.265 -23.888  0.00  0.00    -0.000 C 
ATOM     24  C   UNL     1      34.290 -18.485 -24.480  0.00  0.00    -0.000 C 
ATOM     25  C   UNL     1      34.431 -17.134 -24.795  0.00  0.00    -0.000 C 
ENDBRANCH  18  20
ENDBRANCH   1  17
TORSDOF 3
ENDMDL
MODEL 4
REMARK VINA RESULT:     -10.9      3.694      8.722
REMARK  Name = 448841
REMARK  3 active torsions:
REMARK  status: ('A' for Active; 'I' for Inactive)
REMARK    1  A    between atoms: C_1  and  C_17
REMARK    2  A    between atoms: C_9  and  C_13
REMARK    3  A    between atoms: C_18  and  C_20
REMARK                            x       y       z     vdW  Elec       q    Type
REMARK                         _______ _______ _______ _____ _____    ______ ____
ROOT
ATOM      1  C   UNL     1      34.318 -22.458 -17.585  0.00  0.00    -0.022 C 
ATOM      2  C   UNL     1      35.521 -21.956 -18.082  0.00  0.00    -0.004 C 
ATOM      3  C   UNL     1      33.113 -22.097 -18.181  0.00  0.00    -0.004 C 
ATOM      4  C   UNL     1      35.534 -21.087 -19.184  0.00  0.00    -0.000 C 
ATOM      5  C   UNL     1      33.108 -21.234 -19.278  0.00  0.00    -0.000 C 
ATOM      6  C   UNL     1      34.309 -20.720 -19.792  0.00  0.00    +0.000 C 
ATOM      7  C   UNL     1      36.736 -20.572 -19.698  0.00  0.00    +0.000 C 
ATOM      8  C   UNL     1      34.322 -19.851 -20.894  0.00  0.00    +0.003 C 
ATOM      9  C   UNL     1      35.525 -19.349 -21.392  0.00  0.00    +0.031 C 
ATOM     10  C   UNL     1      36.730 -19.710 -20.794  0.00  0.00    +0.003 C 
ENDROOT
BRANCH   9  13
ATOM     11  N   UNL     1      34.481 -18.460 -23.461  0.00  0.00    -0.343 N 
ATOM     12  N   UNL     1      36.522 -17.605 -22.711  0.00  0.00    -0.285 NA
ATOM     13  C   UNL     1      35.522 -18.450 -22.534  0.00  0.00    +0.117 C 
ATOM     14  H   UNL     1      34.499 -17.843 -24.228  0.00  0.00    +0.144 HD
ATOM     15  H   UNL     1      33.728 -19.084 -23.349  0.00  0.00    +0.144 HD
ATOM     16  H   UNL     1      36.521 -16.996 -23.484  0.00  0.00    +0.188 HD
ENDBRANCH   9  13
BRANCH   1  17
ATOM     17  C   UNL     1      34.322 -23.378 -16.414  0.00  0.00    +0.027 C 
ATOM     18  C   UNL     1      34.897 -22.908 -15.114  0.00  0.00    +0.027 C 
ATOM     19  C   UNL     1      33.414 -23.094 -15.257  0.00  0.00    +0.009 C 
BRANCH  18  20
ATOM     20  C   UNL     1      35.671 -23.857 -14.277  0.00  0.00    -0.022 C 
ATOM     21  C   UNL     1      35.752 -23.671 -12.893  0.00  0.00    -0.004 C 
ATOM     22  C   UNL     1      36.326 -24.943 -14.865  0.00  0.00    -0.004 C 
ATOM     23  C   UNL     1      36.482 -24.561 -12.106  0.00  0.00    -0.000 C 
ATOM     24  C   UNL     1      37.056 -25.834 -14.078  0.00  0.00    -0.000 C 
ATOM     25  C   UNL     1      37.134 -25.643 -12.699  0.00  0.00    -0.000 C 
ENDBRANCH  18  20
ENDBRANCH   1  17
TORSDOF 3
ENDMDL
MODEL 5
REMARK VINA RESULT:     -10.7      5.454      9.644
REMARK  Name = 448841
REMARK  3 active torsions:
REMARK  status: ('A' for Active; 'I' for Inactive)
REMARK    1  A    between atoms: C_1  and  C_17
REMARK    2  A    between atoms: C_9  and  C_13
REMARK    3  A    between atoms: C_18  and  C_20
REMARK                            x       y       z     vdW  Elec       q    Type
REMARK                         _______ _______ _______ _____ _____    ______ ____
ROOT
ATOM      1  C   UNL     1      35.350 -17.316 -22.088  0.00  0.00    -0.022 C 
ATOM      2  C   UNL     1      35.180 -15.953 -21.846  0.00  0.00    -0.004 C 
ATOM      3  C   UNL     1      35.156 -17.827 -23.368  0.00  0.00    -0.004 C 
ATOM      4  C   UNL     1      34.815 -15.081 -22.884  0.00  0.00    -0.000 C 
ATOM      5  C   UNL     1      34.793 -16.973 -24.412  0.00  0.00    -0.000 C 
ATOM      6  C   UNL     1      34.618 -15.599 -24.187  0.00  0.00    +0.000 C 
ATOM      7  C   UNL     1      34.639 -13.706 -22.659  0.00  0.00    +0.000 C 
ATOM      8  C   UNL     1      34.253 -14.727 -25.225  0.00  0.00    +0.003 C 
ATOM      9  C   UNL     1      34.083 -13.363 -24.983  0.00  0.00    +0.031 C 
ATOM     10  C   UNL     1      34.277 -12.854 -23.702  0.00  0.00    +0.003 C 
ENDROOT
BRANCH   9  13
ATOM     11  N   UNL     1      33.590 -11.098 -25.873  0.00  0.00    -0.343 N 
ATOM     12  N   UNL     1      33.459 -12.968 -27.270  0.00  0.00    -0.285 NA
ATOM     13  C   UNL     1      33.705 -12.474 -26.069  0.00  0.00    +0.117 C 
ATOM     14  H   UNL     1      33.332 -10.514 -26.623  0.00  0.00    +0.144 HD
ATOM     15  H   UNL     1      33.766 -10.711 -24.986  0.00  0.00    +0.144 HD
ATOM     16  H   UNL     1      33.203 -12.366 -28.006  0.00  0.00    +0.188 HD
ENDBRANCH   9  13
BRANCH   1  17
ATOM     17  C   UNL     1      35.737 -18.227 -20.975  0.00  0.00    +0.027 C 
ATOM     18  C   UNL     1      35.677 -19.708 -21.187  0.00  0.00    +0.027 C 
ATOM     19  C   UNL     1      37.005 -19.016 -21.084  0.00  0.00    +0.009 C 
BRANCH  18  20
ATOM     20  C   UNL     1      35.225 -20.583 -20.076  0.00  0.00    -0.022 C 
ATOM     21  C   UNL     1      36.160 -21.165 -19.214  0.00  0.00    -0.004 C 
ATOM     22  C   UNL     1      33.863 -20.832 -19.885  0.00  0.00    -0.004 C 
ATOM     23  C   UNL     1      35.735 -21.989 -18.171  0.00  0.00    -0.000 C 
ATOM     24  C   UNL     1      33.438 -21.656 -18.843  0.00  0.00    -0.000 C 
ATOM     25  C   UNL     1      34.375 -22.234 -17.986  0.00  0.00    -0.000 C 
ENDBRANCH  18  20
ENDBRANCH   1  17
TORSDOF 3
ENDMDL
MODEL 6
REMARK VINA RESULT:     -10.7      2.063      3.564
REMARK  Name = 448841
REMARK  3 active torsions:
REMARK  status: ('A' for Active; 'I' for Inactive)
REMARK    1  A    between atoms: C_1  and  C_17
REMARK    2  A    between atoms: C_9  and  C_13
REMARK    3  A    between atoms: C_18  and  C_20
REMARK                            x       y       z     vdW  Elec       q    Type
REMARK                         _______ _______ _______ _____ _____    ______ ____
ROOT
ATOM      1  C   UNL     1      34.769 -22.100 -18.302  0.00  0.00    -0.022 C 
ATOM      2  C   UNL     1      33.386 -22.237 -18.185  0.00  0.00    -0.004 C 
ATOM      3  C   UNL     1      35.590 -22.369 -17.210  0.00  0.00    -0.004 C 
ATOM      4  C   UNL     1      32.805 -22.645 -16.974  0.00  0.00    -0.000 C 
ATOM      5  C   UNL     1      35.029 -22.777 -15.998  0.00  0.00    -0.000 C 
ATOM      6  C   UNL     1      33.639 -22.920 -15.863  0.00  0.00    +0.000 C 
ATOM      7  C   UNL     1      31.414 -22.787 -16.838  0.00  0.00    +0.000 C 
ATOM      8  C   UNL     1      33.059 -23.328 -14.652  0.00  0.00    +0.003 C 
ATOM      9  C   UNL     1      31.675 -23.465 -14.535  0.00  0.00    +0.031 C 
ATOM     10  C   UNL     1      30.855 -23.195 -15.627  0.00  0.00    +0.003 C 
ENDROOT
BRANCH   9  13
ATOM     11  N   UNL     1      30.398 -25.094 -13.165  0.00  0.00    -0.343 N 
ATOM     12  N   UNL     1      31.206 -23.124 -12.203  0.00  0.00    -0.285 NA
ATOM     13  C   UNL     1      31.090 -23.889 -13.274  0.00  0.00    +0.117 C 
ATOM     14  H   UNL     1      30.009 -25.362 -12.301  0.00  0.00    +0.144 HD
ATOM     15  H   UNL     1      30.297 -25.677 -13.952  0.00  0.00    +0.144 HD
ATOM     16  H   UNL     1      30.811 -23.410 -11.348  0.00  0.00    +0.188 HD
ENDBRANCH   9  13
BRANCH   1  17
ATOM     17  C   UNL     1      35.368 -21.665 -19.594  0.00  0.00    +0.027 C 
ATOM     18  C   UNL     1      35.972 -20.299 -19.698  0.00  0.00    +0.027 C 
ATOM     19  C   UNL     1      36.854 -21.513 -19.695  0.00  0.00    +0.009 C 
BRANCH  18  20
ATOM     20  C   UNL     1      35.803 -19.525 -20.953  0.00  0.00    -0.022 C 
ATOM     21  C   UNL     1      34.618 -19.623 -21.687  0.00  0.00    -0.004 C 
ATOM     22  C   UNL     1      36.830 -18.693 -21.410  0.00  0.00    -0.004 C 
ATOM     23  C   UNL     1      34.460 -18.897 -22.868  0.00  0.00    -0.000 C 
ATOM     24  C   UNL     1      36.673 -17.968 -22.591  0.00  0.00    -0.000 C 
ATOM     25  C   UNL     1      35.488 -18.070 -23.320  0.00  0.00    -0.000 C 
ENDBRANCH  18  20
ENDBRANCH   1  17
TORSDOF 3
ENDMDL
MODEL 7
REMARK VINA RESULT:     -10.6      4.180      8.573
REMARK  Name = 448841
REMARK  3 active torsions:
REMARK  status: ('A' for Active; 'I' for Inactive)
REMARK    1  A    between atoms: C_1  and  C_17
REMARK    2  A    between atoms: C_9  and  C_13
REMARK    3  A    between atoms: C_18  and  C_20
REMARK                            x       y       z     vdW  Elec       q    Type
REMARK                         _______ _______ _______ _____ _____    ______ ____
ROOT
ATOM      1  C   UNL     1      34.325 -21.396 -19.069  0.00  0.00    -0.022 C 
ATOM      2  C   UNL     1      35.524 -20.864 -19.541  0.00  0.00    -0.004 C 
ATOM      3  C   UNL     1      33.118 -21.018 -19.651  0.00  0.00    -0.004 C 
ATOM      4  C   UNL     1      35.532 -19.944 -20.603  0.00  0.00    -0.000 C 
ATOM      5  C   UNL     1      33.107 -20.106 -20.708  0.00  0.00    -0.000 C 
ATOM      6  C   UNL     1      34.305 -19.560 -21.195  0.00  0.00    +0.000 C 
ATOM      7  C   UNL     1      36.730 -19.398 -21.090  0.00  0.00    +0.000 C 
ATOM      8  C   UNL     1      34.313 -18.641 -22.256  0.00  0.00    +0.003 C 
ATOM      9  C   UNL     1      35.513 -18.108 -22.729  0.00  0.00    +0.031 C 
ATOM     10  C   UNL     1      36.719 -18.486 -22.146  0.00  0.00    +0.003 C 
ENDROOT
BRANCH   9  13
ATOM     11  N   UNL     1      35.964 -15.852 -23.664  0.00  0.00    -0.343 N 
ATOM     12  N   UNL     1      35.049 -17.527 -25.014  0.00  0.00    -0.285 NA
ATOM     13  C   UNL     1      35.504 -17.158 -23.829  0.00  0.00    +0.117 C 
ATOM     14  H   UNL     1      35.948 -15.225 -24.423  0.00  0.00    +0.144 HD
ATOM     15  H   UNL     1      36.303 -15.557 -22.788  0.00  0.00    +0.144 HD
ATOM     16  H   UNL     1      35.043 -16.884 -25.760  0.00  0.00    +0.188 HD
ENDBRANCH   9  13
BRANCH   1  17
ATOM     17  C   UNL     1      34.334 -22.370 -17.942  0.00  0.00    +0.027 C 
ATOM     18  C   UNL     1      33.033 -22.856 -17.384  0.00  0.00    +0.027 C 
ATOM     19  C   UNL     1      33.898 -23.780 -18.191  0.00  0.00    +0.009 C 
BRANCH  18  20
ATOM     20  C   UNL     1      32.906 -23.072 -15.921  0.00  0.00    -0.022 C 
ATOM     21  C   UNL     1      31.684 -22.845 -15.280  0.00  0.00    -0.004 C 
ATOM     22  C   UNL     1      34.007 -23.501 -15.174  0.00  0.00    -0.004 C 
ATOM     23  C   UNL     1      31.564 -23.045 -13.904  0.00  0.00    -0.000 C 
ATOM     24  C   UNL     1      33.888 -23.700 -13.798  0.00  0.00    -0.000 C 
ATOM     25  C   UNL     1      32.667 -23.473 -13.164  0.00  0.00    -0.000 C 
ENDBRANCH  18  20
ENDBRANCH   1  17
TORSDOF 3
ENDMDL
MODEL 8
REMARK VINA RESULT:     -10.4      5.333      8.782
REMARK  Name = 448841
REMARK  3 active torsions:
REMARK  status: ('A' for Active; 'I' for Inactive)
REMARK    1  A    between atoms: C_1  and  C_17
REMARK    2  A    between atoms: C_9  and  C_13
REMARK    3  A    between atoms: C_18  and  C_20
REMARK                            x       y       z     vdW  Elec       q    Type
REMARK                         _______ _______ _______ _____ _____    ______ ____
ROOT
ATOM      1  C   UNL     1      34.186 -12.866 -23.051  0.00  0.00    -0.022 C 
ATOM      2  C   UNL     1      34.567 -13.953 -23.837  0.00  0.00    -0.004 C 
ATOM      3  C   UNL     1      34.183 -12.976 -21.663  0.00  0.00    -0.004 C 
ATOM      4  C   UNL     1      34.951 -15.167 -23.245  0.00  0.00    -0.000 C 
ATOM      5  C   UNL     1      34.561 -14.176 -21.058  0.00  0.00    -0.000 C 
ATOM      6  C   UNL     1      34.948 -15.281 -21.834  0.00  0.00    +0.000 C 
ATOM      7  C   UNL     1      35.336 -16.272 -24.021  0.00  0.00    +0.000 C 
ATOM      8  C   UNL     1      35.331 -16.494 -21.241  0.00  0.00    +0.003 C 
ATOM      9  C   UNL     1      35.712 -17.582 -22.027  0.00  0.00    +0.031 C 
ATOM     10  C   UNL     1      35.715 -17.470 -23.415  0.00  0.00    +0.003 C 
ENDROOT
BRANCH   9  13
ATOM     11  N   UNL     1      37.413 -19.042 -20.960  0.00  0.00    -0.343 N 
ATOM     12  N   UNL     1      35.219 -19.797 -21.237  0.00  0.00    -0.285 NA
ATOM     13  C   UNL     1      36.107 -18.831 -21.398  0.00  0.00    +0.117 C 
ATOM     14  H   UNL     1      37.659 -19.896 -20.536  0.00  0.00    +0.144 HD
ATOM     15  H   UNL     1      38.090 -18.336 -21.074  0.00  0.00    +0.144 HD
ATOM     16  H   UNL     1      35.485 -20.643 -20.810  0.00  0.00    +0.188 HD
ENDBRANCH   9  13
BRANCH   1  17
ATOM     17  C   UNL     1      33.782 -11.586 -23.696  0.00  0.00    +0.027 C 
ATOM     18  C   UNL     1      34.832 -10.577 -24.043  0.00  0.00    +0.027 C 
ATOM     19  C   UNL     1      34.140 -11.345 -25.130  0.00  0.00    +0.009 C 
BRANCH  18  20
ATOM     20  C   UNL     1      34.537  -9.133 -23.871  0.00  0.00    -0.022 C 
ATOM     21  C   UNL     1      35.527  -8.177 -24.119  0.00  0.00    -0.004 C 
ATOM     22  C   UNL     1      33.267  -8.718 -23.460  0.00  0.00    -0.004 C 
ATOM     23  C   UNL     1      35.251  -6.820 -23.955  0.00  0.00    -0.000 C 
ATOM     24  C   UNL     1      32.990  -7.361 -23.296  0.00  0.00    -0.000 C 
ATOM     25  C   UNL     1      33.982  -6.412 -23.544  0.00  0.00    -0.000 C 
ENDBRANCH  18  20
ENDBRANCH   1  17
TORSDOF 3
ENDMDL
MODEL 9
REMARK VINA RESULT:     -10.2      3.745      8.989
REMARK  Name = 448841
REMARK  3 active torsions:
REMARK  status: ('A' for Active; 'I' for Inactive)
REMARK    1  A    between atoms: C_1  and  C_17
REMARK    2  A    between atoms: C_9  and  C_13
REMARK    3  A    between atoms: C_18  and  C_20
REMARK                            x       y       z     vdW  Elec       q    Type
REMARK                         _______ _______ _______ _____ _____    ______ ____
ROOT
ATOM      1  C   UNL     1      35.241 -22.252 -17.549  0.00  0.00    -0.022 C 
ATOM      2  C   UNL     1      34.164 -21.828 -18.326  0.00  0.00    -0.004 C 
ATOM      3  C   UNL     1      36.535 -21.850 -17.870  0.00  0.00    -0.004 C 
ATOM      4  C   UNL     1      34.366 -20.994 -19.438  0.00  0.00    -0.000 C 
ATOM      5  C   UNL     1      36.754 -21.021 -18.972  0.00  0.00    -0.000 C 
ATOM      6  C   UNL     1      35.681 -20.584 -19.766  0.00  0.00    +0.000 C 
ATOM      7  C   UNL     1      33.294 -20.558 -20.233  0.00  0.00    +0.000 C 
ATOM      8  C   UNL     1      35.885 -19.751 -20.877  0.00  0.00    +0.003 C 
ATOM      9  C   UNL     1      34.807 -19.326 -21.655  0.00  0.00    +0.031 C 
ATOM     10  C   UNL     1      33.514 -19.729 -21.333  0.00  0.00    +0.003 C 
ENDROOT
BRANCH   9  13
ATOM     11  N   UNL     1      36.036 -17.494 -22.794  0.00  0.00    -0.343 N 
ATOM     12  N   UNL     1      34.278 -18.587 -23.880  0.00  0.00    -0.285 NA
ATOM     13  C   UNL     1      35.034 -18.463 -22.802  0.00  0.00    +0.117 C 
ATOM     14  H   UNL     1      36.172 -16.920 -23.582  0.00  0.00    +0.144 HD
ATOM     15  H   UNL     1      36.607 -17.384 -22.000  0.00  0.00    +0.144 HD
ATOM     16  H   UNL     1      34.431 -18.003 -24.658  0.00  0.00    +0.188 HD
ENDBRANCH   9  13
BRANCH   1  17
ATOM     17  C   UNL     1      35.008 -23.137 -16.373  0.00  0.00    +0.027 C 
ATOM     18  C   UNL     1      35.477 -22.697 -15.021  0.00  0.00    +0.027 C 
ATOM     19  C   UNL     1      34.010 -22.726 -15.335  0.00  0.00    +0.009 C 
BRANCH  18  20
ATOM     20  C   UNL     1      36.041 -23.702 -14.085  0.00  0.00    -0.022 C 
ATOM     21  C   UNL     1      36.647 -24.861 -14.579  0.00  0.00    -0.004 C 
ATOM     22  C   UNL     1      35.967 -23.497 -12.705  0.00  0.00    -0.004 C 
ATOM     23  C   UNL     1      37.175 -25.807 -13.700  0.00  0.00    -0.000 C 
ATOM     24  C   UNL     1      36.494 -24.443 -11.825  0.00  0.00    -0.000 C 
ATOM     25  C   UNL     1      37.098 -25.598 -12.323  0.00  0.00    -0.000 C 
ENDBRANCH  18  20
ENDBRANCH   1  17
TORSDOF 3
ENDMDL
