MODEL 1
REMARK VINA RESULT:     -11.1      0.000      0.000
REMARK  Name = 9804992
REMARK  10 active torsions:
REMARK  status: ('A' for Active; 'I' for Inactive)
REMARK    1  A    between atoms: C_1  and  C_9
REMARK    2  A    between atoms: C_1  and  O_19
REMARK    3  A    between atoms: C_2  and  C_12
REMARK    4  A    between atoms: C_12  and  N_13
REMARK    5  A    between atoms: N_13  and  C_15
REMARK    6  A    between atoms: N_13  and  C_17
REMARK    7  A    between atoms: O_19  and  C_22
REMARK    8  A    between atoms: N_21  and  C_24
REMARK    9  A    between atoms: C_27  and  C_32
REMARK   10  A    between atoms: N_31  and  O_34
REMARK                            x       y       z     vdW  Elec       q    Type
REMARK                         _______ _______ _______ _____ _____    ______ ____
ROOT
ATOM      1  C   UNL     1      37.114 -20.471 -20.222  0.00  0.00    +0.237 C 
ENDROOT
BRANCH   1   9
ATOM      2  C   UNL     1      32.637 -23.177 -16.333  0.00  0.00    -0.043 C 
ATOM      3  C   UNL     1      33.628 -21.979 -18.204  0.00  0.00    -0.000 C 
ATOM      4  C   UNL     1      34.913 -22.193 -17.652  0.00  0.00    -0.000 C 
ATOM      5  C   UNL     1      32.500 -22.477 -17.532  0.00  0.00    -0.006 C 
ATOM      6  C   UNL     1      33.901 -23.388 -15.791  0.00  0.00    -0.006 C 
ATOM      7  C   UNL     1      35.033 -22.900 -16.444  0.00  0.00    -0.000 C 
ATOM      8  C   UNL     1      36.041 -21.695 -18.323  0.00  0.00    -0.001 C 
ATOM      9  C   UNL     1      35.904 -20.994 -19.523  0.00  0.00    +0.021 C 
ATOM     10  C   UNL     1      33.509 -21.272 -19.411  0.00  0.00    -0.000 C 
ATOM     11  C   UNL     1      34.641 -20.783 -20.066  0.00  0.00    -0.001 C 
BRANCH   2  12
ATOM     12  C   UNL     1      31.428 -23.700 -15.633  0.00  0.00    -0.050 C 
BRANCH  12  13
ATOM     13  N   UNL     1      30.934 -22.776 -14.611  0.00  0.00    +0.390 N 
ATOM     14  H   UNL     1      31.465 -21.908 -14.674  0.00  0.00    -0.079 HD
BRANCH  13  15
ATOM     15  C   UNL     1      29.522 -22.471 -14.841  0.00  0.00    -0.077 C 
ATOM     16  C   UNL     1      28.957 -23.307 -15.977  0.00  0.00    -0.025 C 
ENDBRANCH  13  15
BRANCH  13  17
ATOM     17  C   UNL     1      31.126 -23.341 -13.277  0.00  0.00    -0.077 C 
ATOM     18  C   UNL     1      31.240 -24.855 -13.333  0.00  0.00    -0.025 C 
ENDBRANCH  13  17
ENDBRANCH  12  13
ENDBRANCH   2  12
ENDBRANCH   1   9
BRANCH   1  19
ATOM     19  O   UNL     1      37.189 -19.062 -20.047  0.00  0.00    -0.429 OA
BRANCH  19  22
ATOM     20  O   UNL     1      37.896 -18.285 -22.078  0.00  0.00    -0.226 OA
ATOM     21  N   UNL     1      35.879 -17.586 -21.117  0.00  0.00    -0.250 N 
ATOM     22  C   UNL     1      37.062 -18.297 -21.180  0.00  0.00    +0.406 C 
ATOM     23  H   UNL     1      35.333 -17.729 -20.309  0.00  0.00    +0.158 HD
BRANCH  21  24
ATOM     24  C   UNL     1      35.355 -16.681 -22.067  0.00  0.00    +0.053 C 
ATOM     25  C   UNL     1      35.026 -15.381 -21.684  0.00  0.00    +0.015 C 
ATOM     26  C   UNL     1      35.165 -17.088 -23.388  0.00  0.00    +0.015 C 
ATOM     27  C   UNL     1      34.317 -14.895 -23.942  0.00  0.00    +0.055 C 
ATOM     28  C   UNL     1      34.507 -14.488 -22.621  0.00  0.00    +0.006 C 
ATOM     29  C   UNL     1      34.646 -16.195 -24.325  0.00  0.00    +0.006 C 
BRANCH  27  32
ATOM     30  O   UNL     1      33.974 -12.740 -24.809  0.00  0.00    -0.268 OA
ATOM     31  N   UNL     1      33.029 -14.499 -25.958  0.00  0.00    -0.193 N 
ATOM     32  C   UNL     1      33.776 -13.964 -24.919  0.00  0.00    +0.268 C 
ATOM     33  H   UNL     1      32.878 -15.469 -26.038  0.00  0.00    +0.183 HD
BRANCH  31  34
ATOM     34  O   UNL     1      32.499 -13.595 -26.889  0.00  0.00    -0.295 OA
ATOM     35  H   UNL     1      31.767 -14.013 -27.368  0.00  0.00    +0.241 HD
ENDBRANCH  31  34
ENDBRANCH  27  32
ENDBRANCH  21  24
ENDBRANCH  19  22
ENDBRANCH   1  19
TORSDOF 10
ENDMDL
MODEL 2
REMARK VINA RESULT:     -10.9      3.514     11.501
REMARK  Name = 9804992
REMARK  10 active torsions:
REMARK  status: ('A' for Active; 'I' for Inactive)
REMARK    1  A    between atoms: C_1  and  C_9
REMARK    2  A    between atoms: C_1  and  O_19
REMARK    3  A    between atoms: C_2  and  C_12
REMARK    4  A    between atoms: C_12  and  N_13
REMARK    5  A    between atoms: N_13  and  C_15
REMARK    6  A    between atoms: N_13  and  C_17
REMARK    7  A    between atoms: O_19  and  C_22
REMARK    8  A    between atoms: N_21  and  C_24
REMARK    9  A    between atoms: C_27  and  C_32
REMARK   10  A    between atoms: N_31  and  O_34
REMARK                            x       y       z     vdW  Elec       q    Type
REMARK                         _______ _______ _______ _____ _____    ______ ____
ROOT
ATOM      1  C   UNL     1      35.006 -17.346 -23.611  0.00  0.00    +0.237 C 
ENDROOT
BRANCH   1   9
ATOM      2  C   UNL     1      33.790 -11.003 -24.492  0.00  0.00    -0.043 C 
ATOM      3  C   UNL     1      34.352 -13.100 -23.395  0.00  0.00    -0.000 C 
ATOM      4  C   UNL     1      34.218 -13.775 -24.632  0.00  0.00    -0.000 C 
ATOM      5  C   UNL     1      34.135 -11.714 -23.342  0.00  0.00    -0.006 C 
ATOM      6  C   UNL     1      33.659 -11.667 -25.708  0.00  0.00    -0.006 C 
ATOM      7  C   UNL     1      33.870 -13.043 -25.779  0.00  0.00    -0.000 C 
ATOM      8  C   UNL     1      34.435 -15.161 -24.686  0.00  0.00    -0.001 C 
ATOM      9  C   UNL     1      34.780 -15.873 -23.536  0.00  0.00    +0.021 C 
ATOM     10  C   UNL     1      34.700 -13.833 -22.248  0.00  0.00    -0.000 C 
ATOM     11  C   UNL     1      34.913 -15.210 -22.320  0.00  0.00    -0.001 C 
BRANCH   2  12
ATOM     12  C   UNL     1      33.562  -9.531 -24.417  0.00  0.00    -0.050 C 
BRANCH  12  13
ATOM     13  N   UNL     1      33.401  -9.061 -23.040  0.00  0.00    +0.390 N 
ATOM     14  H   UNL     1      33.793  -9.761 -22.410  0.00  0.00    -0.079 HD
BRANCH  13  15
ATOM     15  C   UNL     1      34.122  -7.805 -22.842  0.00  0.00    -0.077 C 
ATOM     16  C   UNL     1      35.310  -7.700 -23.782  0.00  0.00    -0.025 C 
ENDBRANCH  13  15
BRANCH  13  17
ATOM     17  C   UNL     1      31.984  -8.895 -22.721  0.00  0.00    -0.077 C 
ATOM     18  C   UNL     1      31.439  -7.601 -23.301  0.00  0.00    -0.025 C 
ENDBRANCH  13  17
ENDBRANCH  12  13
ENDBRANCH   2  12
ENDBRANCH   1   9
BRANCH   1  19
ATOM     19  O   UNL     1      36.218 -17.672 -22.942  0.00  0.00    -0.429 OA
BRANCH  19  22
ATOM     20  O   UNL     1      36.753 -17.925 -20.733  0.00  0.00    -0.226 OA
ATOM     21  N   UNL     1      35.138 -19.259 -21.778  0.00  0.00    -0.250 N 
ATOM     22  C   UNL     1      36.094 -18.265 -21.709  0.00  0.00    +0.406 C 
ATOM     23  H   UNL     1      34.711 -19.386 -22.657  0.00  0.00    +0.158 HD
BRANCH  21  24
ATOM     24  C   UNL     1      34.696 -20.115 -20.744  0.00  0.00    +0.053 C 
ATOM     25  C   UNL     1      35.613 -20.913 -20.060  0.00  0.00    +0.015 C 
ATOM     26  C   UNL     1      33.343 -20.164 -20.409  0.00  0.00    +0.015 C 
ATOM     27  C   UNL     1      33.823 -21.808 -18.706  0.00  0.00    +0.055 C 
ATOM     28  C   UNL     1      35.177 -21.760 -19.041  0.00  0.00    +0.006 C 
ATOM     29  C   UNL     1      32.906 -21.010 -19.390  0.00  0.00    +0.006 C 
BRANCH  27  32
ATOM     30  O   UNL     1      34.115 -23.580 -17.192  0.00  0.00    -0.268 OA
ATOM     31  N   UNL     1      32.078 -22.504 -17.173  0.00  0.00    -0.193 N 
ATOM     32  C   UNL     1      33.369 -22.691 -17.643  0.00  0.00    +0.268 C 
ATOM     33  H   UNL     1      31.494 -21.797 -17.536  0.00  0.00    +0.183 HD
BRANCH  31  34
ATOM     34  O   UNL     1      31.641 -23.366 -16.158  0.00  0.00    -0.295 OA
ATOM     35  H   UNL     1      31.200 -24.135 -16.552  0.00  0.00    +0.241 HD
ENDBRANCH  31  34
ENDBRANCH  27  32
ENDBRANCH  21  24
ENDBRANCH  19  22
ENDBRANCH   1  19
TORSDOF 10
ENDMDL
MODEL 3
REMARK VINA RESULT:     -10.9      2.637      3.588
REMARK  Name = 9804992
REMARK  10 active torsions:
REMARK  status: ('A' for Active; 'I' for Inactive)
REMARK    1  A    between atoms: C_1  and  C_9
REMARK    2  A    between atoms: C_1  and  O_19
REMARK    3  A    between atoms: C_2  and  C_12
REMARK    4  A    between atoms: C_12  and  N_13
REMARK    5  A    between atoms: N_13  and  C_15
REMARK    6  A    between atoms: N_13  and  C_17
REMARK    7  A    between atoms: O_19  and  C_22
REMARK    8  A    between atoms: N_21  and  C_24
REMARK    9  A    between atoms: C_27  and  C_32
REMARK   10  A    between atoms: N_31  and  O_34
REMARK                            x       y       z     vdW  Elec       q    Type
REMARK                         _______ _______ _______ _____ _____    ______ ____
ROOT
ATOM      1  C   UNL     1      35.795 -20.426 -20.509  0.00  0.00    +0.237 C 
ENDROOT
BRANCH   1   9
ATOM      2  C   UNL     1      35.930 -23.390 -14.705  0.00  0.00    -0.043 C 
ATOM      3  C   UNL     1      35.109 -22.564 -16.841  0.00  0.00    -0.000 C 
ATOM      4  C   UNL     1      36.378 -21.995 -17.101  0.00  0.00    -0.000 C 
ATOM      5  C   UNL     1      34.901 -23.259 -15.638  0.00  0.00    -0.006 C 
ATOM      6  C   UNL     1      37.178 -22.831 -14.962  0.00  0.00    -0.006 C 
ATOM      7  C   UNL     1      37.402 -22.137 -16.151  0.00  0.00    -0.000 C 
ATOM      8  C   UNL     1      36.586 -21.300 -18.304  0.00  0.00    -0.001 C 
ATOM      9  C   UNL     1      35.556 -21.168 -19.237  0.00  0.00    +0.021 C 
ATOM     10  C   UNL     1      34.084 -22.422 -17.791  0.00  0.00    -0.000 C 
ATOM     11  C   UNL     1      34.308 -21.728 -18.981  0.00  0.00    -0.001 C 
BRANCH   2  12
ATOM     12  C   UNL     1      35.692 -24.131 -13.433  0.00  0.00    -0.050 C 
BRANCH  12  13
ATOM     13  N   UNL     1      36.896 -24.218 -12.605  0.00  0.00    +0.390 N 
ATOM     14  H   UNL     1      37.674 -23.808 -13.120  0.00  0.00    -0.079 HD
BRANCH  13  15
ATOM     15  C   UNL     1      36.716 -23.467 -11.364  0.00  0.00    -0.077 C 
ATOM     16  C   UNL     1      36.048 -24.320 -10.298  0.00  0.00    -0.025 C 
ENDBRANCH  13  15
BRANCH  13  17
ATOM     17  C   UNL     1      37.216 -25.615 -12.318  0.00  0.00    -0.077 C 
ATOM     18  C   UNL     1      38.170 -26.184 -13.354  0.00  0.00    -0.025 C 
ENDBRANCH  13  17
ENDBRANCH  12  13
ENDBRANCH   2  12
ENDBRANCH   1   9
BRANCH   1  19
ATOM     19  O   UNL     1      36.855 -19.497 -20.322  0.00  0.00    -0.429 OA
BRANCH  19  22
ATOM     20  O   UNL     1      37.901 -18.225 -21.909  0.00  0.00    -0.226 OA
ATOM     21  N   UNL     1      35.727 -17.756 -21.179  0.00  0.00    -0.250 N 
ATOM     22  C   UNL     1      36.918 -18.454 -21.214  0.00  0.00    +0.406 C 
ATOM     23  H   UNL     1      35.047 -18.094 -20.551  0.00  0.00    +0.158 HD
BRANCH  21  24
ATOM     24  C   UNL     1      35.363 -16.617 -21.932  0.00  0.00    +0.053 C 
ATOM     25  C   UNL     1      34.962 -15.449 -21.280  0.00  0.00    +0.015 C 
ATOM     26  C   UNL     1      35.403 -16.659 -23.325  0.00  0.00    +0.015 C 
ATOM     27  C   UNL     1      34.641 -14.368 -23.417  0.00  0.00    +0.055 C 
ATOM     28  C   UNL     1      34.602 -14.325 -22.023  0.00  0.00    +0.006 C 
ATOM     29  C   UNL     1      35.042 -15.535 -24.068  0.00  0.00    +0.006 C 
BRANCH  27  32
ATOM     30  O   UNL     1      33.708 -13.315 -25.298  0.00  0.00    -0.268 OA
ATOM     31  N   UNL     1      34.565 -11.956 -23.647  0.00  0.00    -0.193 N 
ATOM     32  C   UNL     1      34.265 -13.196 -24.191  0.00  0.00    +0.268 C 
ATOM     33  H   UNL     1      35.006 -11.870 -22.770  0.00  0.00    +0.183 HD
BRANCH  31  34
ATOM     34  O   UNL     1      34.211 -10.829 -24.404  0.00  0.00    -0.295 OA
ATOM     35  H   UNL     1      33.480 -11.056 -25.000  0.00  0.00    +0.241 HD
ENDBRANCH  31  34
ENDBRANCH  27  32
ENDBRANCH  21  24
ENDBRANCH  19  22
ENDBRANCH   1  19
TORSDOF 10
ENDMDL
MODEL 4
REMARK VINA RESULT:     -10.9      2.488      4.061
REMARK  Name = 9804992
REMARK  10 active torsions:
REMARK  status: ('A' for Active; 'I' for Inactive)
REMARK    1  A    between atoms: C_1  and  C_9
REMARK    2  A    between atoms: C_1  and  O_19
REMARK    3  A    between atoms: C_2  and  C_12
REMARK    4  A    between atoms: C_12  and  N_13
REMARK    5  A    between atoms: N_13  and  C_15
REMARK    6  A    between atoms: N_13  and  C_17
REMARK    7  A    between atoms: O_19  and  C_22
REMARK    8  A    between atoms: N_21  and  C_24
REMARK    9  A    between atoms: C_27  and  C_32
REMARK   10  A    between atoms: N_31  and  O_34
REMARK                            x       y       z     vdW  Elec       q    Type
REMARK                         _______ _______ _______ _____ _____    ______ ____
ROOT
ATOM      1  C   UNL     1      36.395 -17.265 -22.564  0.00  0.00    +0.237 C 
ENDROOT
BRANCH   1   9
ATOM      2  C   UNL     1      33.957 -22.012 -18.822  0.00  0.00    -0.043 C 
ATOM      3  C   UNL     1      35.563 -20.538 -19.902  0.00  0.00    -0.000 C 
ATOM      4  C   UNL     1      34.501 -19.874 -20.560  0.00  0.00    -0.000 C 
ATOM      5  C   UNL     1      35.274 -21.605 -19.036  0.00  0.00    -0.006 C 
ATOM      6  C   UNL     1      32.912 -21.358 -19.468  0.00  0.00    -0.006 C 
ATOM      7  C   UNL     1      33.180 -20.296 -20.332  0.00  0.00    -0.000 C 
ATOM      8  C   UNL     1      34.789 -18.807 -21.425  0.00  0.00    -0.001 C 
ATOM      9  C   UNL     1      36.107 -18.400 -21.641  0.00  0.00    +0.021 C 
ATOM     10  C   UNL     1      36.883 -20.116 -20.130  0.00  0.00    -0.000 C 
ATOM     11  C   UNL     1      37.152 -19.053 -20.993  0.00  0.00    -0.001 C 
BRANCH   2  12
ATOM     12  C   UNL     1      33.668 -23.148 -17.899  0.00  0.00    -0.050 C 
BRANCH  12  13
ATOM     13  N   UNL     1      33.323 -22.696 -16.551  0.00  0.00    +0.390 N 
ATOM     14  H   UNL     1      33.470 -21.688 -16.498  0.00  0.00    -0.079 HD
BRANCH  13  15
ATOM     15  C   UNL     1      31.917 -22.974 -16.265  0.00  0.00    -0.077 C 
ATOM     16  C   UNL     1      31.590 -22.708 -14.805  0.00  0.00    -0.025 C 
ENDBRANCH  13  15
BRANCH  13  17
ATOM     17  C   UNL     1      34.184 -23.341 -15.561  0.00  0.00    -0.077 C 
ATOM     18  C   UNL     1      35.480 -22.570 -15.374  0.00  0.00    -0.025 C 
ENDBRANCH  13  17
ENDBRANCH  12  13
ENDBRANCH   2  12
ENDBRANCH   1   9
BRANCH   1  19
ATOM     19  O   UNL     1      35.559 -17.364 -23.710  0.00  0.00    -0.429 OA
BRANCH  19  22
ATOM     20  O   UNL     1      34.196 -16.136 -25.075  0.00  0.00    -0.226 OA
ATOM     21  N   UNL     1      34.912 -15.338 -22.994  0.00  0.00    -0.250 N 
ATOM     22  C   UNL     1      34.821 -16.250 -24.027  0.00  0.00    +0.406 C 
ATOM     23  H   UNL     1      35.465 -15.610 -22.225  0.00  0.00    +0.158 HD
BRANCH  21  24
ATOM     24  C   UNL     1      34.310 -14.062 -22.903  0.00  0.00    +0.053 C 
ATOM     25  C   UNL     1      34.547 -13.107 -23.893  0.00  0.00    +0.015 C 
ATOM     26  C   UNL     1      33.481 -13.757 -21.824  0.00  0.00    +0.015 C 
ATOM     27  C   UNL     1      33.125 -11.543 -22.722  0.00  0.00    +0.055 C 
ATOM     28  C   UNL     1      33.954 -11.848 -23.802  0.00  0.00    +0.006 C 
ATOM     29  C   UNL     1      32.888 -12.498 -21.734  0.00  0.00    +0.006 C 
BRANCH  27  32
ATOM     30  O   UNL     1      31.560 -10.026 -21.847  0.00  0.00    -0.268 OA
ATOM     31  N   UNL     1      33.011  -9.233 -23.452  0.00  0.00    -0.193 N 
ATOM     32  C   UNL     1      32.507 -10.230 -22.629  0.00  0.00    +0.268 C 
ATOM     33  H   UNL     1      33.762  -9.404 -24.067  0.00  0.00    +0.183 HD
BRANCH  31  34
ATOM     34  O   UNL     1      32.403  -7.973 -23.366  0.00  0.00    -0.295 OA
ATOM     35  H   UNL     1      31.488  -8.032 -23.682  0.00  0.00    +0.241 HD
ENDBRANCH  31  34
ENDBRANCH  27  32
ENDBRANCH  21  24
ENDBRANCH  19  22
ENDBRANCH   1  19
TORSDOF 10
ENDMDL
MODEL 5
REMARK VINA RESULT:     -10.8      3.952     10.813
REMARK  Name = 9804992
REMARK  10 active torsions:
REMARK  status: ('A' for Active; 'I' for Inactive)
REMARK    1  A    between atoms: C_1  and  C_9
REMARK    2  A    between atoms: C_1  and  O_19
REMARK    3  A    between atoms: C_2  and  C_12
REMARK    4  A    between atoms: C_12  and  N_13
REMARK    5  A    between atoms: N_13  and  C_15
REMARK    6  A    between atoms: N_13  and  C_17
REMARK    7  A    between atoms: O_19  and  C_22
REMARK    8  A    between atoms: N_21  and  C_24
REMARK    9  A    between atoms: C_27  and  C_32
REMARK   10  A    between atoms: N_31  and  O_34
REMARK                            x       y       z     vdW  Elec       q    Type
REMARK                         _______ _______ _______ _____ _____    ______ ____
ROOT
ATOM      1  C   UNL     1      35.844 -16.527 -23.035  0.00  0.00    +0.237 C 
ENDROOT
BRANCH   1   9
ATOM      2  C   UNL     1      32.122 -11.446 -21.359  0.00  0.00    -0.043 C 
ATOM      3  C   UNL     1      33.470 -12.956 -22.707  0.00  0.00    -0.000 C 
ATOM      4  C   UNL     1      33.671 -13.778 -21.573  0.00  0.00    -0.000 C 
ATOM      5  C   UNL     1      32.693 -11.793 -22.584  0.00  0.00    -0.006 C 
ATOM      6  C   UNL     1      32.319 -12.255 -20.244  0.00  0.00    -0.006 C 
ATOM      7  C   UNL     1      33.088 -13.413 -20.349  0.00  0.00    -0.000 C 
ATOM      8  C   UNL     1      34.449 -14.941 -21.697  0.00  0.00    -0.001 C 
ATOM      9  C   UNL     1      35.021 -15.288 -22.922  0.00  0.00    +0.021 C 
ATOM     10  C   UNL     1      34.053 -13.320 -23.932  0.00  0.00    -0.000 C 
ATOM     11  C   UNL     1      34.823 -14.480 -24.037  0.00  0.00    -0.001 C 
BRANCH   2  12
ATOM     12  C   UNL     1      31.299 -10.207 -21.245  0.00  0.00    -0.050 C 
BRANCH  12  13
ATOM     13  N   UNL     1      32.111  -8.991 -21.299  0.00  0.00    +0.390 N 
ATOM     14  H   UNL     1      33.080  -9.255 -21.477  0.00  0.00    -0.079 HD
BRANCH  13  15
ATOM     15  C   UNL     1      31.662  -8.125 -22.388  0.00  0.00    -0.077 C 
ATOM     16  C   UNL     1      32.636  -8.157 -23.553  0.00  0.00    -0.025 C 
ENDBRANCH  13  15
BRANCH  13  17
ATOM     17  C   UNL     1      32.052  -8.281 -20.023  0.00  0.00    -0.077 C 
ATOM     18  C   UNL     1      32.688  -6.905 -20.129  0.00  0.00    -0.025 C 
ENDBRANCH  13  17
ENDBRANCH  12  13
ENDBRANCH   2  12
ENDBRANCH   1   9
BRANCH   1  19
ATOM     19  O   UNL     1      35.143 -17.491 -23.809  0.00  0.00    -0.429 OA
BRANCH  19  22
ATOM     20  O   UNL     1      35.038 -19.772 -23.939  0.00  0.00    -0.226 OA
ATOM     21  N   UNL     1      34.923 -18.640 -21.893  0.00  0.00    -0.250 N 
ATOM     22  C   UNL     1      35.032 -18.748 -23.266  0.00  0.00    +0.406 C 
ATOM     23  H   UNL     1      34.940 -17.724 -21.530  0.00  0.00    +0.158 HD
BRANCH  21  24
ATOM     24  C   UNL     1      34.791 -19.680 -20.946  0.00  0.00    +0.053 C 
ATOM     25  C   UNL     1      33.522 -20.127 -20.573  0.00  0.00    +0.015 C 
ATOM     26  C   UNL     1      35.928 -20.259 -20.382  0.00  0.00    +0.015 C 
ATOM     27  C   UNL     1      34.529 -21.732 -19.073  0.00  0.00    +0.055 C 
ATOM     28  C   UNL     1      33.392 -21.152 -19.637  0.00  0.00    +0.006 C 
ATOM     29  C   UNL     1      35.797 -21.285 -19.446  0.00  0.00    +0.006 C 
BRANCH  27  32
ATOM     30  O   UNL     1      33.819 -23.865 -18.395  0.00  0.00    -0.268 OA
ATOM     31  N   UNL     1      34.914 -22.574 -16.832  0.00  0.00    -0.193 N 
ATOM     32  C   UNL     1      34.392 -22.801 -18.097  0.00  0.00    +0.268 C 
ATOM     33  H   UNL     1      35.366 -21.728 -16.605  0.00  0.00    +0.183 HD
BRANCH  31  34
ATOM     34  O   UNL     1      34.767 -23.603 -15.892  0.00  0.00    -0.295 OA
ATOM     35  H   UNL     1      35.470 -23.537 -15.226  0.00  0.00    +0.241 HD
ENDBRANCH  31  34
ENDBRANCH  27  32
ENDBRANCH  21  24
ENDBRANCH  19  22
ENDBRANCH   1  19
TORSDOF 10
ENDMDL
MODEL 6
REMARK VINA RESULT:     -10.7      2.020      2.778
REMARK  Name = 9804992
REMARK  10 active torsions:
REMARK  status: ('A' for Active; 'I' for Inactive)
REMARK    1  A    between atoms: C_1  and  C_9
REMARK    2  A    between atoms: C_1  and  O_19
REMARK    3  A    between atoms: C_2  and  C_12
REMARK    4  A    between atoms: C_12  and  N_13
REMARK    5  A    between atoms: N_13  and  C_15
REMARK    6  A    between atoms: N_13  and  C_17
REMARK    7  A    between atoms: O_19  and  C_22
REMARK    8  A    between atoms: N_21  and  C_24
REMARK    9  A    between atoms: C_27  and  C_32
REMARK   10  A    between atoms: N_31  and  O_34
REMARK                            x       y       z     vdW  Elec       q    Type
REMARK                         _______ _______ _______ _____ _____    ______ ____
ROOT
ATOM      1  C   UNL     1      35.768 -18.918 -22.068  0.00  0.00    +0.237 C 
ENDROOT
BRANCH   1   9
ATOM      2  C   UNL     1      33.584 -22.712 -17.239  0.00  0.00    -0.043 C 
ATOM      3  C   UNL     1      33.591 -21.233 -19.170  0.00  0.00    -0.000 C 
ATOM      4  C   UNL     1      35.006 -21.202 -19.132  0.00  0.00    -0.000 C 
ATOM      5  C   UNL     1      32.895 -21.993 -18.216  0.00  0.00    -0.006 C 
ATOM      6  C   UNL     1      34.975 -22.682 -17.203  0.00  0.00    -0.006 C 
ATOM      7  C   UNL     1      35.682 -21.932 -18.142  0.00  0.00    -0.000 C 
ATOM      8  C   UNL     1      35.701 -20.441 -20.086  0.00  0.00    -0.001 C 
ATOM      9  C   UNL     1      35.012 -19.721 -21.063  0.00  0.00    +0.021 C 
ATOM     10  C   UNL     1      32.914 -20.502 -20.160  0.00  0.00    -0.000 C 
ATOM     11  C   UNL     1      33.622 -19.752 -21.101  0.00  0.00    -0.001 C 
BRANCH   2  12
ATOM     12  C   UNL     1      32.829 -23.514 -16.233  0.00  0.00    -0.050 C 
BRANCH  12  13
ATOM     13  N   UNL     1      33.141 -23.121 -14.859  0.00  0.00    +0.390 N 
ATOM     14  H   UNL     1      33.897 -22.437 -14.880  0.00  0.00    -0.079 HD
BRANCH  13  15
ATOM     15  C   UNL     1      31.976 -22.502 -14.229  0.00  0.00    -0.077 C 
ATOM     16  C   UNL     1      30.705 -22.811 -15.002  0.00  0.00    -0.025 C 
ENDBRANCH  13  15
BRANCH  13  17
ATOM     17  C   UNL     1      33.588 -24.278 -14.086  0.00  0.00    -0.077 C 
ATOM     18  C   UNL     1      34.833 -23.954 -13.279  0.00  0.00    -0.025 C 
ENDBRANCH  13  17
ENDBRANCH  12  13
ENDBRANCH   2  12
ENDBRANCH   1   9
BRANCH   1  19
ATOM     19  O   UNL     1      35.185 -19.099 -23.352  0.00  0.00    -0.429 OA
BRANCH  19  22
ATOM     20  O   UNL     1      34.115 -17.992 -25.044  0.00  0.00    -0.226 OA
ATOM     21  N   UNL     1      35.016 -16.866 -23.199  0.00  0.00    -0.250 N 
ATOM     22  C   UNL     1      34.711 -17.968 -23.973  0.00  0.00    +0.406 C 
ATOM     23  H   UNL     1      35.503 -17.047 -22.362  0.00  0.00    +0.158 HD
BRANCH  21  24
ATOM     24  C   UNL     1      34.716 -15.509 -23.459  0.00  0.00    +0.053 C 
ATOM     25  C   UNL     1      34.216 -15.133 -24.707  0.00  0.00    +0.015 C 
ATOM     26  C   UNL     1      34.920 -14.547 -22.471  0.00  0.00    +0.015 C 
ATOM     27  C   UNL     1      34.126 -12.832 -23.975  0.00  0.00    +0.055 C 
ATOM     28  C   UNL     1      33.921 -13.794 -24.964  0.00  0.00    +0.006 C 
ATOM     29  C   UNL     1      34.625 -13.209 -22.728  0.00  0.00    +0.006 C 
BRANCH  27  32
ATOM     30  O   UNL     1      34.057 -10.935 -25.358  0.00  0.00    -0.268 OA
ATOM     31  N   UNL     1      33.265 -10.699 -23.207  0.00  0.00    -0.193 N 
ATOM     32  C   UNL     1      33.818 -11.437 -24.244  0.00  0.00    +0.268 C 
ATOM     33  H   UNL     1      33.080 -11.103 -22.328  0.00  0.00    +0.183 HD
BRANCH  31  34
ATOM     34  O   UNL     1      32.983  -9.350 -23.469  0.00  0.00    -0.295 OA
ATOM     35  H   UNL     1      32.126  -9.117 -23.080  0.00  0.00    +0.241 HD
ENDBRANCH  31  34
ENDBRANCH  27  32
ENDBRANCH  21  24
ENDBRANCH  19  22
ENDBRANCH   1  19
TORSDOF 10
ENDMDL
MODEL 7
REMARK VINA RESULT:     -10.6      4.678     11.883
REMARK  Name = 9804992
REMARK  10 active torsions:
REMARK  status: ('A' for Active; 'I' for Inactive)
REMARK    1  A    between atoms: C_1  and  C_9
REMARK    2  A    between atoms: C_1  and  O_19
REMARK    3  A    between atoms: C_2  and  C_12
REMARK    4  A    between atoms: C_12  and  N_13
REMARK    5  A    between atoms: N_13  and  C_15
REMARK    6  A    between atoms: N_13  and  C_17
REMARK    7  A    between atoms: O_19  and  C_22
REMARK    8  A    between atoms: N_21  and  C_24
REMARK    9  A    between atoms: C_27  and  C_32
REMARK   10  A    between atoms: N_31  and  O_34
REMARK                            x       y       z     vdW  Elec       q    Type
REMARK                         _______ _______ _______ _____ _____    ______ ____
ROOT
ATOM      1  C   UNL     1      34.459 -15.134 -23.993  0.00  0.00    +0.237 C 
ENDROOT
BRANCH   1   9
ATOM      2  C   UNL     1      32.253  -9.214 -22.392  0.00  0.00    -0.043 C 
ATOM      3  C   UNL     1      33.399 -10.984 -23.603  0.00  0.00    -0.000 C 
ATOM      4  C   UNL     1      32.945 -11.923 -22.647  0.00  0.00    -0.000 C 
ATOM      5  C   UNL     1      33.044  -9.633 -23.462  0.00  0.00    -0.006 C 
ATOM      6  C   UNL     1      31.807 -10.137 -21.451  0.00  0.00    -0.006 C 
ATOM      7  C   UNL     1      32.149 -11.483 -21.576  0.00  0.00    -0.000 C 
ATOM      8  C   UNL     1      33.300 -13.274 -22.789  0.00  0.00    -0.001 C 
ATOM      9  C   UNL     1      34.091 -13.695 -23.859  0.00  0.00    +0.021 C 
ATOM     10  C   UNL     1      34.194 -11.425 -24.674  0.00  0.00    -0.000 C 
ATOM     11  C   UNL     1      34.537 -12.772 -24.800  0.00  0.00    -0.001 C 
BRANCH   2  12
ATOM     12  C   UNL     1      31.886  -7.774 -22.256  0.00  0.00    -0.050 C 
BRANCH  12  13
ATOM     13  N   UNL     1      32.943  -6.987 -21.619  0.00  0.00    +0.390 N 
ATOM     14  H   UNL     1      33.669  -7.623 -21.292  0.00  0.00    -0.079 HD
BRANCH  13  15
ATOM     15  C   UNL     1      33.540  -6.062 -22.582  0.00  0.00    -0.077 C 
ATOM     16  C   UNL     1      34.808  -6.640 -23.186  0.00  0.00    -0.025 C 
ENDBRANCH  13  15
BRANCH  13  17
ATOM     17  C   UNL     1      32.413  -6.258 -20.469  0.00  0.00    -0.077 C 
ATOM     18  C   UNL     1      31.370  -5.239 -20.897  0.00  0.00    -0.025 C 
ENDBRANCH  13  17
ENDBRANCH  12  13
ENDBRANCH   2  12
ENDBRANCH   1   9
BRANCH   1  19
ATOM     19  O   UNL     1      35.582 -15.414 -23.167  0.00  0.00    -0.429 OA
BRANCH  19  22
ATOM     20  O   UNL     1      35.008 -15.686 -20.970  0.00  0.00    -0.226 OA
ATOM     21  N   UNL     1      35.538 -17.503 -22.347  0.00  0.00    -0.250 N 
ATOM     22  C   UNL     1      35.342 -16.170 -22.045  0.00  0.00    +0.406 C 
ATOM     23  H   UNL     1      35.806 -17.701 -23.275  0.00  0.00    +0.158 HD
BRANCH  21  24
ATOM     24  C   UNL     1      35.400 -18.619 -21.491  0.00  0.00    +0.053 C 
ATOM     25  C   UNL     1      34.135 -19.150 -21.236  0.00  0.00    +0.015 C 
ATOM     26  C   UNL     1      36.528 -19.189 -20.901  0.00  0.00    +0.015 C 
ATOM     27  C   UNL     1      35.128 -20.821 -19.800  0.00  0.00    +0.055 C 
ATOM     28  C   UNL     1      33.999 -20.251 -20.390  0.00  0.00    +0.006 C 
ATOM     29  C   UNL     1      36.392 -20.290 -20.056  0.00  0.00    +0.006 C 
BRANCH  27  32
ATOM     30  O   UNL     1      35.850 -22.223 -18.059  0.00  0.00    -0.268 OA
ATOM     31  N   UNL     1      33.860 -22.762 -19.088  0.00  0.00    -0.193 N 
ATOM     32  C   UNL     1      34.986 -21.969 -18.918  0.00  0.00    +0.268 C 
ATOM     33  H   UNL     1      33.181 -22.553 -19.771  0.00  0.00    +0.183 HD
BRANCH  31  34
ATOM     34  O   UNL     1      33.735 -23.874 -18.244  0.00  0.00    -0.295 OA
ATOM     35  H   UNL     1      33.295 -23.608 -17.421  0.00  0.00    +0.241 HD
ENDBRANCH  31  34
ENDBRANCH  27  32
ENDBRANCH  21  24
ENDBRANCH  19  22
ENDBRANCH   1  19
TORSDOF 10
ENDMDL
MODEL 8
REMARK VINA RESULT:     -10.6      2.795      3.991
REMARK  Name = 9804992
REMARK  10 active torsions:
REMARK  status: ('A' for Active; 'I' for Inactive)
REMARK    1  A    between atoms: C_1  and  C_9
REMARK    2  A    between atoms: C_1  and  O_19
REMARK    3  A    between atoms: C_2  and  C_12
REMARK    4  A    between atoms: C_12  and  N_13
REMARK    5  A    between atoms: N_13  and  C_15
REMARK    6  A    between atoms: N_13  and  C_17
REMARK    7  A    between atoms: O_19  and  C_22
REMARK    8  A    between atoms: N_21  and  C_24
REMARK    9  A    between atoms: C_27  and  C_32
REMARK   10  A    between atoms: N_31  and  O_34
REMARK                            x       y       z     vdW  Elec       q    Type
REMARK                         _______ _______ _______ _____ _____    ______ ____
ROOT
ATOM      1  C   UNL     1      35.291 -20.770 -20.396  0.00  0.00    +0.237 C 
ENDROOT
BRANCH   1   9
ATOM      2  C   UNL     1      35.569 -23.554 -14.509  0.00  0.00    -0.043 C 
ATOM      3  C   UNL     1      36.229 -22.307 -16.491  0.00  0.00    -0.000 C 
ATOM      4  C   UNL     1      34.956 -22.549 -17.059  0.00  0.00    -0.000 C 
ATOM      5  C   UNL     1      36.520 -22.817 -15.215  0.00  0.00    -0.006 C 
ATOM      6  C   UNL     1      34.316 -23.790 -15.067  0.00  0.00    -0.006 C 
ATOM      7  C   UNL     1      34.010 -23.292 -16.333  0.00  0.00    -0.000 C 
ATOM      8  C   UNL     1      34.665 -22.039 -18.334  0.00  0.00    -0.001 C 
ATOM      9  C   UNL     1      35.617 -21.303 -19.041  0.00  0.00    +0.021 C 
ATOM     10  C   UNL     1      37.175 -21.564 -17.216  0.00  0.00    -0.000 C 
ATOM     11  C   UNL     1      36.869 -21.065 -18.483  0.00  0.00    -0.001 C 
BRANCH   2  12
ATOM     12  C   UNL     1      35.895 -24.088 -13.155  0.00  0.00    -0.050 C 
BRANCH  12  13
ATOM     13  N   UNL     1      37.277 -24.559 -13.059  0.00  0.00    +0.390 N 
ATOM     14  H   UNL     1      37.819 -24.130 -13.809  0.00  0.00    -0.079 HD
BRANCH  13  15
ATOM     15  C   UNL     1      37.863 -24.162 -11.780  0.00  0.00    -0.077 C 
ATOM     16  C   UNL     1      37.351 -22.801 -11.340  0.00  0.00    -0.025 C 
ENDBRANCH  13  15
BRANCH  13  17
ATOM     17  C   UNL     1      37.333 -26.010 -13.220  0.00  0.00    -0.077 C 
ATOM     18  C   UNL     1      38.298 -26.404 -14.326  0.00  0.00    -0.025 C 
ENDBRANCH  13  17
ENDBRANCH  12  13
ENDBRANCH   2  12
ENDBRANCH   1   9
BRANCH   1  19
ATOM     19  O   UNL     1      35.941 -19.519 -20.581  0.00  0.00    -0.429 OA
BRANCH  19  22
ATOM     20  O   UNL     1      34.508 -18.913 -22.256  0.00  0.00    -0.226 OA
ATOM     21  N   UNL     1      35.658 -17.328 -20.973  0.00  0.00    -0.250 N 
ATOM     22  C   UNL     1      35.288 -18.599 -21.365  0.00  0.00    +0.406 C 
ATOM     23  H   UNL     1      36.302 -17.275 -20.230  0.00  0.00    +0.158 HD
BRANCH  21  24
ATOM     24  C   UNL     1      35.226 -16.092 -21.508  0.00  0.00    +0.053 C 
ATOM     25  C   UNL     1      34.678 -15.123 -20.667  0.00  0.00    +0.015 C 
ATOM     26  C   UNL     1      35.348 -15.843 -22.874  0.00  0.00    +0.015 C 
ATOM     27  C   UNL     1      34.373 -13.654 -22.562  0.00  0.00    +0.055 C 
ATOM     28  C   UNL     1      34.252 -13.904 -21.194  0.00  0.00    +0.006 C 
ATOM     29  C   UNL     1      34.921 -14.624 -23.402  0.00  0.00    +0.006 C 
BRANCH  27  32
ATOM     30  O   UNL     1      32.974 -11.768 -22.600  0.00  0.00    -0.268 OA
ATOM     31  N   UNL     1      34.602 -11.904 -24.224  0.00  0.00    -0.193 N 
ATOM     32  C   UNL     1      33.928 -12.384 -23.111  0.00  0.00    +0.268 C 
ATOM     33  H   UNL     1      35.356 -12.397 -24.622  0.00  0.00    +0.183 HD
BRANCH  31  34
ATOM     34  O   UNL     1      34.159 -10.685 -24.757  0.00  0.00    -0.295 OA
ATOM     35  H   UNL     1      34.843 -10.009 -24.630  0.00  0.00    +0.241 HD
ENDBRANCH  31  34
ENDBRANCH  27  32
ENDBRANCH  21  24
ENDBRANCH  19  22
ENDBRANCH   1  19
TORSDOF 10
ENDMDL
MODEL 9
REMARK VINA RESULT:     -10.5      5.480      8.950
REMARK  Name = 9804992
REMARK  10 active torsions:
REMARK  status: ('A' for Active; 'I' for Inactive)
REMARK    1  A    between atoms: C_1  and  C_9
REMARK    2  A    between atoms: C_1  and  O_19
REMARK    3  A    between atoms: C_2  and  C_12
REMARK    4  A    between atoms: C_12  and  N_13
REMARK    5  A    between atoms: N_13  and  C_15
REMARK    6  A    between atoms: N_13  and  C_17
REMARK    7  A    between atoms: O_19  and  C_22
REMARK    8  A    between atoms: N_21  and  C_24
REMARK    9  A    between atoms: C_27  and  C_32
REMARK   10  A    between atoms: N_31  and  O_34
REMARK                            x       y       z     vdW  Elec       q    Type
REMARK                         _______ _______ _______ _____ _____    ______ ____
ROOT
ATOM      1  C   UNL     1      34.103 -12.507 -24.131  0.00  0.00    +0.237 C 
ENDROOT
BRANCH   1   9
ATOM      2  C   UNL     1      35.732 -18.495 -22.139  0.00  0.00    -0.043 C 
ATOM      3  C   UNL     1      35.159 -16.132 -22.073  0.00  0.00    -0.000 C 
ATOM      4  C   UNL     1      35.041 -16.128 -23.483  0.00  0.00    -0.000 C 
ATOM      5  C   UNL     1      35.505 -17.324 -21.416  0.00  0.00    -0.006 C 
ATOM      6  C   UNL     1      35.615 -18.491 -23.526  0.00  0.00    -0.006 C 
ATOM      7  C   UNL     1      35.273 -17.316 -24.195  0.00  0.00    -0.000 C 
ATOM      8  C   UNL     1      34.695 -14.936 -24.140  0.00  0.00    -0.001 C 
ATOM      9  C   UNL     1      34.469 -13.764 -23.417  0.00  0.00    +0.021 C 
ATOM     10  C   UNL     1      34.927 -14.944 -21.361  0.00  0.00    -0.000 C 
ATOM     11  C   UNL     1      34.584 -13.768 -22.030  0.00  0.00    -0.001 C 
BRANCH   2  12
ATOM     12  C   UNL     1      36.099 -19.753 -21.425  0.00  0.00    -0.050 C 
BRANCH  12  13
ATOM     13  N   UNL     1      35.259 -19.992 -20.251  0.00  0.00    +0.390 N 
ATOM     14  H   UNL     1      35.405 -19.233 -19.586  0.00  0.00    -0.079 HD
BRANCH  13  15
ATOM     15  C   UNL     1      33.847 -20.008 -20.630  0.00  0.00    -0.077 C 
ATOM     16  C   UNL     1      33.025 -20.831 -19.652  0.00  0.00    -0.025 C 
ENDBRANCH  13  15
BRANCH  13  17
ATOM     17  C   UNL     1      35.631 -21.250 -19.606  0.00  0.00    -0.077 C 
ATOM     18  C   UNL     1      36.742 -21.039 -18.591  0.00  0.00    -0.025 C 
ENDBRANCH  13  17
ENDBRANCH  12  13
ENDBRANCH   2  12
ENDBRANCH   1   9
BRANCH   1  19
ATOM     19  O   UNL     1      33.500 -11.601 -23.216  0.00  0.00    -0.429 OA
BRANCH  19  22
ATOM     20  O   UNL     1      34.427  -9.824 -24.317  0.00  0.00    -0.226 OA
ATOM     21  N   UNL     1      32.688  -9.556 -22.772  0.00  0.00    -0.250 N 
ATOM     22  C   UNL     1      33.615 -10.265 -23.512  0.00  0.00    +0.406 C 
ATOM     23  H   UNL     1      32.115 -10.089 -22.173  0.00  0.00    +0.158 HD
BRANCH  21  24
ATOM     24  C   UNL     1      32.461  -8.161 -22.767  0.00  0.00    +0.053 C 
ATOM     25  C   UNL     1      32.879  -7.391 -21.681  0.00  0.00    +0.015 C 
ATOM     26  C   UNL     1      31.818  -7.555 -23.846  0.00  0.00    +0.015 C 
ATOM     27  C   UNL     1      32.010  -5.408 -22.755  0.00  0.00    +0.055 C 
ATOM     28  C   UNL     1      32.654  -6.015 -21.675  0.00  0.00    +0.006 C 
ATOM     29  C   UNL     1      31.593  -6.179 -23.840  0.00  0.00    +0.006 C 
BRANCH  27  32
ATOM     30  O   UNL     1      32.437  -3.216 -23.482  0.00  0.00    -0.268 OA
ATOM     31  N   UNL     1      30.800  -3.496 -21.885  0.00  0.00    -0.193 N 
ATOM     32  C   UNL     1      31.775  -3.974 -22.748  0.00  0.00    +0.268 C 
ATOM     33  H   UNL     1      30.281  -4.102 -21.307  0.00  0.00    +0.183 HD
BRANCH  31  34
ATOM     34  O   UNL     1      30.587  -2.110 -21.874  0.00  0.00    -0.295 OA
ATOM     35  H   UNL     1      29.678  -1.924 -21.590  0.00  0.00    +0.241 HD
ENDBRANCH  31  34
ENDBRANCH  27  32
ENDBRANCH  21  24
ENDBRANCH  19  22
ENDBRANCH   1  19
TORSDOF 10
ENDMDL
