MODEL 1
REMARK VINA RESULT:     -12.4      0.000      0.000
REMARK  Name = 10297043
REMARK  6 active torsions:
REMARK  status: ('A' for Active; 'I' for Inactive)
REMARK    1  A    between atoms: N_2  and  C_30
REMARK    2  A    between atoms: C_5  and  C_16
REMARK    3  A    between atoms: C_13  and  C_19
REMARK    4  A    between atoms: C_19  and  N_20
REMARK    5  A    between atoms: N_21  and  C_28
REMARK    6  A    between atoms: C_30  and  C_32
REMARK                            x       y       z     vdW  Elec       q    Type
REMARK                         _______ _______ _______ _____ _____    ______ ____
ROOT
ATOM      1  N   UNL     1      32.669 -21.749 -18.447  0.00  0.00    -0.301 N 
ATOM      2  N   UNL     1      35.223 -23.902 -15.191  0.00  0.00    -0.319 N 
ATOM      3  N   UNL     1      31.418 -22.947 -16.771  0.00  0.00    -0.233 NA
ATOM      4  N   UNL     1      32.840 -24.034 -15.120  0.00  0.00    -0.233 NA
ATOM      5  C   UNL     1      33.991 -21.512 -18.724  0.00  0.00    +0.046 C 
ATOM      6  C   UNL     1      33.854 -22.792 -16.871  0.00  0.00    +0.131 C 
ATOM      7  C   UNL     1      34.749 -22.147 -17.763  0.00  0.00    +0.003 C 
ATOM      8  C   UNL     1      32.568 -22.526 -17.324  0.00  0.00    +0.117 C 
ATOM      9  C   UNL     1      33.962 -23.579 -15.725  0.00  0.00    +0.113 C 
ATOM     10  C   UNL     1      31.654 -23.696 -15.673  0.00  0.00    +0.252 C 
ATOM     11  H   UNL     1      31.909 -21.412 -18.975  0.00  0.00    +0.153 HD
ATOM     12  H   UNL     1      36.027 -23.561 -15.645  0.00  0.00    +0.148 HD
ENDROOT
BRANCH   5  16
ATOM     13  C   UNL     1      35.204 -19.196 -22.039  0.00  0.00    -0.043 C 
ATOM     14  C   UNL     1      36.164 -19.756 -21.203  0.00  0.00    -0.006 C 
ATOM     15  C   UNL     1      33.850 -19.391 -21.796  0.00  0.00    -0.006 C 
ATOM     16  C   UNL     1      34.405 -20.721 -19.857  0.00  0.00    +0.013 C 
ATOM     17  C   UNL     1      35.762 -20.522 -20.108  0.00  0.00    +0.001 C 
ATOM     18  C   UNL     1      33.449 -20.156 -20.701  0.00  0.00    +0.001 C 
BRANCH  13  19
ATOM     19  C   UNL     1      35.636 -18.372 -23.218  0.00  0.00    -0.050 C 
BRANCH  19  20
ATOM     20  N   UNL     1      34.923 -17.098 -23.283  0.00  0.00    +0.387 N 
ATOM     21  N   UNL     1      34.782 -14.248 -23.748  0.00  0.00    +0.384 N 
ATOM     22  C   UNL     1      35.479 -16.140 -22.319  0.00  0.00    -0.100 C 
ATOM     23  C   UNL     1      34.969 -16.543 -24.642  0.00  0.00    -0.100 C 
ATOM     24  C   UNL     1      34.737 -14.801 -22.389  0.00  0.00    -0.101 C 
ATOM     25  C   UNL     1      34.225 -15.205 -24.710  0.00  0.00    -0.101 C 
ATOM     26  H   UNL     1      33.948 -17.270 -23.039  0.00  0.00    -0.079 HD
ATOM     27  H   UNL     1      35.758 -14.077 -23.993  0.00  0.00    -0.080 HD
BRANCH  21  28
ATOM     28  C   UNL     1      34.071 -12.972 -23.813  0.00  0.00    -0.078 C 
ATOM     29  C   UNL     1      33.209 -12.761 -22.581  0.00  0.00    -0.025 C 
ENDBRANCH  21  28
ENDBRANCH  19  20
ENDBRANCH  13  19
ENDBRANCH   5  16
BRANCH   2  30
ATOM     30  C   UNL     1      35.391 -24.705 -14.017  0.00  0.00    +0.093 C 
ATOM     31  C   UNL     1      34.899 -23.924 -12.801  0.00  0.00    +0.026 C 
BRANCH  30  32
ATOM     32  C   UNL     1      36.831 -25.155 -13.892  0.00  0.00    -0.005 C 
ATOM     33  C   UNL     1      37.316 -26.116 -14.762  0.00  0.00    -0.003 C 
ATOM     34  C   UNL     1      37.631 -24.597 -12.909  0.00  0.00    -0.003 C 
ATOM     35  C   UNL     1      38.642 -26.531 -14.647  0.00  0.00    -0.000 C 
ATOM     36  C   UNL     1      38.957 -25.013 -12.794  0.00  0.00    -0.000 C 
ATOM     37  C   UNL     1      39.463 -25.980 -13.662  0.00  0.00    -0.000 C 
ENDBRANCH  30  32
ENDBRANCH   2  30
TORSDOF 6
ENDMDL
MODEL 2
REMARK VINA RESULT:     -12.2      3.248     12.872
REMARK  Name = 10297043
REMARK  6 active torsions:
REMARK  status: ('A' for Active; 'I' for Inactive)
REMARK    1  A    between atoms: N_2  and  C_30
REMARK    2  A    between atoms: C_5  and  C_16
REMARK    3  A    between atoms: C_13  and  C_19
REMARK    4  A    between atoms: C_19  and  N_20
REMARK    5  A    between atoms: N_21  and  C_28
REMARK    6  A    between atoms: C_30  and  C_32
REMARK                            x       y       z     vdW  Elec       q    Type
REMARK                         _______ _______ _______ _____ _____    ______ ____
ROOT
ATOM      1  N   UNL     1      34.028 -15.546 -25.024  0.00  0.00    -0.301 N 
ATOM      2  N   UNL     1      34.526 -11.029 -23.967  0.00  0.00    -0.319 N 
ATOM      3  N   UNL     1      33.167 -13.996 -26.658  0.00  0.00    -0.233 NA
ATOM      4  N   UNL     1      33.475 -11.668 -26.014  0.00  0.00    -0.233 NA
ATOM      5  C   UNL     1      34.656 -15.464 -23.807  0.00  0.00    +0.046 C 
ATOM      6  C   UNL     1      34.247 -13.375 -24.556  0.00  0.00    +0.131 C 
ATOM      7  C   UNL     1      34.805 -14.130 -23.492  0.00  0.00    +0.003 C 
ATOM      8  C   UNL     1      33.772 -14.284 -25.493  0.00  0.00    +0.117 C 
ATOM      9  C   UNL     1      34.077 -12.024 -24.855  0.00  0.00    +0.113 C 
ATOM     10  C   UNL     1      33.062 -12.662 -26.832  0.00  0.00    +0.252 C 
ATOM     11  H   UNL     1      33.797 -16.382 -25.488  0.00  0.00    +0.153 HD
ATOM     12  H   UNL     1      34.961 -11.309 -23.130  0.00  0.00    +0.148 HD
ENDROOT
BRANCH   5  16
ATOM     13  C   UNL     1      35.801 -18.904 -21.644  0.00  0.00    -0.043 C 
ATOM     14  C   UNL     1      35.770 -17.669 -21.006  0.00  0.00    -0.006 C 
ATOM     15  C   UNL     1      35.460 -19.019 -22.986  0.00  0.00    -0.006 C 
ATOM     16  C   UNL     1      35.046 -16.640 -23.069  0.00  0.00    +0.013 C 
ATOM     17  C   UNL     1      35.390 -16.533 -21.722  0.00  0.00    +0.001 C 
ATOM     18  C   UNL     1      35.081 -17.882 -23.701  0.00  0.00    +0.001 C 
BRANCH  13  19
ATOM     19  C   UNL     1      36.209 -20.128 -20.875  0.00  0.00    -0.050 C 
BRANCH  19  20
ATOM     20  N   UNL     1      35.259 -20.446 -19.812  0.00  0.00    +0.387 N 
ATOM     21  N   UNL     1      33.288 -22.138 -18.543  0.00  0.00    +0.384 N 
ATOM     22  C   UNL     1      33.897 -20.566 -20.349  0.00  0.00    -0.100 C 
ATOM     23  C   UNL     1      35.647 -21.681 -19.118  0.00  0.00    -0.100 C 
ATOM     24  C   UNL     1      32.899 -20.904 -19.237  0.00  0.00    -0.101 C 
ATOM     25  C   UNL     1      34.648 -22.017 -18.005  0.00  0.00    -0.101 C 
ATOM     26  H   UNL     1      35.272 -19.680 -19.138  0.00  0.00    -0.079 HD
ATOM     27  H   UNL     1      33.276 -22.904 -19.217  0.00  0.00    -0.080 HD
BRANCH  21  28
ATOM     28  C   UNL     1      32.336 -22.459 -17.481  0.00  0.00    -0.078 C 
ATOM     29  C   UNL     1      33.019 -23.178 -16.330  0.00  0.00    -0.025 C 
ENDBRANCH  21  28
ENDBRANCH  19  20
ENDBRANCH  13  19
ENDBRANCH   5  16
BRANCH   2  30
ATOM     30  C   UNL     1      34.377  -9.628 -24.224  0.00  0.00    +0.093 C 
ATOM     31  C   UNL     1      35.753  -9.015 -24.473  0.00  0.00    +0.026 C 
BRANCH  30  32
ATOM     32  C   UNL     1      33.626  -8.963 -23.091  0.00  0.00    -0.005 C 
ATOM     33  C   UNL     1      33.962  -7.671 -22.724  0.00  0.00    -0.003 C 
ATOM     34  C   UNL     1      32.621  -9.661 -22.445  0.00  0.00    -0.003 C 
ATOM     35  C   UNL     1      33.272  -7.058 -21.680  0.00  0.00    -0.000 C 
ATOM     36  C   UNL     1      31.930  -9.048 -21.400  0.00  0.00    -0.000 C 
ATOM     37  C   UNL     1      32.255  -7.747 -21.017  0.00  0.00    -0.000 C 
ENDBRANCH  30  32
ENDBRANCH   2  30
TORSDOF 6
ENDMDL
MODEL 3
REMARK VINA RESULT:     -11.4      5.000      9.712
REMARK  Name = 10297043
REMARK  6 active torsions:
REMARK  status: ('A' for Active; 'I' for Inactive)
REMARK    1  A    between atoms: N_2  and  C_30
REMARK    2  A    between atoms: C_5  and  C_16
REMARK    3  A    between atoms: C_13  and  C_19
REMARK    4  A    between atoms: C_19  and  N_20
REMARK    5  A    between atoms: N_21  and  C_28
REMARK    6  A    between atoms: C_30  and  C_32
REMARK                            x       y       z     vdW  Elec       q    Type
REMARK                         _______ _______ _______ _____ _____    ______ ____
ROOT
ATOM      1  N   UNL     1      33.729 -14.350 -24.282  0.00  0.00    -0.301 N 
ATOM      2  N   UNL     1      36.117 -17.191 -21.456  0.00  0.00    -0.319 N 
ATOM      3  N   UNL     1      34.346 -16.479 -25.230  0.00  0.00    -0.233 NA
ATOM      4  N   UNL     1      35.587 -17.886 -23.677  0.00  0.00    -0.233 NA
ATOM      5  C   UNL     1      33.894 -13.708 -23.081  0.00  0.00    +0.046 C 
ATOM      6  C   UNL     1      34.873 -15.738 -22.962  0.00  0.00    +0.131 C 
ATOM      7  C   UNL     1      34.599 -14.546 -22.243  0.00  0.00    +0.003 C 
ATOM      8  C   UNL     1      34.319 -15.585 -24.227  0.00  0.00    +0.117 C 
ATOM      9  C   UNL     1      35.525 -16.944 -22.707  0.00  0.00    +0.113 C 
ATOM     10  C   UNL     1      35.002 -17.599 -24.863  0.00  0.00    +0.252 C 
ATOM     11  H   UNL     1      33.260 -13.979 -25.064  0.00  0.00    +0.153 HD
ATOM     12  H   UNL     1      36.061 -16.493 -20.764  0.00  0.00    +0.148 HD
ENDROOT
BRANCH   5  16
ATOM     13  C   UNL     1      32.382  -9.828 -22.391  0.00  0.00    -0.043 C 
ATOM     14  C   UNL     1      31.941 -10.887 -21.606  0.00  0.00    -0.006 C 
ATOM     15  C   UNL     1      33.314 -10.032 -23.400  0.00  0.00    -0.006 C 
ATOM     16  C   UNL     1      33.378 -12.383 -22.845  0.00  0.00    +0.013 C 
ATOM     17  C   UNL     1      32.441 -12.169 -21.834  0.00  0.00    +0.001 C 
ATOM     18  C   UNL     1      33.814 -11.314 -23.628  0.00  0.00    +0.001 C 
BRANCH  13  19
ATOM     19  C   UNL     1      31.843  -8.447 -22.146  0.00  0.00    -0.050 C 
BRANCH  19  20
ATOM     20  N   UNL     1      32.373  -7.477 -23.101  0.00  0.00    +0.387 N 
ATOM     21  N   UNL     1      32.878  -4.784 -24.023  0.00  0.00    +0.384 N 
ATOM     22  C   UNL     1      31.294  -6.644 -23.649  0.00  0.00    -0.100 C 
ATOM     23  C   UNL     1      33.402  -6.637 -22.476  0.00  0.00    -0.100 C 
ATOM     24  C   UNL     1      31.848  -5.622 -24.648  0.00  0.00    -0.101 C 
ATOM     25  C   UNL     1      33.955  -5.617 -23.477  0.00  0.00    -0.101 C 
ATOM     26  H   UNL     1      32.802  -7.993 -23.869  0.00  0.00    -0.079 HD
ATOM     27  H   UNL     1      32.449  -4.268 -23.254  0.00  0.00    -0.080 HD
BRANCH  21  28
ATOM     28  C   UNL     1      33.406  -3.811 -24.977  0.00  0.00    -0.078 C 
ATOM     29  C   UNL     1      34.526  -4.412 -25.810  0.00  0.00    -0.025 C 
ENDBRANCH  21  28
ENDBRANCH  19  20
ENDBRANCH  13  19
ENDBRANCH   5  16
BRANCH   2  30
ATOM     30  C   UNL     1      36.799 -18.410 -21.142  0.00  0.00    +0.093 C 
ATOM     31  C   UNL     1      37.570 -18.885 -22.371  0.00  0.00    +0.026 C 
BRANCH  30  32
ATOM     32  C   UNL     1      35.820 -19.440 -20.621  0.00  0.00    -0.005 C 
ATOM     33  C   UNL     1      36.299 -20.528 -19.910  0.00  0.00    -0.003 C 
ATOM     34  C   UNL     1      34.469 -19.273 -20.866  0.00  0.00    -0.003 C 
ATOM     35  C   UNL     1      35.397 -21.477 -19.430  0.00  0.00    -0.000 C 
ATOM     36  C   UNL     1      33.567 -20.223 -20.386  0.00  0.00    -0.000 C 
ATOM     37  C   UNL     1      34.031 -21.325 -19.668  0.00  0.00    -0.000 C 
ENDBRANCH  30  32
ENDBRANCH   2  30
TORSDOF 6
ENDMDL
MODEL 4
REMARK VINA RESULT:     -11.3      2.664     12.294
REMARK  Name = 10297043
REMARK  6 active torsions:
REMARK  status: ('A' for Active; 'I' for Inactive)
REMARK    1  A    between atoms: N_2  and  C_30
REMARK    2  A    between atoms: C_5  and  C_16
REMARK    3  A    between atoms: C_13  and  C_19
REMARK    4  A    between atoms: C_19  and  N_20
REMARK    5  A    between atoms: N_21  and  C_28
REMARK    6  A    between atoms: C_30  and  C_32
REMARK                            x       y       z     vdW  Elec       q    Type
REMARK                         _______ _______ _______ _____ _____    ______ ____
ROOT
ATOM      1  N   UNL     1      34.369 -16.854 -24.313  0.00  0.00    -0.301 N 
ATOM      2  N   UNL     1      34.184 -12.256 -23.548  0.00  0.00    -0.319 N 
ATOM      3  N   UNL     1      33.350 -15.550 -26.066  0.00  0.00    -0.233 NA
ATOM      4  N   UNL     1      33.303 -13.166 -25.571  0.00  0.00    -0.233 NA
ATOM      5  C   UNL     1      34.938 -16.608 -23.091  0.00  0.00    +0.046 C 
ATOM      6  C   UNL     1      34.261 -14.650 -23.985  0.00  0.00    +0.131 C 
ATOM      7  C   UNL     1      34.885 -15.249 -22.861  0.00  0.00    +0.003 C 
ATOM      8  C   UNL     1      33.951 -15.675 -24.871  0.00  0.00    +0.117 C 
ATOM      9  C   UNL     1      33.911 -13.358 -24.377  0.00  0.00    +0.113 C 
ATOM     10  C   UNL     1      33.062 -14.259 -26.331  0.00  0.00    +0.252 C 
ATOM     11  H   UNL     1      34.275 -17.743 -24.727  0.00  0.00    +0.153 HD
ATOM     12  H   UNL     1      34.627 -12.417 -22.683  0.00  0.00    +0.148 HD
ENDROOT
BRANCH   5  16
ATOM     13  C   UNL     1      36.488 -19.706 -20.677  0.00  0.00    -0.043 C 
ATOM     14  C   UNL     1      35.147 -19.724 -21.043  0.00  0.00    -0.006 C 
ATOM     15  C   UNL     1      37.324 -18.679 -21.097  0.00  0.00    -0.006 C 
ATOM     16  C   UNL     1      35.468 -17.666 -22.267  0.00  0.00    +0.013 C 
ATOM     17  C   UNL     1      34.635 -18.701 -21.842  0.00  0.00    +0.001 C 
ATOM     18  C   UNL     1      36.812 -17.655 -21.895  0.00  0.00    +0.001 C 
BRANCH  13  19
ATOM     19  C   UNL     1      37.039 -20.808 -19.818  0.00  0.00    -0.050 C 
BRANCH  19  20
ATOM     20  N   UNL     1      36.182 -21.082 -18.667  0.00  0.00    +0.387 N 
ATOM     21  N   UNL     1      35.018 -22.834 -16.683  0.00  0.00    +0.384 N 
ATOM     22  C   UNL     1      35.125 -22.039 -19.020  0.00  0.00    -0.100 C 
ATOM     23  C   UNL     1      36.972 -21.585 -17.536  0.00  0.00    -0.100 C 
ATOM     24  C   UNL     1      34.227 -22.332 -17.814  0.00  0.00    -0.101 C 
ATOM     25  C   UNL     1      36.073 -21.877 -16.330  0.00  0.00    -0.101 C 
ATOM     26  H   UNL     1      35.740 -20.206 -18.387  0.00  0.00    -0.079 HD
ATOM     27  H   UNL     1      35.460 -23.710 -16.964  0.00  0.00    -0.080 HD
BRANCH  21  28
ATOM     28  C   UNL     1      34.161 -23.111 -15.532  0.00  0.00    -0.078 C 
ATOM     29  C   UNL     1      32.692 -23.049 -15.914  0.00  0.00    -0.025 C 
ENDBRANCH  21  28
ENDBRANCH  19  20
ENDBRANCH  13  19
ENDBRANCH   5  16
BRANCH   2  30
ATOM     30  C   UNL     1      33.846 -10.910 -23.901  0.00  0.00    +0.093 C 
ATOM     31  C   UNL     1      35.117 -10.161 -24.294  0.00  0.00    +0.026 C 
BRANCH  30  32
ATOM     32  C   UNL     1      33.090 -10.245 -22.771  0.00  0.00    -0.005 C 
ATOM     33  C   UNL     1      32.366 -11.030 -21.889  0.00  0.00    -0.003 C 
ATOM     34  C   UNL     1      33.137  -8.868 -22.643  0.00  0.00    -0.003 C 
ATOM     35  C   UNL     1      31.669 -10.418 -20.848  0.00  0.00    -0.000 C 
ATOM     36  C   UNL     1      32.439  -8.256 -21.602  0.00  0.00    -0.000 C 
ATOM     37  C   UNL     1      31.705  -9.030 -20.705  0.00  0.00    -0.000 C 
ENDBRANCH  30  32
ENDBRANCH   2  30
TORSDOF 6
ENDMDL
MODEL 5
REMARK VINA RESULT:     -11.0      2.001      4.164
REMARK  Name = 10297043
REMARK  6 active torsions:
REMARK  status: ('A' for Active; 'I' for Inactive)
REMARK    1  A    between atoms: N_2  and  C_30
REMARK    2  A    between atoms: C_5  and  C_16
REMARK    3  A    between atoms: C_13  and  C_19
REMARK    4  A    between atoms: C_19  and  N_20
REMARK    5  A    between atoms: N_21  and  C_28
REMARK    6  A    between atoms: C_30  and  C_32
REMARK                            x       y       z     vdW  Elec       q    Type
REMARK                         _______ _______ _______ _____ _____    ______ ____
ROOT
ATOM      1  N   UNL     1      37.137 -20.868 -18.694  0.00  0.00    -0.301 N 
ATOM      2  N   UNL     1      33.977 -23.017 -16.018  0.00  0.00    -0.319 N 
ATOM      3  N   UNL     1      38.013 -21.986 -16.745  0.00  0.00    -0.233 NA
ATOM      4  N   UNL     1      36.287 -23.075 -15.418  0.00  0.00    -0.233 NA
ATOM      5  C   UNL     1      35.904 -20.679 -19.263  0.00  0.00    +0.046 C 
ATOM      6  C   UNL     1      35.657 -21.909 -17.387  0.00  0.00    +0.131 C 
ATOM      7  C   UNL     1      34.967 -21.313 -18.475  0.00  0.00    +0.003 C 
ATOM      8  C   UNL     1      37.005 -21.613 -17.552  0.00  0.00    +0.117 C 
ATOM      9  C   UNL     1      35.316 -22.668 -16.269  0.00  0.00    +0.113 C 
ATOM     10  C   UNL     1      37.558 -22.712 -15.704  0.00  0.00    +0.252 C 
ATOM     11  H   UNL     1      37.986 -20.521 -19.050  0.00  0.00    +0.153 HD
ATOM     12  H   UNL     1      33.285 -22.712 -16.649  0.00  0.00    +0.148 HD
ENDROOT
BRANCH   5  16
ATOM     13  C   UNL     1      35.401 -18.469 -22.825  0.00  0.00    -0.043 C 
ATOM     14  C   UNL     1      36.661 -18.562 -22.246  0.00  0.00    -0.006 C 
ATOM     15  C   UNL     1      34.304 -19.094 -22.244  0.00  0.00    -0.006 C 
ATOM     16  C   UNL     1      35.732 -19.924 -20.480  0.00  0.00    +0.013 C 
ATOM     17  C   UNL     1      36.827 -19.294 -21.070  0.00  0.00    +0.001 C 
ATOM     18  C   UNL     1      34.471 -19.825 -21.067  0.00  0.00    +0.001 C 
BRANCH  13  19
ATOM     19  C   UNL     1      35.222 -17.682 -24.091  0.00  0.00    -0.050 C 
BRANCH  19  20
ATOM     20  N   UNL     1      34.575 -16.394 -23.848  0.00  0.00    +0.387 N 
ATOM     21  N   UNL     1      34.516 -13.504 -23.836  0.00  0.00    +0.384 N 
ATOM     22  C   UNL     1      35.317 -15.621 -22.843  0.00  0.00    -0.100 C 
ATOM     23  C   UNL     1      34.448 -15.629 -25.094  0.00  0.00    -0.100 C 
ATOM     24  C   UNL     1      34.642 -14.268 -22.589  0.00  0.00    -0.101 C 
ATOM     25  C   UNL     1      33.773 -14.278 -24.838  0.00  0.00    -0.101 C 
ATOM     26  H   UNL     1      33.638 -16.576 -23.485  0.00  0.00    -0.079 HD
ATOM     27  H   UNL     1      35.452 -13.323 -24.199  0.00  0.00    -0.080 HD
BRANCH  21  28
ATOM     28  C   UNL     1      33.871 -12.215 -23.592  0.00  0.00    -0.078 C 
ATOM     29  C   UNL     1      34.248 -11.202 -24.659  0.00  0.00    -0.025 C 
ENDBRANCH  21  28
ENDBRANCH  19  20
ENDBRANCH  13  19
ENDBRANCH   5  16
BRANCH   2  30
ATOM     30  C   UNL     1      33.571 -23.795 -14.886  0.00  0.00    +0.093 C 
ATOM     31  C   UNL     1      34.354 -25.106 -14.872  0.00  0.00    +0.026 C 
BRANCH  30  32
ATOM     32  C   UNL     1      32.072 -23.998 -14.898  0.00  0.00    -0.005 C 
ATOM     33  C   UNL     1      31.285 -23.174 -15.685  0.00  0.00    -0.003 C 
ATOM     34  C   UNL     1      31.518 -25.002 -14.123  0.00  0.00    -0.003 C 
ATOM     35  C   UNL     1      29.903 -23.360 -15.697  0.00  0.00    -0.000 C 
ATOM     36  C   UNL     1      30.137 -25.188 -14.134  0.00  0.00    -0.000 C 
ATOM     37  C   UNL     1      29.329 -24.367 -14.921  0.00  0.00    -0.000 C 
ENDBRANCH  30  32
ENDBRANCH   2  30
TORSDOF 6
ENDMDL
MODEL 6
REMARK VINA RESULT:     -10.3      4.770     13.897
REMARK  Name = 10297043
REMARK  6 active torsions:
REMARK  status: ('A' for Active; 'I' for Inactive)
REMARK    1  A    between atoms: N_2  and  C_30
REMARK    2  A    between atoms: C_5  and  C_16
REMARK    3  A    between atoms: C_13  and  C_19
REMARK    4  A    between atoms: C_19  and  N_20
REMARK    5  A    between atoms: N_21  and  C_28
REMARK    6  A    between atoms: C_30  and  C_32
REMARK                            x       y       z     vdW  Elec       q    Type
REMARK                         _______ _______ _______ _____ _____    ______ ____
ROOT
ATOM      1  N   UNL     1      32.781 -12.663 -21.160  0.00  0.00    -0.301 N 
ATOM      2  N   UNL     1      32.611  -8.404 -23.058  0.00  0.00    -0.319 N 
ATOM      3  N   UNL     1      31.776 -10.954 -19.788  0.00  0.00    -0.233 NA
ATOM      4  N   UNL     1      31.736  -8.771 -20.867  0.00  0.00    -0.233 NA
ATOM      5  C   UNL     1      33.345 -12.735 -22.408  0.00  0.00    +0.046 C 
ATOM      6  C   UNL     1      32.680 -10.611 -22.032  0.00  0.00    +0.131 C 
ATOM      7  C   UNL     1      33.296 -11.477 -22.972  0.00  0.00    +0.003 C 
ATOM      8  C   UNL     1      32.372 -11.379 -20.916  0.00  0.00    +0.117 C 
ATOM      9  C   UNL     1      32.338  -9.261 -21.976  0.00  0.00    +0.113 C 
ATOM     10  C   UNL     1      31.496  -9.636 -19.855  0.00  0.00    +0.252 C 
ATOM     11  H   UNL     1      32.685 -13.418 -20.536  0.00  0.00    +0.153 HD
ATOM     12  H   UNL     1      33.050  -8.780 -23.855  0.00  0.00    +0.148 HD
ENDROOT
BRANCH   5  16
ATOM     13  C   UNL     1      34.888 -16.345 -23.961  0.00  0.00    -0.043 C 
ATOM     14  C   UNL     1      35.227 -15.950 -22.671  0.00  0.00    -0.006 C 
ATOM     15  C   UNL     1      34.048 -15.563 -24.745  0.00  0.00    -0.006 C 
ATOM     16  C   UNL     1      33.872 -13.968 -22.939  0.00  0.00    +0.013 C 
ATOM     17  C   UNL     1      34.716 -14.758 -22.159  0.00  0.00    +0.001 C 
ATOM     18  C   UNL     1      33.537 -14.371 -24.231  0.00  0.00    +0.001 C 
BRANCH  13  19
ATOM     19  C   UNL     1      35.438 -17.628 -24.514  0.00  0.00    -0.050 C 
BRANCH  19  20
ATOM     20  N   UNL     1      35.762 -18.583 -23.456  0.00  0.00    +0.387 N 
ATOM     21  N   UNL     1      36.019 -19.368 -20.686  0.00  0.00    +0.384 N 
ATOM     22  C   UNL     1      36.861 -18.082 -22.621  0.00  0.00    -0.100 C 
ATOM     23  C   UNL     1      34.581 -18.871 -22.633  0.00  0.00    -0.100 C 
ATOM     24  C   UNL     1      37.200 -19.080 -21.509  0.00  0.00    -0.101 C 
ATOM     25  C   UNL     1      34.922 -19.870 -21.521  0.00  0.00    -0.101 C 
ATOM     26  H   UNL     1      36.065 -19.452 -23.899  0.00  0.00    -0.079 HD
ATOM     27  H   UNL     1      35.715 -18.499 -20.245  0.00  0.00    -0.080 HD
BRANCH  21  28
ATOM     28  C   UNL     1      36.343 -20.321 -19.627  0.00  0.00    -0.078 C 
ATOM     29  C   UNL     1      35.226 -21.333 -19.437  0.00  0.00    -0.025 C 
ENDBRANCH  21  28
ENDBRANCH  19  20
ENDBRANCH  13  19
ENDBRANCH   5  16
BRANCH   2  30
ATOM     30  C   UNL     1      32.282  -7.011 -23.053  0.00  0.00    +0.093 C 
ATOM     31  C   UNL     1      30.815  -6.841 -23.440  0.00  0.00    +0.026 C 
BRANCH  30  32
ATOM     32  C   UNL     1      33.227  -6.245 -23.954  0.00  0.00    -0.005 C 
ATOM     33  C   UNL     1      34.563  -6.605 -23.993  0.00  0.00    -0.003 C 
ATOM     34  C   UNL     1      32.735  -5.202 -24.719  0.00  0.00    -0.003 C 
ATOM     35  C   UNL     1      35.434  -5.900 -24.823  0.00  0.00    -0.000 C 
ATOM     36  C   UNL     1      33.606  -4.497 -25.549  0.00  0.00    -0.000 C 
ATOM     37  C   UNL     1      34.955  -4.845 -25.601  0.00  0.00    -0.000 C 
ENDBRANCH  30  32
ENDBRANCH   2  30
TORSDOF 6
ENDMDL
MODEL 7
REMARK VINA RESULT:     -10.2      5.694     15.598
REMARK  Name = 10297043
REMARK  6 active torsions:
REMARK  status: ('A' for Active; 'I' for Inactive)
REMARK    1  A    between atoms: N_2  and  C_30
REMARK    2  A    between atoms: C_5  and  C_16
REMARK    3  A    between atoms: C_13  and  C_19
REMARK    4  A    between atoms: C_19  and  N_20
REMARK    5  A    between atoms: N_21  and  C_28
REMARK    6  A    between atoms: C_30  and  C_32
REMARK                            x       y       z     vdW  Elec       q    Type
REMARK                         _______ _______ _______ _____ _____    ______ ____
ROOT
ATOM      1  N   UNL     1      32.721 -10.220 -21.821  0.00  0.00    -0.301 N 
ATOM      2  N   UNL     1      33.211  -6.183 -24.107  0.00  0.00    -0.319 N 
ATOM      3  N   UNL     1      32.009  -8.253 -20.621  0.00  0.00    -0.233 NA
ATOM      4  N   UNL     1      32.305  -6.202 -21.898  0.00  0.00    -0.233 NA
ATOM      5  C   UNL     1      33.257 -10.496 -23.052  0.00  0.00    +0.046 C 
ATOM      6  C   UNL     1      32.939  -8.268 -22.880  0.00  0.00    +0.131 C 
ATOM      7  C   UNL     1      33.403  -9.304 -23.731  0.00  0.00    +0.003 C 
ATOM      8  C   UNL     1      32.521  -8.870 -21.700  0.00  0.00    +0.117 C 
ATOM      9  C   UNL     1      32.815  -6.881 -22.953  0.00  0.00    +0.113 C 
ATOM     10  C   UNL     1      31.940  -6.920 -20.812  0.00  0.00    +0.252 C 
ATOM     11  H   UNL     1      32.511 -10.889 -21.130  0.00  0.00    +0.153 HD
ATOM     12  H   UNL     1      33.579  -6.696 -24.863  0.00  0.00    +0.148 HD
ENDROOT
BRANCH   5  16
ATOM     13  C   UNL     1      34.199 -14.432 -24.251  0.00  0.00    -0.043 C 
ATOM     14  C   UNL     1      33.858 -14.180 -22.927  0.00  0.00    -0.006 C 
ATOM     15  C   UNL     1      34.234 -13.403 -25.184  0.00  0.00    -0.006 C 
ATOM     16  C   UNL     1      33.579 -11.840 -23.462  0.00  0.00    +0.013 C 
ATOM     17  C   UNL     1      33.546 -12.879 -22.532  0.00  0.00    +0.001 C 
ATOM     18  C   UNL     1      33.922 -12.103 -24.788  0.00  0.00    +0.001 C 
BRANCH  13  19
ATOM     19  C   UNL     1      34.535 -15.833 -24.678  0.00  0.00    -0.050 C 
BRANCH  19  20
ATOM     20  N   UNL     1      34.544 -16.760 -23.548  0.00  0.00    +0.387 N 
ATOM     21  N   UNL     1      35.682 -18.920 -22.000  0.00  0.00    +0.384 N 
ATOM     22  C   UNL     1      34.477 -18.151 -24.015  0.00  0.00    -0.100 C 
ATOM     23  C   UNL     1      35.735 -16.555 -22.715  0.00  0.00    -0.100 C 
ATOM     24  C   UNL     1      34.491 -19.125 -22.833  0.00  0.00    -0.101 C 
ATOM     25  C   UNL     1      35.747 -17.530 -21.532  0.00  0.00    -0.101 C 
ATOM     26  H   UNL     1      33.718 -16.572 -22.980  0.00  0.00    -0.079 HD
ATOM     27  H   UNL     1      36.509 -19.106 -22.569  0.00  0.00    -0.080 HD
BRANCH  21  28
ATOM     28  C   UNL     1      35.693 -19.848 -20.871  0.00  0.00    -0.078 C 
ATOM     29  C   UNL     1      34.284 -20.138 -20.385  0.00  0.00    -0.025 C 
ENDBRANCH  21  28
ENDBRANCH  19  20
ENDBRANCH  13  19
ENDBRANCH   5  16
BRANCH   2  30
ATOM     30  C   UNL     1      33.106  -4.760 -24.234  0.00  0.00    +0.093 C 
ATOM     31  C   UNL     1      31.649  -4.387 -24.495  0.00  0.00    +0.026 C 
BRANCH  30  32
ATOM     32  C   UNL     1      34.049  -4.258 -25.306  0.00  0.00    -0.005 C 
ATOM     33  C   UNL     1      35.083  -5.074 -25.732  0.00  0.00    -0.003 C 
ATOM     34  C   UNL     1      33.858  -2.994 -25.837  0.00  0.00    -0.003 C 
ATOM     35  C   UNL     1      35.953  -4.612 -26.719  0.00  0.00    -0.000 C 
ATOM     36  C   UNL     1      34.728  -2.532 -26.824  0.00  0.00    -0.000 C 
ATOM     37  C   UNL     1      35.775  -3.340 -27.265  0.00  0.00    -0.000 C 
ENDBRANCH  30  32
ENDBRANCH   2  30
TORSDOF 6
ENDMDL
MODEL 8
REMARK VINA RESULT:     -10.2      4.942     14.732
REMARK  Name = 10297043
REMARK  6 active torsions:
REMARK  status: ('A' for Active; 'I' for Inactive)
REMARK    1  A    between atoms: N_2  and  C_30
REMARK    2  A    between atoms: C_5  and  C_16
REMARK    3  A    between atoms: C_13  and  C_19
REMARK    4  A    between atoms: C_19  and  N_20
REMARK    5  A    between atoms: N_21  and  C_28
REMARK    6  A    between atoms: C_30  and  C_32
REMARK                            x       y       z     vdW  Elec       q    Type
REMARK                         _______ _______ _______ _____ _____    ______ ____
ROOT
ATOM      1  N   UNL     1      32.631 -11.380 -21.157  0.00  0.00    -0.301 N 
ATOM      2  N   UNL     1      32.831  -7.457 -23.674  0.00  0.00    -0.319 N 
ATOM      3  N   UNL     1      31.644  -9.435 -20.129  0.00  0.00    -0.233 NA
ATOM      4  N   UNL     1      31.799  -7.443 -21.521  0.00  0.00    -0.233 NA
ATOM      5  C   UNL     1      33.268 -11.669 -22.336  0.00  0.00    +0.046 C 
ATOM      6  C   UNL     1      32.706  -9.483 -22.329  0.00  0.00    +0.131 C 
ATOM      7  C   UNL     1      33.328 -10.511 -23.083  0.00  0.00    +0.003 C 
ATOM      8  C   UNL     1      32.283 -10.055 -21.135  0.00  0.00    +0.117 C 
ATOM      9  C   UNL     1      32.441  -8.125 -22.499  0.00  0.00    +0.113 C 
ATOM     10  C   UNL     1      31.446  -8.131 -20.411  0.00  0.00    +0.252 C 
ATOM     11  H   UNL     1      32.451 -12.026 -20.436  0.00  0.00    +0.153 HD
ATOM     12  H   UNL     1      33.297  -7.971 -24.373  0.00  0.00    +0.148 HD
ENDROOT
BRANCH   5  16
ATOM     13  C   UNL     1      34.688 -15.544 -23.223  0.00  0.00    -0.043 C 
ATOM     14  C   UNL     1      34.054 -14.801 -24.212  0.00  0.00    -0.006 C 
ATOM     15  C   UNL     1      34.860 -15.025 -21.945  0.00  0.00    -0.006 C 
ATOM     16  C   UNL     1      33.753 -12.992 -22.639  0.00  0.00    +0.013 C 
ATOM     17  C   UNL     1      33.586 -13.520 -23.919  0.00  0.00    +0.001 C 
ATOM     18  C   UNL     1      34.391 -13.745 -21.652  0.00  0.00    +0.001 C 
BRANCH  13  19
ATOM     19  C   UNL     1      35.193 -16.923 -23.538  0.00  0.00    -0.050 C 
BRANCH  19  20
ATOM     20  N   UNL     1      35.402 -17.717 -22.330  0.00  0.00    +0.387 N 
ATOM     21  N   UNL     1      36.117 -20.149 -20.939  0.00  0.00    +0.384 N 
ATOM     22  C   UNL     1      34.499 -18.876 -22.306  0.00  0.00    -0.100 C 
ATOM     23  C   UNL     1      36.800 -18.154 -22.228  0.00  0.00    -0.100 C 
ATOM     24  C   UNL     1      34.719 -19.713 -21.041  0.00  0.00    -0.101 C 
ATOM     25  C   UNL     1      37.018 -18.991 -20.962  0.00  0.00    -0.101 C 
ATOM     26  H   UNL     1      35.189 -17.128 -21.525  0.00  0.00    -0.079 HD
ATOM     27  H   UNL     1      36.330 -20.738 -21.745  0.00  0.00    -0.080 HD
BRANCH  21  28
ATOM     28  C   UNL     1      36.326 -20.946 -19.732  0.00  0.00    -0.078 C 
ATOM     29  C   UNL     1      35.023 -21.557 -19.245  0.00  0.00    -0.025 C 
ENDBRANCH  21  28
ENDBRANCH  19  20
ENDBRANCH  13  19
ENDBRANCH   5  16
BRANCH   2  30
ATOM     30  C   UNL     1      32.585  -6.065 -23.900  0.00  0.00    +0.093 C 
ATOM     31  C   UNL     1      31.146  -5.882 -24.376  0.00  0.00    +0.026 C 
BRANCH  30  32
ATOM     32  C   UNL     1      33.606  -5.501 -24.863  0.00  0.00    -0.005 C 
ATOM     33  C   UNL     1      34.913  -5.953 -24.803  0.00  0.00    -0.003 C 
ATOM     34  C   UNL     1      33.212  -4.544 -25.783  0.00  0.00    -0.003 C 
ATOM     35  C   UNL     1      35.855  -5.433 -25.691  0.00  0.00    -0.000 C 
ATOM     36  C   UNL     1      34.154  -4.025 -26.670  0.00  0.00    -0.000 C 
ATOM     37  C   UNL     1      35.475  -4.468 -26.624  0.00  0.00    -0.000 C 
ENDBRANCH  30  32
ENDBRANCH   2  30
TORSDOF 6
ENDMDL
MODEL 9
REMARK VINA RESULT:      -9.7      4.079     13.714
REMARK  Name = 10297043
REMARK  6 active torsions:
REMARK  status: ('A' for Active; 'I' for Inactive)
REMARK    1  A    between atoms: N_2  and  C_30
REMARK    2  A    between atoms: C_5  and  C_16
REMARK    3  A    between atoms: C_13  and  C_19
REMARK    4  A    between atoms: C_19  and  N_20
REMARK    5  A    between atoms: N_21  and  C_28
REMARK    6  A    between atoms: C_30  and  C_32
REMARK                            x       y       z     vdW  Elec       q    Type
REMARK                         _______ _______ _______ _____ _____    ______ ____
ROOT
ATOM      1  N   UNL     1      32.437 -12.787 -21.816  0.00  0.00    -0.301 N 
ATOM      2  N   UNL     1      33.916  -8.704 -23.519  0.00  0.00    -0.319 N 
ATOM      3  N   UNL     1      30.892 -10.949 -21.596  0.00  0.00    -0.233 NA
ATOM      4  N   UNL     1      31.756  -8.867 -22.515  0.00  0.00    -0.233 NA
ATOM      5  C   UNL     1      33.695 -12.975 -22.328  0.00  0.00    +0.046 C 
ATOM      6  C   UNL     1      33.107 -10.816 -22.619  0.00  0.00    +0.131 C 
ATOM      7  C   UNL     1      34.135 -11.770 -22.833  0.00  0.00    +0.003 C 
ATOM      8  C   UNL     1      32.064 -11.480 -21.983  0.00  0.00    +0.117 C 
ATOM      9  C   UNL     1      32.917  -9.460 -22.880  0.00  0.00    +0.113 C 
ATOM     10  C   UNL     1      30.829  -9.637 -21.903  0.00  0.00    +0.252 C 
ATOM     11  H   UNL     1      31.886 -13.485 -21.392  0.00  0.00    +0.153 HD
ATOM     12  H   UNL     1      34.753  -9.154 -23.777  0.00  0.00    +0.148 HD
ENDROOT
BRANCH   5  16
ATOM     13  C   UNL     1      35.619 -16.731 -22.214  0.00  0.00    -0.043 C 
ATOM     14  C   UNL     1      35.249 -16.112 -21.026  0.00  0.00    -0.006 C 
ATOM     15  C   UNL     1      35.362 -16.128 -23.439  0.00  0.00    -0.006 C 
ATOM     16  C   UNL     1      34.352 -14.259 -22.290  0.00  0.00    +0.013 C 
ATOM     17  C   UNL     1      34.612 -14.871 -21.064  0.00  0.00    +0.001 C 
ATOM     18  C   UNL     1      34.726 -14.887 -23.477  0.00  0.00    +0.001 C 
BRANCH  13  19
ATOM     19  C   UNL     1      36.304 -18.067 -22.174  0.00  0.00    -0.050 C 
BRANCH  19  20
ATOM     20  N   UNL     1      35.879 -18.864 -21.025  0.00  0.00    +0.387 N 
ATOM     21  N   UNL     1      35.276 -21.367 -19.710  0.00  0.00    +0.384 N 
ATOM     22  C   UNL     1      34.654 -19.614 -21.336  0.00  0.00    -0.100 C 
ATOM     23  C   UNL     1      36.946 -19.779 -20.601  0.00  0.00    -0.100 C 
ATOM     24  C   UNL     1      34.209 -20.453 -20.134  0.00  0.00    -0.101 C 
ATOM     25  C   UNL     1      36.499 -20.617 -19.398  0.00  0.00    -0.101 C 
ATOM     26  H   UNL     1      35.678 -18.225 -20.256  0.00  0.00    -0.079 HD
ATOM     27  H   UNL     1      35.478 -22.005 -20.480  0.00  0.00    -0.080 HD
BRANCH  21  28
ATOM     28  C   UNL     1      34.851 -22.166 -18.563  0.00  0.00    -0.078 C 
ATOM     29  C   UNL     1      33.353 -22.047 -18.335  0.00  0.00    -0.025 C 
ENDBRANCH  21  28
ENDBRANCH  19  20
ENDBRANCH  13  19
ENDBRANCH   5  16
BRANCH   2  30
ATOM     30  C   UNL     1      33.773  -7.309 -23.811  0.00  0.00    +0.093 C 
ATOM     31  C   UNL     1      35.152  -6.709 -24.077  0.00  0.00    +0.026 C 
BRANCH  30  32
ATOM     32  C   UNL     1      33.028  -6.612 -22.694  0.00  0.00    -0.005 C 
ATOM     33  C   UNL     1      33.493  -6.730 -21.395  0.00  0.00    -0.003 C 
ATOM     34  C   UNL     1      31.897  -5.873 -22.993  0.00  0.00    -0.003 C 
ATOM     35  C   UNL     1      32.806  -6.089 -20.365  0.00  0.00    -0.000 C 
ATOM     36  C   UNL     1      31.210  -5.232 -21.963  0.00  0.00    -0.000 C 
ATOM     37  C   UNL     1      31.664  -5.340 -20.649  0.00  0.00    -0.000 C 
ENDBRANCH  30  32
ENDBRANCH   2  30
TORSDOF 6
ENDMDL
