MODEL 1
REMARK VINA RESULT:     -12.3      0.000      0.000
REMARK  Name = 11987860
REMARK  5 active torsions:
REMARK  status: ('A' for Active; 'I' for Inactive)
REMARK    1  A    between atoms: N_2  and  C_19
REMARK    2  A    between atoms: C_3  and  C_11
REMARK    3  A    between atoms: N_9  and  O_17
REMARK    4  A    between atoms: C_19  and  C_20
REMARK    5  A    between atoms: C_23  and  C_26
REMARK                            x       y       z     vdW  Elec       q    Type
REMARK                         _______ _______ _______ _____ _____    ______ ____
ROOT
ATOM      1  O   UNL     1      34.331 -22.404 -14.849  0.00  0.00    -0.272 OA
ATOM      2  N   UNL     1      34.699 -23.295 -16.968  0.00  0.00    -0.298 N 
ATOM      3  C   UNL     1      35.004 -23.061 -15.638  0.00  0.00    +0.253 C 
ATOM      4  H   UNL     1      35.321 -23.840 -17.502  0.00  0.00    +0.150 HD
ENDROOT
BRANCH   3  11
ATOM      5  O   UNL     1      35.753 -24.640 -13.179  0.00  0.00    -0.327 OA
ATOM      6  O   UNL     1      36.068 -25.130 -15.428  0.00  0.00    -0.320 OA
ATOM      7  O   UNL     1      40.673 -24.600 -13.730  0.00  0.00    -0.250 OA
ATOM      8  N   UNL     1      38.436 -25.219 -13.770  0.00  0.00    -0.255 N 
ATOM      9  N   UNL     1      40.134 -26.748 -14.316  0.00  0.00    -0.181 N 
ATOM     10  C   UNL     1      36.546 -23.582 -13.735  0.00  0.00    +0.174 C 
ATOM     11  C   UNL     1      36.275 -23.730 -15.222  0.00  0.00    +0.222 C 
ATOM     12  C   UNL     1      36.023 -25.693 -14.108  0.00  0.00    +0.256 C 
ATOM     13  C   UNL     1      38.002 -23.875 -13.358  0.00  0.00    +0.128 C 
ATOM     14  C   UNL     1      37.401 -26.272 -13.783  0.00  0.00    +0.156 C 
ATOM     15  C   UNL     1      39.813 -25.465 -13.924  0.00  0.00    +0.326 C 
ATOM     16  H   UNL     1      39.450 -27.438 -14.471  0.00  0.00    +0.184 HD
BRANCH   9  17
ATOM     17  O   UNL     1      41.505 -27.000 -14.477  0.00  0.00    -0.294 OA
ATOM     18  H   UNL     1      41.782 -26.727 -15.367  0.00  0.00    +0.241 HD
ENDBRANCH   9  17
ENDBRANCH   3  11
BRANCH   2  19
ATOM     19  C   UNL     1      33.511 -22.778 -17.608  0.00  0.00    +0.116 C 
BRANCH  19  20
ATOM     20  C   UNL     1      33.879 -21.794 -18.684  0.00  0.00    -0.003 C 
ATOM     21  C   UNL     1      32.880 -21.062 -19.315  0.00  0.00    -0.003 C 
ATOM     22  C   UNL     1      35.212 -21.628 -19.036  0.00  0.00    -0.003 C 
ATOM     23  C   UNL     1      34.557 -19.977 -20.672  0.00  0.00    -0.000 C 
ATOM     24  C   UNL     1      33.221 -20.150 -20.313  0.00  0.00    -0.000 C 
ATOM     25  C   UNL     1      35.553 -20.716 -20.034  0.00  0.00    -0.000 C 
BRANCH  23  26
ATOM     26  C   UNL     1      34.911 -19.029 -21.708  0.00  0.00    -0.000 C 
ATOM     27  C   UNL     1      34.640 -19.323 -23.044  0.00  0.00    -0.000 C 
ATOM     28  C   UNL     1      35.522 -17.823 -21.368  0.00  0.00    -0.000 C 
ATOM     29  C   UNL     1      34.980 -18.409 -24.042  0.00  0.00    +0.000 C 
ATOM     30  C   UNL     1      35.863 -16.909 -22.366  0.00  0.00    +0.000 C 
ATOM     31  C   UNL     1      35.593 -17.202 -23.703  0.00  0.00    +0.000 C 
ENDBRANCH  23  26
ENDBRANCH  19  20
ENDBRANCH   2  19
TORSDOF 5
ENDMDL
MODEL 2
REMARK VINA RESULT:     -11.8      8.662     13.131
REMARK  Name = 11987860
REMARK  5 active torsions:
REMARK  status: ('A' for Active; 'I' for Inactive)
REMARK    1  A    between atoms: N_2  and  C_19
REMARK    2  A    between atoms: C_3  and  C_11
REMARK    3  A    between atoms: N_9  and  O_17
REMARK    4  A    between atoms: C_19  and  C_20
REMARK    5  A    between atoms: C_23  and  C_26
REMARK                            x       y       z     vdW  Elec       q    Type
REMARK                         _______ _______ _______ _____ _____    ______ ____
ROOT
ATOM      1  O   UNL     1      33.149 -14.871 -26.119  0.00  0.00    -0.272 OA
ATOM      2  N   UNL     1      34.664 -15.026 -24.358  0.00  0.00    -0.298 N 
ATOM      3  C   UNL     1      33.648 -14.431 -25.087  0.00  0.00    +0.253 C 
ATOM      4  H   UNL     1      34.982 -14.574 -23.543  0.00  0.00    +0.150 HD
ENDROOT
BRANCH   3  11
ATOM      5  O   UNL     1      34.975 -12.475 -23.213  0.00  0.00    -0.327 OA
ATOM      6  O   UNL     1      33.809 -12.103 -25.187  0.00  0.00    -0.320 OA
ATOM      7  O   UNL     1      30.954  -9.974 -21.767  0.00  0.00    -0.250 OA
ATOM      8  N   UNL     1      32.886 -10.630 -22.875  0.00  0.00    -0.255 N 
ATOM      9  N   UNL     1      31.960  -8.495 -23.199  0.00  0.00    -0.181 N 
ATOM     10  C   UNL     1      33.655 -13.004 -23.029  0.00  0.00    +0.174 C 
ATOM     11  C   UNL     1      33.173 -13.158 -24.462  0.00  0.00    +0.222 C 
ATOM     12  C   UNL     1      34.741 -11.527 -24.260  0.00  0.00    +0.256 C 
ATOM     13  C   UNL     1      32.864 -11.956 -22.240  0.00  0.00    +0.128 C 
ATOM     14  C   UNL     1      34.102 -10.284 -23.641  0.00  0.00    +0.156 C 
ATOM     15  C   UNL     1      31.868  -9.712 -22.557  0.00  0.00    +0.326 C 
ATOM     16  H   UNL     1      32.687  -8.285 -23.828  0.00  0.00    +0.184 HD
BRANCH   9  17
ATOM     17  O   UNL     1      30.945  -7.576 -22.891  0.00  0.00    -0.294 OA
ATOM     18  H   UNL     1      30.084  -7.950 -23.137  0.00  0.00    +0.241 HD
ENDBRANCH   9  17
ENDBRANCH   3  11
BRANCH   2  19
ATOM     19  C   UNL     1      35.281 -16.276 -24.738  0.00  0.00    +0.116 C 
BRANCH  19  20
ATOM     20  C   UNL     1      35.152 -17.285 -23.631  0.00  0.00    -0.003 C 
ATOM     21  C   UNL     1      35.680 -16.999 -22.378  0.00  0.00    -0.003 C 
ATOM     22  C   UNL     1      34.508 -18.491 -23.874  0.00  0.00    -0.003 C 
ATOM     23  C   UNL     1      34.915 -19.148 -21.585  0.00  0.00    -0.000 C 
ATOM     24  C   UNL     1      35.561 -17.935 -21.351  0.00  0.00    -0.000 C 
ATOM     25  C   UNL     1      34.389 -19.426 -22.847  0.00  0.00    -0.000 C 
BRANCH  23  26
ATOM     26  C   UNL     1      34.790 -20.120 -20.520  0.00  0.00    -0.000 C 
ATOM     27  C   UNL     1      33.527 -20.496 -20.064  0.00  0.00    -0.000 C 
ATOM     28  C   UNL     1      35.933 -20.681 -19.950  0.00  0.00    -0.000 C 
ATOM     29  C   UNL     1      33.406 -21.433 -19.038  0.00  0.00    +0.000 C 
ATOM     30  C   UNL     1      35.813 -21.618 -18.924  0.00  0.00    +0.000 C 
ATOM     31  C   UNL     1      34.549 -21.994 -18.467  0.00  0.00    +0.000 C 
ENDBRANCH  23  26
ENDBRANCH  19  20
ENDBRANCH   2  19
TORSDOF 5
ENDMDL
MODEL 3
REMARK VINA RESULT:     -11.4      1.804      2.088
REMARK  Name = 11987860
REMARK  5 active torsions:
REMARK  status: ('A' for Active; 'I' for Inactive)
REMARK    1  A    between atoms: N_2  and  C_19
REMARK    2  A    between atoms: C_3  and  C_11
REMARK    3  A    between atoms: N_9  and  O_17
REMARK    4  A    between atoms: C_19  and  C_20
REMARK    5  A    between atoms: C_23  and  C_26
REMARK                            x       y       z     vdW  Elec       q    Type
REMARK                         _______ _______ _______ _____ _____    ______ ____
ROOT
ATOM      1  O   UNL     1      32.572 -22.916 -15.424  0.00  0.00    -0.272 OA
ATOM      2  N   UNL     1      34.262 -23.051 -17.019  0.00  0.00    -0.298 N 
ATOM      3  C   UNL     1      33.759 -22.994 -15.731  0.00  0.00    +0.253 C 
ATOM      4  H   UNL     1      35.238 -23.113 -17.138  0.00  0.00    +0.150 HD
ENDROOT
BRANCH   3  11
ATOM      5  O   UNL     1      34.810 -25.270 -14.054  0.00  0.00    -0.327 OA
ATOM      6  O   UNL     1      35.949 -23.701 -15.333  0.00  0.00    -0.320 OA
ATOM      7  O   UNL     1      37.352 -22.635 -10.720  0.00  0.00    -0.250 OA
ATOM      8  N   UNL     1      36.770 -23.915 -12.567  0.00  0.00    -0.255 N 
ATOM      9  N   UNL     1      39.020 -23.507 -12.027  0.00  0.00    -0.181 N 
ATOM     10  C   UNL     1      34.466 -23.976 -13.539  0.00  0.00    +0.174 C 
ATOM     11  C   UNL     1      34.837 -23.066 -14.697  0.00  0.00    +0.222 C 
ATOM     12  C   UNL     1      36.057 -24.981 -14.693  0.00  0.00    +0.256 C 
ATOM     13  C   UNL     1      35.334 -23.749 -12.297  0.00  0.00    +0.128 C 
ATOM     14  C   UNL     1      37.136 -24.893 -13.613  0.00  0.00    +0.156 C 
ATOM     15  C   UNL     1      37.695 -23.305 -11.700  0.00  0.00    +0.326 C 
ATOM     16  H   UNL     1      39.294 -24.041 -12.807  0.00  0.00    +0.184 HD
BRANCH   9  17
ATOM     17  O   UNL     1      39.948 -22.897 -11.170  0.00  0.00    -0.294 OA
ATOM     18  H   UNL     1      39.971 -21.942 -11.343  0.00  0.00    +0.241 HD
ENDBRANCH   9  17
ENDBRANCH   3  11
BRANCH   2  19
ATOM     19  C   UNL     1      33.425 -23.022 -18.197  0.00  0.00    +0.116 C 
BRANCH  19  20
ATOM     20  C   UNL     1      33.830 -21.894 -19.104  0.00  0.00    -0.003 C 
ATOM     21  C   UNL     1      32.851 -21.105 -19.696  0.00  0.00    -0.003 C 
ATOM     22  C   UNL     1      35.177 -21.654 -19.341  0.00  0.00    -0.003 C 
ATOM     23  C   UNL     1      34.577 -19.810 -20.781  0.00  0.00    -0.000 C 
ATOM     24  C   UNL     1      33.227 -20.059 -20.537  0.00  0.00    -0.000 C 
ATOM     25  C   UNL     1      35.552 -20.608 -20.183  0.00  0.00    -0.000 C 
BRANCH  23  26
ATOM     26  C   UNL     1      34.967 -18.723 -21.654  0.00  0.00    -0.000 C 
ATOM     27  C   UNL     1      34.919 -18.889 -23.038  0.00  0.00    -0.000 C 
ATOM     28  C   UNL     1      35.389 -17.510 -21.111  0.00  0.00    -0.000 C 
ATOM     29  C   UNL     1      35.295 -17.842 -23.880  0.00  0.00    +0.000 C 
ATOM     30  C   UNL     1      35.764 -16.463 -21.952  0.00  0.00    +0.000 C 
ATOM     31  C   UNL     1      35.718 -16.628 -23.337  0.00  0.00    +0.000 C 
ENDBRANCH  23  26
ENDBRANCH  19  20
ENDBRANCH   2  19
TORSDOF 5
ENDMDL
MODEL 4
REMARK VINA RESULT:     -11.1      3.870      6.261
REMARK  Name = 11987860
REMARK  5 active torsions:
REMARK  status: ('A' for Active; 'I' for Inactive)
REMARK    1  A    between atoms: N_2  and  C_19
REMARK    2  A    between atoms: C_3  and  C_11
REMARK    3  A    between atoms: N_9  and  O_17
REMARK    4  A    between atoms: C_19  and  C_20
REMARK    5  A    between atoms: C_23  and  C_26
REMARK                            x       y       z     vdW  Elec       q    Type
REMARK                         _______ _______ _______ _____ _____    ______ ____
ROOT
ATOM      1  O   UNL     1      34.675 -23.652 -16.240  0.00  0.00    -0.272 OA
ATOM      2  N   UNL     1      34.073 -22.255 -18.001  0.00  0.00    -0.298 N 
ATOM      3  C   UNL     1      33.828 -23.053 -16.897  0.00  0.00    +0.253 C 
ATOM      4  H   UNL     1      33.307 -21.824 -18.447  0.00  0.00    +0.150 HD
ENDROOT
BRANCH   3  11
ATOM      5  O   UNL     1      32.377 -23.952 -14.411  0.00  0.00    -0.327 OA
ATOM      6  O   UNL     1      32.150 -22.004 -15.656  0.00  0.00    -0.320 OA
ATOM      7  O   UNL     1      27.803 -24.260 -16.281  0.00  0.00    -0.250 OA
ATOM      8  N   UNL     1      29.722 -23.511 -15.209  0.00  0.00    -0.255 N 
ATOM      9  N   UNL     1      27.691 -22.343 -15.031  0.00  0.00    -0.181 N 
ATOM     10  C   UNL     1      32.018 -24.343 -15.743  0.00  0.00    +0.174 C 
ATOM     11  C   UNL     1      32.376 -23.102 -16.544  0.00  0.00    +0.222 C 
ATOM     12  C   UNL     1      31.881 -22.610 -14.382  0.00  0.00    +0.256 C 
ATOM     13  C   UNL     1      30.515 -24.635 -15.730  0.00  0.00    +0.128 C 
ATOM     14  C   UNL     1      30.366 -22.666 -14.184  0.00  0.00    +0.156 C 
ATOM     15  C   UNL     1      28.360 -23.429 -15.556  0.00  0.00    +0.326 C 
ATOM     16  H   UNL     1      28.133 -21.681 -14.454  0.00  0.00    +0.184 HD
BRANCH   9  17
ATOM     17  O   UNL     1      26.333 -22.251 -15.377  0.00  0.00    -0.294 OA
ATOM     18  H   UNL     1      25.790 -22.327 -14.576  0.00  0.00    +0.241 HD
ENDBRANCH   9  17
ENDBRANCH   3  11
BRANCH   2  19
ATOM     19  C   UNL     1      35.397 -22.025 -18.532  0.00  0.00    +0.116 C 
BRANCH  19  20
ATOM     20  C   UNL     1      35.365 -20.946 -19.579  0.00  0.00    -0.003 C 
ATOM     21  C   UNL     1      34.144 -20.525 -20.092  0.00  0.00    -0.003 C 
ATOM     22  C   UNL     1      36.555 -20.383 -20.020  0.00  0.00    -0.003 C 
ATOM     23  C   UNL     1      35.304 -18.953 -21.513  0.00  0.00    -0.000 C 
ATOM     24  C   UNL     1      34.115 -19.524 -21.063  0.00  0.00    -0.000 C 
ATOM     25  C   UNL     1      36.525 -19.382 -20.991  0.00  0.00    -0.000 C 
BRANCH  23  26
ATOM     26  C   UNL     1      35.274 -17.914 -22.520  0.00  0.00    -0.000 C 
ATOM     27  C   UNL     1      35.090 -18.248 -23.861  0.00  0.00    -0.000 C 
ATOM     28  C   UNL     1      35.428 -16.579 -22.148  0.00  0.00    -0.000 C 
ATOM     29  C   UNL     1      35.059 -17.247 -24.832  0.00  0.00    +0.000 C 
ATOM     30  C   UNL     1      35.398 -15.577 -23.118  0.00  0.00    +0.000 C 
ATOM     31  C   UNL     1      35.214 -15.911 -24.460  0.00  0.00    +0.000 C 
ENDBRANCH  23  26
ENDBRANCH  19  20
ENDBRANCH   2  19
TORSDOF 5
ENDMDL
MODEL 5
REMARK VINA RESULT:     -10.6     10.570     14.539
REMARK  Name = 11987860
REMARK  5 active torsions:
REMARK  status: ('A' for Active; 'I' for Inactive)
REMARK    1  A    between atoms: N_2  and  C_19
REMARK    2  A    between atoms: C_3  and  C_11
REMARK    3  A    between atoms: N_9  and  O_17
REMARK    4  A    between atoms: C_19  and  C_20
REMARK    5  A    between atoms: C_23  and  C_26
REMARK                            x       y       z     vdW  Elec       q    Type
REMARK                         _______ _______ _______ _____ _____    ______ ____
ROOT
ATOM      1  O   UNL     1      31.910 -12.065 -20.211  0.00  0.00    -0.272 OA
ATOM      2  N   UNL     1      32.236 -10.666 -22.043  0.00  0.00    -0.298 N 
ATOM      3  C   UNL     1      32.233 -11.882 -21.382  0.00  0.00    +0.253 C 
ATOM      4  H   UNL     1      32.516 -10.647 -22.987  0.00  0.00    +0.150 HD
ENDROOT
BRANCH   3  11
ATOM      5  O   UNL     1      34.800 -12.447 -22.861  0.00  0.00    -0.327 OA
ATOM      6  O   UNL     1      33.532 -13.821 -21.484  0.00  0.00    -0.320 OA
ATOM      7  O   UNL     1      33.151 -15.988 -25.904  0.00  0.00    -0.250 OA
ATOM      8  N   UNL     1      34.118 -14.864 -24.117  0.00  0.00    -0.255 N 
ATOM      9  N   UNL     1      34.369 -17.185 -24.377  0.00  0.00    -0.181 N 
ATOM     10  C   UNL     1      33.493 -12.538 -23.444  0.00  0.00    +0.174 C 
ATOM     11  C   UNL     1      32.654 -13.010 -22.269  0.00  0.00    +0.222 C 
ATOM     12  C   UNL     1      34.827 -13.643 -22.076  0.00  0.00    +0.256 C 
ATOM     13  C   UNL     1      33.581 -13.572 -24.571  0.00  0.00    +0.128 C 
ATOM     14  C   UNL     1      35.097 -14.821 -23.012  0.00  0.00    +0.156 C 
ATOM     15  C   UNL     1      33.833 -16.016 -24.874  0.00  0.00    +0.326 C 
ATOM     16  H   UNL     1      34.913 -17.209 -23.557  0.00  0.00    +0.184 HD
BRANCH   9  17
ATOM     17  O   UNL     1      34.085 -18.340 -25.123  0.00  0.00    -0.294 OA
ATOM     18  H   UNL     1      33.134 -18.375 -25.316  0.00  0.00    +0.241 HD
ENDBRANCH   9  17
ENDBRANCH   3  11
BRANCH   2  19
ATOM     19  C   UNL     1      31.847  -9.424 -21.415  0.00  0.00    +0.116 C 
BRANCH  19  20
ATOM     20  C   UNL     1      32.250  -8.253 -22.267  0.00  0.00    -0.003 C 
ATOM     21  C   UNL     1      31.369  -7.770 -23.228  0.00  0.00    -0.003 C 
ATOM     22  C   UNL     1      33.496  -7.669 -22.085  0.00  0.00    -0.003 C 
ATOM     23  C   UNL     1      32.992  -6.090 -23.843  0.00  0.00    -0.000 C 
ATOM     24  C   UNL     1      31.743  -6.684 -24.018  0.00  0.00    -0.000 C 
ATOM     25  C   UNL     1      33.869  -6.583 -22.876  0.00  0.00    -0.000 C 
BRANCH  23  26
ATOM     26  C   UNL     1      33.380  -4.962 -24.663  0.00  0.00    -0.000 C 
ATOM     27  C   UNL     1      34.507  -5.049 -25.480  0.00  0.00    -0.000 C 
ATOM     28  C   UNL     1      32.626  -3.790 -24.638  0.00  0.00    -0.000 C 
ATOM     29  C   UNL     1      34.881  -3.963 -26.272  0.00  0.00    +0.000 C 
ATOM     30  C   UNL     1      32.999  -2.703 -25.428  0.00  0.00    +0.000 C 
ATOM     31  C   UNL     1      34.126  -2.789 -26.246  0.00  0.00    +0.000 C 
ENDBRANCH  23  26
ENDBRANCH  19  20
ENDBRANCH   2  19
TORSDOF 5
ENDMDL
MODEL 6
REMARK VINA RESULT:     -10.2      8.454     12.566
REMARK  Name = 11987860
REMARK  5 active torsions:
REMARK  status: ('A' for Active; 'I' for Inactive)
REMARK    1  A    between atoms: N_2  and  C_19
REMARK    2  A    between atoms: C_3  and  C_11
REMARK    3  A    between atoms: N_9  and  O_17
REMARK    4  A    between atoms: C_19  and  C_20
REMARK    5  A    between atoms: C_23  and  C_26
REMARK                            x       y       z     vdW  Elec       q    Type
REMARK                         _______ _______ _______ _____ _____    ______ ____
ROOT
ATOM      1  O   UNL     1      32.934 -13.994 -24.568  0.00  0.00    -0.272 OA
ATOM      2  N   UNL     1      34.914 -14.145 -23.354  0.00  0.00    -0.298 N 
ATOM      3  C   UNL     1      33.698 -13.581 -23.700  0.00  0.00    +0.253 C 
ATOM      4  H   UNL     1      35.440 -13.721 -22.637  0.00  0.00    +0.150 HD
ENDROOT
BRANCH   3  11
ATOM      5  O   UNL     1      31.743 -13.154 -21.443  0.00  0.00    -0.327 OA
ATOM      6  O   UNL     1      33.995 -12.604 -21.599  0.00  0.00    -0.320 OA
ATOM      7  O   UNL     1      31.769  -8.204 -21.353  0.00  0.00    -0.250 OA
ATOM      8  N   UNL     1      32.208 -10.439 -20.902  0.00  0.00    -0.255 N 
ATOM      9  N   UNL     1      33.005  -8.732 -19.498  0.00  0.00    -0.181 N 
ATOM     10  C   UNL     1      31.886 -12.276 -22.568  0.00  0.00    +0.174 C 
ATOM     11  C   UNL     1      33.372 -12.383 -22.867  0.00  0.00    +0.222 C 
ATOM     12  C   UNL     1      32.907 -12.810 -20.685  0.00  0.00    +0.256 C 
ATOM     13  C   UNL     1      31.469 -10.879 -22.095  0.00  0.00    +0.128 C 
ATOM     14  C   UNL     1      32.630 -11.494 -19.959  0.00  0.00    +0.156 C 
ATOM     15  C   UNL     1      32.291  -9.060 -20.631  0.00  0.00    +0.326 C 
ATOM     16  H   UNL     1      33.421  -9.413 -18.922  0.00  0.00    +0.184 HD
BRANCH   9  17
ATOM     17  O   UNL     1      33.096  -7.358 -19.224  0.00  0.00    -0.294 OA
ATOM     18  H   UNL     1      33.687  -6.938 -19.869  0.00  0.00    +0.241 HD
ENDBRANCH   9  17
ENDBRANCH   3  11
BRANCH   2  19
ATOM     19  C   UNL     1      35.448 -15.325 -23.994  0.00  0.00    +0.116 C 
BRANCH  19  20
ATOM     20  C   UNL     1      35.290 -16.526 -23.102  0.00  0.00    -0.003 C 
ATOM     21  C   UNL     1      35.579 -16.416 -21.747  0.00  0.00    -0.003 C 
ATOM     22  C   UNL     1      34.858 -17.730 -23.643  0.00  0.00    -0.003 C 
ATOM     23  C   UNL     1      34.999 -18.742 -21.454  0.00  0.00    -0.000 C 
ATOM     24  C   UNL     1      35.432 -17.529 -20.921  0.00  0.00    -0.000 C 
ATOM     25  C   UNL     1      34.712 -18.842 -22.816  0.00  0.00    -0.000 C 
BRANCH  23  26
ATOM     26  C   UNL     1      34.846 -19.898 -20.596  0.00  0.00    -0.000 C 
ATOM     27  C   UNL     1      33.571 -20.346 -20.252  0.00  0.00    -0.000 C 
ATOM     28  C   UNL     1      35.973 -20.563 -20.116  0.00  0.00    -0.000 C 
ATOM     29  C   UNL     1      33.423 -21.461 -19.425  0.00  0.00    +0.000 C 
ATOM     30  C   UNL     1      35.826 -21.677 -19.290  0.00  0.00    +0.000 C 
ATOM     31  C   UNL     1      34.551 -22.126 -18.944  0.00  0.00    +0.000 C 
ENDBRANCH  23  26
ENDBRANCH  19  20
ENDBRANCH   2  19
TORSDOF 5
ENDMDL
MODEL 7
REMARK VINA RESULT:     -10.2      3.000      4.745
REMARK  Name = 11987860
REMARK  5 active torsions:
REMARK  status: ('A' for Active; 'I' for Inactive)
REMARK    1  A    between atoms: N_2  and  C_19
REMARK    2  A    between atoms: C_3  and  C_11
REMARK    3  A    between atoms: N_9  and  O_17
REMARK    4  A    between atoms: C_19  and  C_20
REMARK    5  A    between atoms: C_23  and  C_26
REMARK                            x       y       z     vdW  Elec       q    Type
REMARK                         _______ _______ _______ _____ _____    ______ ____
ROOT
ATOM      1  O   UNL     1      37.256 -21.777 -15.450  0.00  0.00    -0.272 OA
ATOM      2  N   UNL     1      36.115 -21.839 -17.478  0.00  0.00    -0.298 N 
ATOM      3  C   UNL     1      36.240 -21.987 -16.107  0.00  0.00    +0.253 C 
ATOM      4  H   UNL     1      35.245 -22.039 -17.893  0.00  0.00    +0.150 HD
ENDROOT
BRANCH   3  11
ATOM      5  O   UNL     1      34.533 -24.449 -16.455  0.00  0.00    -0.327 OA
ATOM      6  O   UNL     1      35.320 -23.434 -14.520  0.00  0.00    -0.320 OA
ATOM      7  O   UNL     1      30.429 -22.843 -14.199  0.00  0.00    -0.250 OA
ATOM      8  N   UNL     1      32.464 -23.867 -14.650  0.00  0.00    -0.255 N 
ATOM      9  N   UNL     1      31.300 -24.293 -12.653  0.00  0.00    -0.181 N 
ATOM     10  C   UNL     1      34.027 -23.107 -16.447  0.00  0.00    +0.174 C 
ATOM     11  C   UNL     1      34.962 -22.422 -15.465  0.00  0.00    +0.222 C 
ATOM     12  C   UNL     1      34.783 -24.650 -15.061  0.00  0.00    +0.256 C 
ATOM     13  C   UNL     1      32.581 -23.182 -15.946  0.00  0.00    +0.128 C 
ATOM     14  C   UNL     1      33.447 -24.935 -14.374  0.00  0.00    +0.156 C 
ATOM     15  C   UNL     1      31.330 -23.616 -13.854  0.00  0.00    +0.326 C 
ATOM     16  H   UNL     1      32.017 -24.909 -12.378  0.00  0.00    +0.184 HD
BRANCH   9  17
ATOM     17  O   UNL     1      30.175 -24.044 -11.852  0.00  0.00    -0.294 OA
ATOM     18  H   UNL     1      29.907 -23.116 -11.950  0.00  0.00    +0.241 HD
ENDBRANCH   9  17
ENDBRANCH   3  11
BRANCH   2  19
ATOM     19  C   UNL     1      37.200 -21.407 -18.328  0.00  0.00    +0.116 C 
BRANCH  19  20
ATOM     20  C   UNL     1      36.682 -20.553 -19.452  0.00  0.00    -0.003 C 
ATOM     21  C   UNL     1      35.367 -20.705 -19.877  0.00  0.00    -0.003 C 
ATOM     22  C   UNL     1      37.521 -19.624 -20.051  0.00  0.00    -0.003 C 
ATOM     23  C   UNL     1      35.722 -18.977 -21.527  0.00  0.00    -0.000 C 
ATOM     24  C   UNL     1      34.886 -19.912 -20.920  0.00  0.00    -0.000 C 
ATOM     25  C   UNL     1      37.040 -18.832 -21.093  0.00  0.00    -0.000 C 
BRANCH  23  26
ATOM     26  C   UNL     1      35.223 -18.154 -22.609  0.00  0.00    -0.000 C 
ATOM     27  C   UNL     1      34.509 -18.736 -23.655  0.00  0.00    -0.000 C 
ATOM     28  C   UNL     1      35.454 -16.779 -22.602  0.00  0.00    -0.000 C 
ATOM     29  C   UNL     1      34.027 -17.943 -24.697  0.00  0.00    +0.000 C 
ATOM     30  C   UNL     1      34.972 -15.985 -23.643  0.00  0.00    +0.000 C 
ATOM     31  C   UNL     1      34.259 -16.567 -24.691  0.00  0.00    +0.000 C 
ENDBRANCH  23  26
ENDBRANCH  19  20
ENDBRANCH   2  19
TORSDOF 5
ENDMDL
MODEL 8
REMARK VINA RESULT:     -10.1      2.848      5.074
REMARK  Name = 11987860
REMARK  5 active torsions:
REMARK  status: ('A' for Active; 'I' for Inactive)
REMARK    1  A    between atoms: N_2  and  C_19
REMARK    2  A    between atoms: C_3  and  C_11
REMARK    3  A    between atoms: N_9  and  O_17
REMARK    4  A    between atoms: C_19  and  C_20
REMARK    5  A    between atoms: C_23  and  C_26
REMARK                            x       y       z     vdW  Elec       q    Type
REMARK                         _______ _______ _______ _____ _____    ______ ____
ROOT
ATOM      1  O   UNL     1      36.858 -23.822 -15.650  0.00  0.00    -0.272 OA
ATOM      2  N   UNL     1      35.739 -22.354 -17.068  0.00  0.00    -0.298 N 
ATOM      3  C   UNL     1      35.822 -23.334 -16.094  0.00  0.00    +0.253 C 
ATOM      4  H   UNL     1      34.846 -22.042 -17.343  0.00  0.00    +0.150 HD
ENDROOT
BRANCH   3  11
ATOM      5  O   UNL     1      33.186 -21.879 -15.926  0.00  0.00    -0.327 OA
ATOM      6  O   UNL     1      33.680 -23.993 -16.752  0.00  0.00    -0.320 OA
ATOM      7  O   UNL     1      30.830 -24.945 -12.834  0.00  0.00    -0.250 OA
ATOM      8  N   UNL     1      31.603 -23.872 -14.742  0.00  0.00    -0.255 N 
ATOM      9  N   UNL     1      29.847 -25.431 -14.845  0.00  0.00    -0.181 N 
ATOM     10  C   UNL     1      33.768 -22.626 -14.849  0.00  0.00    +0.174 C 
ATOM     11  C   UNL     1      34.477 -23.748 -15.590  0.00  0.00    +0.222 C 
ATOM     12  C   UNL     1      32.706 -22.938 -16.760  0.00  0.00    +0.256 C 
ATOM     13  C   UNL     1      32.610 -23.122 -13.977  0.00  0.00    +0.128 C 
ATOM     14  C   UNL     1      31.409 -23.472 -16.151  0.00  0.00    +0.156 C 
ATOM     15  C   UNL     1      30.759 -24.765 -14.054  0.00  0.00    +0.326 C 
ATOM     16  H   UNL     1      29.790 -25.288 -15.817  0.00  0.00    +0.184 HD
BRANCH   9  17
ATOM     17  O   UNL     1      29.006 -26.326 -14.167  0.00  0.00    -0.294 OA
ATOM     18  H   UNL     1      28.453 -25.837 -13.537  0.00  0.00    +0.241 HD
ENDBRANCH   9  17
ENDBRANCH   3  11
BRANCH   2  19
ATOM     19  C   UNL     1      36.898 -21.768 -17.701  0.00  0.00    +0.116 C 
BRANCH  19  20
ATOM     20  C   UNL     1      36.491 -20.950 -18.895  0.00  0.00    -0.003 C 
ATOM     21  C   UNL     1      37.409 -20.087 -19.480  0.00  0.00    -0.003 C 
ATOM     22  C   UNL     1      35.202 -21.066 -19.398  0.00  0.00    -0.003 C 
ATOM     23  C   UNL     1      35.739 -19.438 -21.100  0.00  0.00    -0.000 C 
ATOM     24  C   UNL     1      37.031 -19.328 -20.587  0.00  0.00    -0.000 C 
ATOM     25  C   UNL     1      34.824 -20.307 -20.505  0.00  0.00    -0.000 C 
BRANCH  23  26
ATOM     26  C   UNL     1      35.346 -18.650 -22.249  0.00  0.00    -0.000 C 
ATOM     27  C   UNL     1      34.603 -19.236 -23.274  0.00  0.00    -0.000 C 
ATOM     28  C   UNL     1      35.710 -17.307 -22.331  0.00  0.00    -0.000 C 
ATOM     29  C   UNL     1      34.224 -18.477 -24.382  0.00  0.00    +0.000 C 
ATOM     30  C   UNL     1      35.331 -16.548 -23.438  0.00  0.00    +0.000 C 
ATOM     31  C   UNL     1      34.588 -17.133 -24.464  0.00  0.00    +0.000 C 
ENDBRANCH  23  26
ENDBRANCH  19  20
ENDBRANCH   2  19
TORSDOF 5
ENDMDL
MODEL 9
REMARK VINA RESULT:     -10.1      5.461     10.434
REMARK  Name = 11987860
REMARK  5 active torsions:
REMARK  status: ('A' for Active; 'I' for Inactive)
REMARK    1  A    between atoms: N_2  and  C_19
REMARK    2  A    between atoms: C_3  and  C_11
REMARK    3  A    between atoms: N_9  and  O_17
REMARK    4  A    between atoms: C_19  and  C_20
REMARK    5  A    between atoms: C_23  and  C_26
REMARK                            x       y       z     vdW  Elec       q    Type
REMARK                         _______ _______ _______ _____ _____    ______ ____
ROOT
ATOM      1  O   UNL     1      37.234 -18.432 -20.204  0.00  0.00    -0.272 OA
ATOM      2  N   UNL     1      35.905 -20.343 -20.225  0.00  0.00    -0.298 N 
ATOM      3  C   UNL     1      36.305 -19.092 -20.662  0.00  0.00    +0.253 C 
ATOM      4  H   UNL     1      35.143 -20.775 -20.674  0.00  0.00    +0.150 HD
ENDROOT
BRANCH   3  11
ATOM      5  O   UNL     1      36.806 -19.042 -23.636  0.00  0.00    -0.327 OA
ATOM      6  O   UNL     1      34.954 -19.774 -22.442  0.00  0.00    -0.320 OA
ATOM      7  O   UNL     1      33.221 -15.891 -24.950  0.00  0.00    -0.250 OA
ATOM      8  N   UNL     1      34.435 -17.821 -24.510  0.00  0.00    -0.255 N 
ATOM      9  N   UNL     1      32.379 -17.905 -25.646  0.00  0.00    -0.181 N 
ATOM     10  C   UNL     1      36.326 -17.924 -22.877  0.00  0.00    +0.174 C 
ATOM     11  C   UNL     1      35.482 -18.604 -21.812  0.00  0.00    +0.222 C 
ATOM     12  C   UNL     1      35.625 -19.846 -23.708  0.00  0.00    +0.256 C 
ATOM     13  C   UNL     1      35.498 -17.062 -23.836  0.00  0.00    +0.128 C 
ATOM     14  C   UNL     1      34.708 -19.248 -24.776  0.00  0.00    +0.156 C 
ATOM     15  C   UNL     1      33.333 -17.118 -25.034  0.00  0.00    +0.326 C 
ATOM     16  H   UNL     1      32.467 -18.882 -25.713  0.00  0.00    +0.184 HD
BRANCH   9  17
ATOM     17  O   UNL     1      31.275 -17.212 -26.166  0.00  0.00    -0.294 OA
ATOM     18  H   UNL     1      31.377 -16.263 -25.991  0.00  0.00    +0.241 HD
ENDBRANCH   9  17
ENDBRANCH   3  11
BRANCH   2  19
ATOM     19  C   UNL     1      36.553 -21.046 -19.141  0.00  0.00    +0.116 C 
BRANCH  19  20
ATOM     20  C   UNL     1      35.532 -21.691 -18.246  0.00  0.00    -0.003 C 
ATOM     21  C   UNL     1      34.225 -21.840 -18.693  0.00  0.00    -0.003 C 
ATOM     22  C   UNL     1      35.907 -22.129 -16.983  0.00  0.00    -0.003 C 
ATOM     23  C   UNL     1      33.645 -22.881 -16.593  0.00  0.00    -0.000 C 
ATOM     24  C   UNL     1      33.278 -22.438 -17.862  0.00  0.00    -0.000 C 
ATOM     25  C   UNL     1      34.959 -22.727 -16.152  0.00  0.00    -0.000 C 
BRANCH  23  26
ATOM     26  C   UNL     1      32.662 -23.503 -15.730  0.00  0.00    -0.000 C 
ATOM     27  C   UNL     1      33.073 -24.211 -14.602  0.00  0.00    -0.000 C 
ATOM     28  C   UNL     1      31.304 -23.392 -16.028  0.00  0.00    -0.000 C 
ATOM     29  C   UNL     1      32.126 -24.809 -13.770  0.00  0.00    +0.000 C 
ATOM     30  C   UNL     1      30.357 -23.990 -15.197  0.00  0.00    +0.000 C 
ATOM     31  C   UNL     1      30.768 -24.699 -14.068  0.00  0.00    +0.000 C 
ENDBRANCH  23  26
ENDBRANCH  19  20
ENDBRANCH   2  19
TORSDOF 5
ENDMDL
