MODEL 1
REMARK VINA RESULT:     -11.6      0.000      0.000
REMARK  Name = 10361208
REMARK  3 active torsions:
REMARK  status: ('A' for Active; 'I' for Inactive)
REMARK    1  A    between atoms: N_1  and  C_12
REMARK    2  A    between atoms: C_10  and  C_18
REMARK    3  A    between atoms: C_21  and  C_27
REMARK                            x       y       z     vdW  Elec       q    Type
REMARK                         _______ _______ _______ _____ _____    ______ ____
ROOT
ATOM      1  N   UNL     1      35.197 -24.629 -14.177  0.00  0.00    -0.318 N 
ATOM      2  N   UNL     1      34.255 -23.416 -15.885  0.00  0.00    -0.147 NA
ATOM      3  N   UNL     1      33.094 -22.980 -16.433  0.00  0.00    -0.190 N 
ATOM      4  N   UNL     1      30.957 -22.621 -16.791  0.00  0.00    -0.127 NA
ATOM      5  N   UNL     1      31.679 -21.987 -17.781  0.00  0.00    -0.127 NA
ATOM      6  C   UNL     1      34.112 -24.144 -14.802  0.00  0.00    +0.149 C 
ATOM      7  C   UNL     1      32.763 -24.467 -14.218  0.00  0.00    +0.039 C 
ATOM      8  C   UNL     1      31.815 -23.213 -15.987  0.00  0.00    +0.187 A 
ATOM      9  C   UNL     1      31.668 -23.995 -14.826  0.00  0.00    +0.044 C 
ATOM     10  C   UNL     1      32.953 -22.213 -17.552  0.00  0.00    +0.187 A 
ATOM     11  H   UNL     1      35.068 -25.186 -13.375  0.00  0.00    +0.148 HD
ENDROOT
BRANCH   1  12
ATOM     12  C   UNL     1      36.550 -24.369 -14.631  0.00  0.00    +0.070 C 
ATOM     13  C   UNL     1      37.216 -23.325 -13.729  0.00  0.00    +0.020 C 
ATOM     14  C   UNL     1      37.352 -25.673 -14.670  0.00  0.00    +0.020 C 
ATOM     15  C   UNL     1      37.544 -23.869 -12.337  0.00  0.00    +0.002 C 
ATOM     16  C   UNL     1      37.679 -26.208 -13.275  0.00  0.00    +0.002 C 
ATOM     17  C   UNL     1      38.364 -25.152 -12.413  0.00  0.00    +0.000 C 
ENDBRANCH   1  12
BRANCH  10  18
ATOM     18  C   UNL     1      34.059 -21.733 -18.346  0.00  0.00    +0.038 C 
ATOM     19  C   UNL     1      33.825 -20.894 -19.435  0.00  0.00    +0.007 C 
ATOM     20  C   UNL     1      35.362 -22.110 -18.023  0.00  0.00    +0.003 C 
ATOM     21  C   UNL     1      34.894 -20.431 -20.201  0.00  0.00    +0.072 C 
ATOM     22  C   UNL     1      36.433 -21.648 -18.789  0.00  0.00    +0.000 C 
ATOM     23  C   UNL     1      36.198 -20.808 -19.879  0.00  0.00    +0.004 C 
BRANCH  21  27
ATOM     24  F   UNL     1      35.426 -19.814 -22.450  0.00  0.00    -0.166 F 
ATOM     25  F   UNL     1      33.361 -19.579 -21.828  0.00  0.00    -0.166 F 
ATOM     26  F   UNL     1      34.882 -18.220 -21.074  0.00  0.00    -0.166 F 
ATOM     27  C   UNL     1      34.645 -19.533 -21.365  0.00  0.00    +0.419 C 
ENDBRANCH  21  27
ENDBRANCH  10  18
TORSDOF 3
ENDMDL
MODEL 2
REMARK VINA RESULT:     -11.0      3.320      5.339
REMARK  Name = 10361208
REMARK  3 active torsions:
REMARK  status: ('A' for Active; 'I' for Inactive)
REMARK    1  A    between atoms: N_1  and  C_12
REMARK    2  A    between atoms: C_10  and  C_18
REMARK    3  A    between atoms: C_21  and  C_27
REMARK                            x       y       z     vdW  Elec       q    Type
REMARK                         _______ _______ _______ _____ _____    ______ ____
ROOT
ATOM      1  N   UNL     1      37.083 -22.739 -14.400  0.00  0.00    -0.318 N 
ATOM      2  N   UNL     1      35.153 -22.718 -15.647  0.00  0.00    -0.147 NA
ATOM      3  N   UNL     1      34.616 -22.453 -16.864  0.00  0.00    -0.190 N 
ATOM      4  N   UNL     1      34.396 -21.863 -18.967  0.00  0.00    -0.127 NA
ATOM      5  N   UNL     1      33.157 -22.235 -18.485  0.00  0.00    -0.127 NA
ATOM      6  C   UNL     1      36.446 -22.508 -15.560  0.00  0.00    +0.149 C 
ATOM      7  C   UNL     1      37.263 -22.011 -16.722  0.00  0.00    +0.039 C 
ATOM      8  C   UNL     1      35.264 -21.998 -17.987  0.00  0.00    +0.187 A 
ATOM      9  C   UNL     1      36.649 -21.774 -17.887  0.00  0.00    +0.044 C 
ATOM     10  C   UNL     1      33.307 -22.583 -17.227  0.00  0.00    +0.187 A 
ATOM     11  H   UNL     1      38.050 -22.559 -14.350  0.00  0.00    +0.148 HD
ENDROOT
BRANCH   1  12
ATOM     12  C   UNL     1      36.407 -23.238 -13.217  0.00  0.00    +0.070 C 
ATOM     13  C   UNL     1      36.030 -24.711 -13.410  0.00  0.00    +0.020 C 
ATOM     14  C   UNL     1      37.293 -23.041 -11.983  0.00  0.00    +0.020 C 
ATOM     15  C   UNL     1      37.245 -25.640 -13.389  0.00  0.00    +0.002 C 
ATOM     16  C   UNL     1      38.503 -23.976 -11.967  0.00  0.00    +0.002 C 
ATOM     17  C   UNL     1      38.089 -25.435 -12.136  0.00  0.00    +0.000 C 
ENDBRANCH   1  12
BRANCH  10  18
ATOM     18  C   UNL     1      32.265 -23.040 -16.340  0.00  0.00    +0.038 C 
ATOM     19  C   UNL     1      30.926 -22.857 -16.683  0.00  0.00    +0.007 C 
ATOM     20  C   UNL     1      32.598 -23.664 -15.138  0.00  0.00    +0.003 C 
ATOM     21  C   UNL     1      29.919 -23.299 -15.825  0.00  0.00    +0.072 C 
ATOM     22  C   UNL     1      31.592 -24.105 -14.278  0.00  0.00    +0.000 C 
ATOM     23  C   UNL     1      30.252 -23.923 -14.623  0.00  0.00    +0.004 C 
BRANCH  21  27
ATOM     24  F   UNL     1      27.663 -22.943 -15.115  0.00  0.00    -0.166 F 
ATOM     25  F   UNL     1      28.266 -22.011 -16.978  0.00  0.00    -0.166 F 
ATOM     26  F   UNL     1      27.976 -24.164 -16.887  0.00  0.00    -0.166 F 
ATOM     27  C   UNL     1      28.487 -23.106 -16.192  0.00  0.00    +0.419 C 
ENDBRANCH  21  27
ENDBRANCH  10  18
TORSDOF 3
ENDMDL
MODEL 3
REMARK VINA RESULT:     -10.7      1.910      2.482
REMARK  Name = 10361208
REMARK  3 active torsions:
REMARK  status: ('A' for Active; 'I' for Inactive)
REMARK    1  A    between atoms: N_1  and  C_12
REMARK    2  A    between atoms: C_10  and  C_18
REMARK    3  A    between atoms: C_21  and  C_27
REMARK                            x       y       z     vdW  Elec       q    Type
REMARK                         _______ _______ _______ _____ _____    ______ ____
ROOT
ATOM      1  N   UNL     1      34.944 -24.696 -13.720  0.00  0.00    -0.318 N 
ATOM      2  N   UNL     1      33.703 -23.644 -15.341  0.00  0.00    -0.147 NA
ATOM      3  N   UNL     1      32.450 -23.356 -15.773  0.00  0.00    -0.190 N 
ATOM      4  N   UNL     1      30.262 -23.247 -15.914  0.00  0.00    -0.127 NA
ATOM      5  N   UNL     1      30.803 -22.564 -16.984  0.00  0.00    -0.127 NA
ATOM      6  C   UNL     1      33.754 -24.353 -14.238  0.00  0.00    +0.149 C 
ATOM      7  C   UNL     1      32.515 -24.808 -13.512  0.00  0.00    +0.039 C 
ATOM      8  C   UNL     1      31.258 -23.718 -15.194  0.00  0.00    +0.187 A 
ATOM      9  C   UNL     1      31.319 -24.478 -14.011  0.00  0.00    +0.044 C 
ATOM     10  C   UNL     1      32.111 -22.640 -16.884  0.00  0.00    +0.187 A 
ATOM     11  H   UNL     1      34.961 -25.242 -12.900  0.00  0.00    +0.148 HD
ENDROOT
BRANCH   1  12
ATOM     12  C   UNL     1      36.206 -24.299 -14.316  0.00  0.00    +0.070 C 
ATOM     13  C   UNL     1      36.967 -23.370 -13.364  0.00  0.00    +0.020 C 
ATOM     14  C   UNL     1      37.032 -25.539 -14.673  0.00  0.00    +0.020 C 
ATOM     15  C   UNL     1      37.515 -24.100 -12.137  0.00  0.00    +0.002 C 
ATOM     16  C   UNL     1      37.579 -26.261 -13.441  0.00  0.00    +0.002 C 
ATOM     17  C   UNL     1      38.352 -25.312 -12.530  0.00  0.00    +0.000 C 
ENDBRANCH   1  12
BRANCH  10  18
ATOM     18  C   UNL     1      33.070 -22.061 -17.795  0.00  0.00    +0.038 C 
ATOM     19  C   UNL     1      34.432 -22.112 -17.500  0.00  0.00    +0.007 C 
ATOM     20  C   UNL     1      32.632 -21.451 -18.970  0.00  0.00    +0.003 C 
ATOM     21  C   UNL     1      35.357 -21.553 -18.381  0.00  0.00    +0.072 C 
ATOM     22  C   UNL     1      33.557 -20.890 -19.851  0.00  0.00    +0.000 C 
ATOM     23  C   UNL     1      34.920 -20.941 -19.556  0.00  0.00    +0.004 C 
BRANCH  21  27
ATOM     24  F   UNL     1      37.332 -20.411 -17.660  0.00  0.00    -0.166 F 
ATOM     25  F   UNL     1      37.127 -22.489 -17.073  0.00  0.00    -0.166 F 
ATOM     26  F   UNL     1      37.567 -21.986 -19.142  0.00  0.00    -0.166 F 
ATOM     27  C   UNL     1      36.814 -21.607 -18.068  0.00  0.00    +0.419 C 
ENDBRANCH  21  27
ENDBRANCH  10  18
TORSDOF 3
ENDMDL
MODEL 4
REMARK VINA RESULT:     -10.5      3.860      5.707
REMARK  Name = 10361208
REMARK  3 active torsions:
REMARK  status: ('A' for Active; 'I' for Inactive)
REMARK    1  A    between atoms: N_1  and  C_12
REMARK    2  A    between atoms: C_10  and  C_18
REMARK    3  A    between atoms: C_21  and  C_27
REMARK                            x       y       z     vdW  Elec       q    Type
REMARK                         _______ _______ _______ _____ _____    ______ ____
ROOT
ATOM      1  N   UNL     1      36.941 -22.699 -14.923  0.00  0.00    -0.318 N 
ATOM      2  N   UNL     1      34.982 -22.543 -16.113  0.00  0.00    -0.147 NA
ATOM      3  N   UNL     1      34.427 -22.229 -17.310  0.00  0.00    -0.190 N 
ATOM      4  N   UNL     1      34.185 -21.600 -19.400  0.00  0.00    -0.127 NA
ATOM      5  N   UNL     1      32.940 -21.899 -18.886  0.00  0.00    -0.127 NA
ATOM      6  C   UNL     1      36.288 -22.415 -16.061  0.00  0.00    +0.149 C 
ATOM      7  C   UNL     1      37.101 -21.955 -17.242  0.00  0.00    +0.039 C 
ATOM      8  C   UNL     1      35.070 -21.801 -18.447  0.00  0.00    +0.187 A 
ATOM      9  C   UNL     1      36.470 -21.665 -18.386  0.00  0.00    +0.044 C 
ATOM     10  C   UNL     1      33.104 -22.272 -17.637  0.00  0.00    +0.187 A 
ATOM     11  H   UNL     1      37.919 -22.582 -14.900  0.00  0.00    +0.148 HD
ENDROOT
BRANCH   1  12
ATOM     12  C   UNL     1      36.270 -23.171 -13.727  0.00  0.00    +0.070 C 
ATOM     13  C   UNL     1      35.729 -24.587 -13.952  0.00  0.00    +0.020 C 
ATOM     14  C   UNL     1      37.226 -23.116 -12.531  0.00  0.00    +0.020 C 
ATOM     15  C   UNL     1      36.838 -25.639 -14.021  0.00  0.00    +0.002 C 
ATOM     16  C   UNL     1      38.328 -24.173 -12.606  0.00  0.00    +0.002 C 
ATOM     17  C   UNL     1      37.754 -25.573 -12.804  0.00  0.00    +0.000 C 
ENDBRANCH   1  12
BRANCH  10  18
ATOM     18  C   UNL     1      32.060 -22.675 -16.724  0.00  0.00    +0.038 C 
ATOM     19  C   UNL     1      32.389 -23.279 -15.511  0.00  0.00    +0.007 C 
ATOM     20  C   UNL     1      30.724 -22.461 -17.058  0.00  0.00    +0.003 C 
ATOM     21  C   UNL     1      31.380 -23.669 -14.631  0.00  0.00    +0.072 C 
ATOM     22  C   UNL     1      29.714 -22.851 -16.178  0.00  0.00    +0.000 C 
ATOM     23  C   UNL     1      30.043 -23.455 -14.964  0.00  0.00    +0.004 C 
BRANCH  21  27
ATOM     24  F   UNL     1      32.677 -23.634 -12.621  0.00  0.00    -0.166 F 
ATOM     25  F   UNL     1      30.668 -24.441 -12.482  0.00  0.00    -0.166 F 
ATOM     26  F   UNL     1      32.226 -25.576 -13.490  0.00  0.00    -0.166 F 
ATOM     27  C   UNL     1      31.729 -24.314 -13.332  0.00  0.00    +0.419 C 
ENDBRANCH  21  27
ENDBRANCH  10  18
TORSDOF 3
ENDMDL
MODEL 5
REMARK VINA RESULT:     -10.4      2.256      5.137
REMARK  Name = 10361208
REMARK  3 active torsions:
REMARK  status: ('A' for Active; 'I' for Inactive)
REMARK    1  A    between atoms: N_1  and  C_12
REMARK    2  A    between atoms: C_10  and  C_18
REMARK    3  A    between atoms: C_21  and  C_27
REMARK                            x       y       z     vdW  Elec       q    Type
REMARK                         _______ _______ _______ _____ _____    ______ ____
ROOT
ATOM      1  N   UNL     1      32.361 -24.325 -13.992  0.00  0.00    -0.318 N 
ATOM      2  N   UNL     1      34.374 -23.432 -14.646  0.00  0.00    -0.147 NA
ATOM      3  N   UNL     1      35.650 -23.166 -14.270  0.00  0.00    -0.190 N 
ATOM      4  N   UNL     1      37.492 -23.025 -13.085  0.00  0.00    -0.127 NA
ATOM      5  N   UNL     1      37.730 -22.478 -14.329  0.00  0.00    -0.127 NA
ATOM      6  C   UNL     1      33.640 -24.016 -13.727  0.00  0.00    +0.149 C 
ATOM      7  C   UNL     1      34.179 -24.361 -12.364  0.00  0.00    +0.039 C 
ATOM      8  C   UNL     1      36.242 -23.436 -13.060  0.00  0.00    +0.187 A 
ATOM      9  C   UNL     1      35.451 -24.061 -12.078  0.00  0.00    +0.044 C 
ATOM     10  C   UNL     1      36.618 -22.570 -15.023  0.00  0.00    +0.187 A 
ATOM     11  H   UNL     1      31.823 -24.748 -13.283  0.00  0.00    +0.148 HD
ENDROOT
BRANCH   1  12
ATOM     12  C   UNL     1      31.737 -24.062 -15.274  0.00  0.00    +0.070 C 
ATOM     13  C   UNL     1      30.639 -25.096 -15.546  0.00  0.00    +0.020 C 
ATOM     14  C   UNL     1      31.186 -22.633 -15.308  0.00  0.00    +0.020 C 
ATOM     15  C   UNL     1      29.412 -24.904 -14.653  0.00  0.00    +0.002 C 
ATOM     16  C   UNL     1      29.958 -22.451 -14.415  0.00  0.00    +0.002 C 
ATOM     17  C   UNL     1      28.875 -23.479 -14.730  0.00  0.00    +0.000 C 
ENDBRANCH   1  12
BRANCH  10  18
ATOM     18  C   UNL     1      36.422 -22.120 -16.381  0.00  0.00    +0.038 C 
ATOM     19  C   UNL     1      35.240 -22.426 -17.054  0.00  0.00    +0.007 C 
ATOM     20  C   UNL     1      37.417 -21.379 -17.018  0.00  0.00    +0.003 C 
ATOM     21  C   UNL     1      35.051 -21.991 -18.365  0.00  0.00    +0.072 C 
ATOM     22  C   UNL     1      37.229 -20.944 -18.331  0.00  0.00    +0.000 C 
ATOM     23  C   UNL     1      36.046 -21.250 -19.004  0.00  0.00    +0.004 C 
BRANCH  21  27
ATOM     24  F   UNL     1      32.703 -22.435 -18.263  0.00  0.00    -0.166 F 
ATOM     25  F   UNL     1      33.429 -21.378 -20.013  0.00  0.00    -0.166 F 
ATOM     26  F   UNL     1      33.860 -23.496 -19.769  0.00  0.00    -0.166 F 
ATOM     27  C   UNL     1      33.787 -22.316 -19.086  0.00  0.00    +0.419 C 
ENDBRANCH  21  27
ENDBRANCH  10  18
TORSDOF 3
ENDMDL
MODEL 6
REMARK VINA RESULT:     -10.2      1.768      4.582
REMARK  Name = 10361208
REMARK  3 active torsions:
REMARK  status: ('A' for Active; 'I' for Inactive)
REMARK    1  A    between atoms: N_1  and  C_12
REMARK    2  A    between atoms: C_10  and  C_18
REMARK    3  A    between atoms: C_21  and  C_27
REMARK                            x       y       z     vdW  Elec       q    Type
REMARK                         _______ _______ _______ _____ _____    ______ ____
ROOT
ATOM      1  N   UNL     1      32.888 -24.098 -15.040  0.00  0.00    -0.318 N 
ATOM      2  N   UNL     1      34.382 -22.958 -16.362  0.00  0.00    -0.147 NA
ATOM      3  N   UNL     1      35.680 -22.597 -16.520  0.00  0.00    -0.190 N 
ATOM      4  N   UNL     1      37.839 -22.368 -16.196  0.00  0.00    -0.127 NA
ATOM      5  N   UNL     1      37.498 -21.702 -17.355  0.00  0.00    -0.127 NA
ATOM      6  C   UNL     1      34.140 -23.685 -15.295  0.00  0.00    +0.149 C 
ATOM      7  C   UNL     1      35.222 -24.083 -14.327  0.00  0.00    +0.039 C 
ATOM      8  C   UNL     1      36.742 -22.903 -15.703  0.00  0.00    +0.187 A 
ATOM      9  C   UNL     1      36.476 -23.681 -14.562  0.00  0.00    +0.044 C 
ATOM     10  C   UNL     1      36.204 -21.848 -17.532  0.00  0.00    +0.187 A 
ATOM     11  H   UNL     1      32.724 -24.628 -14.226  0.00  0.00    +0.148 HD
ENDROOT
BRANCH   1  12
ATOM     12  C   UNL     1      31.767 -23.797 -15.910  0.00  0.00    +0.070 C 
ATOM     13  C   UNL     1      30.731 -24.924 -15.842  0.00  0.00    +0.020 C 
ATOM     14  C   UNL     1      31.154 -22.445 -15.528  0.00  0.00    +0.020 C 
ATOM     15  C   UNL     1      29.982 -24.959 -14.510  0.00  0.00    +0.002 C 
ATOM     16  C   UNL     1      30.404 -22.491 -14.197  0.00  0.00    +0.002 C 
ATOM     17  C   UNL     1      29.364 -23.607 -14.174  0.00  0.00    +0.000 C 
ENDBRANCH   1  12
BRANCH  10  18
ATOM     18  C   UNL     1      35.428 -21.312 -18.625  0.00  0.00    +0.038 C 
ATOM     19  C   UNL     1      36.025 -20.458 -19.552  0.00  0.00    +0.007 C 
ATOM     20  C   UNL     1      34.080 -21.647 -18.751  0.00  0.00    +0.003 C 
ATOM     21  C   UNL     1      35.274 -19.940 -20.607  0.00  0.00    +0.072 C 
ATOM     22  C   UNL     1      33.328 -21.129 -19.806  0.00  0.00    +0.000 C 
ATOM     23  C   UNL     1      33.926 -20.275 -20.734  0.00  0.00    +0.004 C 
BRANCH  21  27
ATOM     24  F   UNL     1      35.621 -19.343 -22.897  0.00  0.00    -0.166 F 
ATOM     25  F   UNL     1      35.541 -17.721 -21.459  0.00  0.00    -0.166 F 
ATOM     26  F   UNL     1      37.274 -19.033 -21.518  0.00  0.00    -0.166 F 
ATOM     27  C   UNL     1      35.912 -19.028 -21.600  0.00  0.00    +0.419 C 
ENDBRANCH  21  27
ENDBRANCH  10  18
TORSDOF 3
ENDMDL
MODEL 7
REMARK VINA RESULT:      -9.5      4.175      6.988
REMARK  Name = 10361208
REMARK  3 active torsions:
REMARK  status: ('A' for Active; 'I' for Inactive)
REMARK    1  A    between atoms: N_1  and  C_12
REMARK    2  A    between atoms: C_10  and  C_18
REMARK    3  A    between atoms: C_21  and  C_27
REMARK                            x       y       z     vdW  Elec       q    Type
REMARK                         _______ _______ _______ _____ _____    ______ ____
ROOT
ATOM      1  N   UNL     1      31.927 -23.009 -16.783  0.00  0.00    -0.318 N 
ATOM      2  N   UNL     1      34.206 -22.828 -16.554  0.00  0.00    -0.147 NA
ATOM      3  N   UNL     1      35.348 -22.358 -17.116  0.00  0.00    -0.190 N 
ATOM      4  N   UNL     1      36.752 -21.394 -18.500  0.00  0.00    -0.127 NA
ATOM      5  N   UNL     1      37.467 -21.894 -17.431  0.00  0.00    -0.127 NA
ATOM      6  C   UNL     1      33.115 -22.589 -17.246  0.00  0.00    +0.149 C 
ATOM      7  C   UNL     1      33.137 -21.851 -18.558  0.00  0.00    +0.039 C 
ATOM      8  C   UNL     1      35.482 -21.676 -18.301  0.00  0.00    +0.187 A 
ATOM      9  C   UNL     1      34.311 -21.424 -19.038  0.00  0.00    +0.044 C 
ATOM     10  C   UNL     1      36.612 -22.468 -16.614  0.00  0.00    +0.187 A 
ATOM     11  H   UNL     1      31.123 -22.834 -17.325  0.00  0.00    +0.148 HD
ENDROOT
BRANCH   1  12
ATOM     12  C   UNL     1      31.776 -23.711 -15.523  0.00  0.00    +0.070 C 
ATOM     13  C   UNL     1      31.285 -22.745 -14.439  0.00  0.00    +0.020 C 
ATOM     14  C   UNL     1      30.823 -24.898 -15.692  0.00  0.00    +0.020 C 
ATOM     15  C   UNL     1      29.829 -22.322 -14.640  0.00  0.00    +0.002 C 
ATOM     16  C   UNL     1      29.370 -24.467 -15.889  0.00  0.00    +0.002 C 
ATOM     17  C   UNL     1      28.906 -23.528 -14.779  0.00  0.00    +0.000 C 
ENDBRANCH   1  12
BRANCH  10  18
ATOM     18  C   UNL     1      36.932 -23.121 -15.367  0.00  0.00    +0.038 C 
ATOM     19  C   UNL     1      35.996 -23.149 -14.334  0.00  0.00    +0.007 C 
ATOM     20  C   UNL     1      38.178 -23.722 -15.197  0.00  0.00    +0.003 C 
ATOM     21  C   UNL     1      36.306 -23.779 -13.129  0.00  0.00    +0.072 C 
ATOM     22  C   UNL     1      38.489 -24.352 -13.992  0.00  0.00    +0.000 C 
ATOM     23  C   UNL     1      37.552 -24.381 -12.958  0.00  0.00    +0.004 C 
BRANCH  21  27
ATOM     24  F   UNL     1      34.044 -23.468 -12.417  0.00  0.00    -0.166 F 
ATOM     25  F   UNL     1      35.175 -25.039 -11.440  0.00  0.00    -0.166 F 
ATOM     26  F   UNL     1      35.618 -22.955 -11.008  0.00  0.00    -0.166 F 
ATOM     27  C   UNL     1      35.305 -23.812 -12.024  0.00  0.00    +0.419 C 
ENDBRANCH  21  27
ENDBRANCH  10  18
TORSDOF 3
ENDMDL
MODEL 8
REMARK VINA RESULT:      -9.2     10.816     14.533
REMARK  Name = 10361208
REMARK  3 active torsions:
REMARK  status: ('A' for Active; 'I' for Inactive)
REMARK    1  A    between atoms: N_1  and  C_12
REMARK    2  A    between atoms: C_10  and  C_18
REMARK    3  A    between atoms: C_21  and  C_27
REMARK                            x       y       z     vdW  Elec       q    Type
REMARK                         _______ _______ _______ _____ _____    ______ ____
ROOT
ATOM      1  N   UNL     1      32.055  -7.784 -22.182  0.00  0.00    -0.318 N 
ATOM      2  N   UNL     1      32.471 -10.038 -22.024  0.00  0.00    -0.147 NA
ATOM      3  N   UNL     1      32.440 -11.122 -21.210  0.00  0.00    -0.190 N 
ATOM      4  N   UNL     1      32.158 -12.409 -19.453  0.00  0.00    -0.127 NA
ATOM      5  N   UNL     1      32.640 -13.183 -20.489  0.00  0.00    -0.127 NA
ATOM      6  C   UNL     1      32.066  -8.920 -21.467  0.00  0.00    +0.149 C 
ATOM      7  C   UNL     1      31.604  -8.854 -20.035  0.00  0.00    +0.039 C 
ATOM      8  C   UNL     1      32.041 -11.175 -19.896  0.00  0.00    +0.187 A 
ATOM      9  C   UNL     1      31.608  -9.974 -19.304  0.00  0.00    +0.044 C 
ATOM     10  C   UNL     1      32.804 -12.398 -21.530  0.00  0.00    +0.187 A 
ATOM     11  H   UNL     1      31.763  -6.953 -21.741  0.00  0.00    +0.148 HD
ENDROOT
BRANCH   1  12
ATOM     12  C   UNL     1      32.455  -7.727 -23.575  0.00  0.00    +0.070 C 
ATOM     13  C   UNL     1      31.502  -6.820 -24.359  0.00  0.00    +0.020 C 
ATOM     14  C   UNL     1      33.907  -7.249 -23.685  0.00  0.00    +0.020 C 
ATOM     15  C   UNL     1      31.674  -5.340 -24.012  0.00  0.00    +0.002 C 
ATOM     16  C   UNL     1      34.069  -5.768 -23.340  0.00  0.00    +0.002 C 
ATOM     17  C   UNL     1      33.124  -4.892 -24.157  0.00  0.00    +0.000 C 
ENDBRANCH   1  12
BRANCH  10  18
ATOM     18  C   UNL     1      33.290 -12.796 -22.829  0.00  0.00    +0.038 C 
ATOM     19  C   UNL     1      33.618 -14.129 -23.073  0.00  0.00    +0.007 C 
ATOM     20  C   UNL     1      33.433 -11.846 -23.840  0.00  0.00    +0.003 C 
ATOM     21  C   UNL     1      34.089 -14.513 -24.328  0.00  0.00    +0.072 C 
ATOM     22  C   UNL     1      33.905 -12.229 -25.096  0.00  0.00    +0.000 C 
ATOM     23  C   UNL     1      34.233 -13.564 -25.339  0.00  0.00    +0.004 C 
BRANCH  21  27
ATOM     24  F   UNL     1      35.609 -16.098 -25.276  0.00  0.00    -0.166 F 
ATOM     25  F   UNL     1      34.586 -16.684 -23.456  0.00  0.00    -0.166 F 
ATOM     26  F   UNL     1      33.490 -16.584 -25.331  0.00  0.00    -0.166 F 
ATOM     27  C   UNL     1      34.439 -15.939 -24.591  0.00  0.00    +0.419 C 
ENDBRANCH  21  27
ENDBRANCH  10  18
TORSDOF 3
ENDMDL
MODEL 9
REMARK VINA RESULT:      -9.0     10.874     14.204
REMARK  Name = 10361208
REMARK  3 active torsions:
REMARK  status: ('A' for Active; 'I' for Inactive)
REMARK    1  A    between atoms: N_1  and  C_12
REMARK    2  A    between atoms: C_10  and  C_18
REMARK    3  A    between atoms: C_21  and  C_27
REMARK                            x       y       z     vdW  Elec       q    Type
REMARK                         _______ _______ _______ _____ _____    ______ ____
ROOT
ATOM      1  N   UNL     1      32.454  -8.381 -22.366  0.00  0.00    -0.318 N 
ATOM      2  N   UNL     1      32.745 -10.645 -22.109  0.00  0.00    -0.147 NA
ATOM      3  N   UNL     1      32.586 -11.701 -21.272  0.00  0.00    -0.190 N 
ATOM      4  N   UNL     1      32.079 -12.917 -19.516  0.00  0.00    -0.127 NA
ATOM      5  N   UNL     1      32.618 -13.744 -20.480  0.00  0.00    -0.127 NA
ATOM      6  C   UNL     1      32.343  -9.493 -21.623  0.00  0.00    +0.149 C 
ATOM      7  C   UNL     1      31.753  -9.361 -20.244  0.00  0.00    +0.039 C 
ATOM      8  C   UNL     1      32.063 -11.694 -20.002  0.00  0.00    +0.187 A 
ATOM      9  C   UNL     1      31.634 -10.457 -19.486  0.00  0.00    +0.044 C 
ATOM     10  C   UNL     1      32.917 -13.000 -21.522  0.00  0.00    +0.187 A 
ATOM     11  H   UNL     1      32.162  -7.524 -21.977  0.00  0.00    +0.148 HD
ENDROOT
BRANCH   1  12
ATOM     12  C   UNL     1      32.986  -8.385 -23.716  0.00  0.00    +0.070 C 
ATOM     13  C   UNL     1      32.450  -7.181 -24.496  0.00  0.00    +0.020 C 
ATOM     14  C   UNL     1      34.518  -8.395 -23.677  0.00  0.00    +0.020 C 
ATOM     15  C   UNL     1      33.047  -5.855 -24.021  0.00  0.00    +0.002 C 
ATOM     16  C   UNL     1      35.106  -7.065 -23.204  0.00  0.00    +0.002 C 
ATOM     17  C   UNL     1      34.571  -5.892 -24.019  0.00  0.00    +0.000 C 
ENDBRANCH   1  12
BRANCH  10  18
ATOM     18  C   UNL     1      33.504 -13.461 -22.757  0.00  0.00    +0.038 C 
ATOM     19  C   UNL     1      33.204 -12.815 -23.956  0.00  0.00    +0.007 C 
ATOM     20  C   UNL     1      34.370 -14.554 -22.751  0.00  0.00    +0.003 C 
ATOM     21  C   UNL     1      33.771 -13.261 -25.149  0.00  0.00    +0.072 C 
ATOM     22  C   UNL     1      34.937 -15.001 -23.944  0.00  0.00    +0.000 C 
ATOM     23  C   UNL     1      34.637 -14.354 -25.144  0.00  0.00    +0.004 C 
BRANCH  21  27
ATOM     24  F   UNL     1      34.461 -12.632 -27.352  0.00  0.00    -0.166 F 
ATOM     25  F   UNL     1      32.357 -13.078 -27.069  0.00  0.00    -0.166 F 
ATOM     26  F   UNL     1      33.194 -11.241 -26.261  0.00  0.00    -0.166 F 
ATOM     27  C   UNL     1      33.453 -12.570 -26.432  0.00  0.00    +0.419 C 
ENDBRANCH  21  27
ENDBRANCH  10  18
TORSDOF 3
ENDMDL
