MODEL 1
REMARK VINA RESULT:     -11.9      0.000      0.000
REMARK  Name = 23635314
REMARK  9 active torsions:
REMARK  status: ('A' for Active; 'I' for Inactive)
REMARK    1  A    between atoms: C_2  and  C_8
REMARK    2  A    between atoms: C_3  and  C_23
REMARK    3  A    between atoms: C_7  and  O_13
REMARK    4  A    between atoms: O_13  and  C_14
REMARK    5  A    between atoms: C_14  and  C_15
REMARK    6  A    between atoms: C_15  and  N_17
REMARK    7  A    between atoms: C_23  and  C_26
REMARK    8  A    between atoms: N_25  and  C_28
REMARK    9  A    between atoms: C_28  and  C_29
REMARK                            x       y       z     vdW  Elec       q    Type
REMARK                         _______ _______ _______ _____ _____    ______ ____
ROOT
ATOM      1  N   UNL     1      35.663 -16.865 -22.411  0.00  0.00    -0.248 NA
ATOM      2  C   UNL     1      35.028 -19.082 -21.693  0.00  0.00    +0.019 C 
ATOM      3  C   UNL     1      35.325 -17.228 -23.669  0.00  0.00    +0.068 C 
ATOM      4  C   UNL     1      34.692 -19.420 -22.998  0.00  0.00    +0.003 C 
ATOM      5  C   UNL     1      35.505 -17.804 -21.452  0.00  0.00    +0.098 C 
ATOM      6  C   UNL     1      34.841 -18.480 -24.011  0.00  0.00    +0.015 C 
ENDROOT
BRANCH   2   8
ATOM      7  C   UNL     1      34.610 -21.875 -18.547  0.00  0.00    +0.138 C 
ATOM      8  C   UNL     1      34.885 -20.038 -20.616  0.00  0.00    +0.002 C 
ATOM      9  C   UNL     1      35.880 -21.502 -18.972  0.00  0.00    +0.037 C 
ATOM     10  C   UNL     1      33.475 -21.338 -19.148  0.00  0.00    +0.037 C 
ATOM     11  C   UNL     1      36.018 -20.580 -20.009  0.00  0.00    +0.003 C 
ATOM     12  C   UNL     1      33.614 -20.417 -20.185  0.00  0.00    +0.003 C 
BRANCH   7  13
ATOM     13  O   UNL     1      34.474 -22.781 -17.528  0.00  0.00    -0.478 OA
BRANCH  13  14
ATOM     14  C   UNL     1      33.147 -23.146 -17.169  0.00  0.00    +0.183 C 
BRANCH  14  15
ATOM     15  C   UNL     1      33.007 -23.054 -15.658  0.00  0.00    -0.029 C 
BRANCH  15  17
ATOM     16  O   UNL     1      28.934 -24.066 -15.575  0.00  0.00    -0.358 OA
ATOM     17  N   UNL     1      31.601 -23.120 -15.265  0.00  0.00    +0.393 N 
ATOM     18  C   UNL     1      30.733 -22.631 -16.345  0.00  0.00    -0.044 C 
ATOM     19  C   UNL     1      31.225 -24.493 -14.899  0.00  0.00    -0.044 C 
ATOM     20  C   UNL     1      29.272 -22.720 -15.915  0.00  0.00    +0.119 C 
ATOM     21  C   UNL     1      29.752 -24.538 -14.504  0.00  0.00    +0.119 C 
ATOM     22  H   UNL     1      31.477 -22.520 -14.450  0.00  0.00    -0.079 HD
ENDBRANCH  15  17
ENDBRANCH  14  15
ENDBRANCH  13  14
ENDBRANCH   7  13
ENDBRANCH   2   8
BRANCH   3  23
ATOM     23  C   UNL     1      35.498 -16.194 -24.732  0.00  0.00    +0.131 C 
BRANCH  23  26
ATOM     24  O   UNL     1      33.376 -15.416 -25.605  0.00  0.00    -0.275 OA
ATOM     25  N   UNL     1      34.469 -14.136 -24.005  0.00  0.00    -0.300 N 
ATOM     26  C   UNL     1      34.325 -15.231 -24.847  0.00  0.00    +0.229 C 
ATOM     27  H   UNL     1      35.270 -14.081 -23.434  0.00  0.00    +0.150 HD
BRANCH  25  28
ATOM     28  C   UNL     1      33.490 -13.077 -23.932  0.00  0.00    +0.116 C 
BRANCH  28  29
ATOM     29  C   UNL     1      33.047 -12.818 -22.521  0.00  0.00    -0.003 C 
ATOM     30  C   UNL     1      33.367 -13.730 -21.522  0.00  0.00    -0.003 C 
ATOM     31  C   UNL     1      32.322 -11.669 -22.228  0.00  0.00    -0.003 C 
ATOM     32  C   UNL     1      32.956 -13.490 -20.211  0.00  0.00    -0.000 C 
ATOM     33  C   UNL     1      31.910 -11.429 -20.917  0.00  0.00    -0.000 C 
ATOM     34  C   UNL     1      32.227 -12.340 -19.908  0.00  0.00    -0.000 C 
ENDBRANCH  28  29
ENDBRANCH  25  28
ENDBRANCH  23  26
ENDBRANCH   3  23
TORSDOF 9
ENDMDL
MODEL 2
REMARK VINA RESULT:     -11.8      1.317      1.908
REMARK  Name = 23635314
REMARK  9 active torsions:
REMARK  status: ('A' for Active; 'I' for Inactive)
REMARK    1  A    between atoms: C_2  and  C_8
REMARK    2  A    between atoms: C_3  and  C_23
REMARK    3  A    between atoms: C_7  and  O_13
REMARK    4  A    between atoms: O_13  and  C_14
REMARK    5  A    between atoms: C_14  and  C_15
REMARK    6  A    between atoms: C_15  and  N_17
REMARK    7  A    between atoms: C_23  and  C_26
REMARK    8  A    between atoms: N_25  and  C_28
REMARK    9  A    between atoms: C_28  and  C_29
REMARK                            x       y       z     vdW  Elec       q    Type
REMARK                         _______ _______ _______ _____ _____    ______ ____
ROOT
ATOM      1  N   UNL     1      35.668 -16.690 -22.304  0.00  0.00    -0.248 NA
ATOM      2  C   UNL     1      35.013 -18.930 -21.681  0.00  0.00    +0.019 C 
ATOM      3  C   UNL     1      35.241 -16.965 -23.557  0.00  0.00    +0.068 C 
ATOM      4  C   UNL     1      34.586 -19.177 -22.980  0.00  0.00    +0.003 C 
ATOM      5  C   UNL     1      35.542 -17.682 -21.395  0.00  0.00    +0.098 C 
ATOM      6  C   UNL     1      34.699 -18.181 -23.942  0.00  0.00    +0.015 C 
ENDROOT
BRANCH   2   8
ATOM      7  C   UNL     1      34.708 -21.899 -18.688  0.00  0.00    +0.138 C 
ATOM      8  C   UNL     1      34.909 -19.946 -20.657  0.00  0.00    +0.002 C 
ATOM      9  C   UNL     1      35.963 -21.481 -19.118  0.00  0.00    +0.037 C 
ATOM     10  C   UNL     1      33.553 -21.350 -19.234  0.00  0.00    +0.037 C 
ATOM     11  C   UNL     1      36.064 -20.502 -20.105  0.00  0.00    +0.003 C 
ATOM     12  C   UNL     1      33.654 -20.370 -20.221  0.00  0.00    +0.003 C 
BRANCH   7  13
ATOM     13  O   UNL     1      34.609 -22.862 -17.718  0.00  0.00    -0.478 OA
BRANCH  13  14
ATOM     14  C   UNL     1      33.363 -22.963 -17.041  0.00  0.00    +0.183 C 
BRANCH  14  15
ATOM     15  C   UNL     1      33.627 -23.286 -15.579  0.00  0.00    -0.029 C 
BRANCH  15  17
ATOM     16  O   UNL     1      30.045 -24.938 -14.144  0.00  0.00    -0.358 OA
ATOM     17  N   UNL     1      32.370 -23.457 -14.853  0.00  0.00    +0.393 N 
ATOM     18  C   UNL     1      31.245 -23.615 -15.786  0.00  0.00    -0.044 C 
ATOM     19  C   UNL     1      32.441 -24.614 -13.950  0.00  0.00    -0.044 C 
ATOM     20  C   UNL     1      29.948 -23.802 -15.005  0.00  0.00    +0.119 C 
ATOM     21  C   UNL     1      31.116 -24.779 -13.213  0.00  0.00    +0.119 C 
ATOM     22  H   UNL     1      32.215 -22.617 -14.295  0.00  0.00    -0.079 HD
ENDBRANCH  15  17
ENDBRANCH  14  15
ENDBRANCH  13  14
ENDBRANCH   7  13
ENDBRANCH   2   8
BRANCH   3  23
ATOM     23  C   UNL     1      35.378 -15.873 -24.565  0.00  0.00    +0.131 C 
BRANCH  23  26
ATOM     24  O   UNL     1      33.386 -14.914 -25.555  0.00  0.00    -0.275 OA
ATOM     25  N   UNL     1      34.112 -14.118 -23.498  0.00  0.00    -0.300 N 
ATOM     26  C   UNL     1      34.182 -14.934 -24.619  0.00  0.00    +0.229 C 
ATOM     27  H   UNL     1      34.801 -14.212 -22.801  0.00  0.00    +0.150 HD
BRANCH  25  28
ATOM     28  C   UNL     1      33.069 -13.137 -23.314  0.00  0.00    +0.116 C 
BRANCH  28  29
ATOM     29  C   UNL     1      33.557 -11.741 -23.576  0.00  0.00    -0.003 C 
ATOM     30  C   UNL     1      34.552 -11.528 -24.523  0.00  0.00    -0.003 C 
ATOM     31  C   UNL     1      33.010 -10.677 -22.869  0.00  0.00    -0.003 C 
ATOM     32  C   UNL     1      35.006 -10.232 -24.766  0.00  0.00    -0.000 C 
ATOM     33  C   UNL     1      33.464  -9.381 -23.112  0.00  0.00    -0.000 C 
ATOM     34  C   UNL     1      34.464  -9.158 -24.061  0.00  0.00    -0.000 C 
ENDBRANCH  28  29
ENDBRANCH  25  28
ENDBRANCH  23  26
ENDBRANCH   3  23
TORSDOF 9
ENDMDL
MODEL 3
REMARK VINA RESULT:     -11.7      2.095      3.121
REMARK  Name = 23635314
REMARK  9 active torsions:
REMARK  status: ('A' for Active; 'I' for Inactive)
REMARK    1  A    between atoms: C_2  and  C_8
REMARK    2  A    between atoms: C_3  and  C_23
REMARK    3  A    between atoms: C_7  and  O_13
REMARK    4  A    between atoms: O_13  and  C_14
REMARK    5  A    between atoms: C_14  and  C_15
REMARK    6  A    between atoms: C_15  and  N_17
REMARK    7  A    between atoms: C_23  and  C_26
REMARK    8  A    between atoms: N_25  and  C_28
REMARK    9  A    between atoms: C_28  and  C_29
REMARK                            x       y       z     vdW  Elec       q    Type
REMARK                         _______ _______ _______ _____ _____    ______ ____
ROOT
ATOM      1  N   UNL     1      35.712 -16.948 -22.238  0.00  0.00    -0.248 NA
ATOM      2  C   UNL     1      34.908 -19.133 -21.594  0.00  0.00    +0.019 C 
ATOM      3  C   UNL     1      35.353 -17.243 -23.508  0.00  0.00    +0.068 C 
ATOM      4  C   UNL     1      34.551 -19.401 -22.910  0.00  0.00    +0.003 C 
ATOM      5  C   UNL     1      35.479 -17.904 -21.311  0.00  0.00    +0.098 C 
ATOM      6  C   UNL     1      34.776 -18.443 -23.892  0.00  0.00    +0.015 C 
ENDROOT
BRANCH   2   8
ATOM      7  C   UNL     1      34.266 -21.986 -18.542  0.00  0.00    +0.138 C 
ATOM      8  C   UNL     1      34.688 -20.109 -20.550  0.00  0.00    +0.002 C 
ATOM      9  C   UNL     1      33.177 -21.363 -19.142  0.00  0.00    +0.037 C 
ATOM     10  C   UNL     1      35.564 -21.679 -18.936  0.00  0.00    +0.037 C 
ATOM     11  C   UNL     1      33.389 -20.422 -20.149  0.00  0.00    +0.003 C 
ATOM     12  C   UNL     1      35.775 -20.738 -19.943  0.00  0.00    +0.003 C 
BRANCH   7  13
ATOM     13  O   UNL     1      34.058 -22.910 -17.551  0.00  0.00    -0.478 OA
BRANCH  13  14
ATOM     14  C   UNL     1      34.846 -22.777 -16.375  0.00  0.00    +0.183 C 
BRANCH  14  15
ATOM     15  C   UNL     1      34.364 -23.787 -15.347  0.00  0.00    -0.029 C 
BRANCH  15  17
ATOM     16  O   UNL     1      36.504 -25.339 -12.087  0.00  0.00    -0.358 OA
ATOM     17  N   UNL     1      35.335 -23.927 -14.265  0.00  0.00    +0.393 N 
ATOM     18  C   UNL     1      34.658 -24.032 -12.965  0.00  0.00    -0.044 C 
ATOM     19  C   UNL     1      36.194 -25.100 -14.482  0.00  0.00    -0.044 C 
ATOM     20  C   UNL     1      35.692 -24.187 -11.854  0.00  0.00    +0.119 C 
ATOM     21  C   UNL     1      37.191 -25.231 -13.335  0.00  0.00    +0.119 C 
ATOM     22  H   UNL     1      35.920 -23.091 -14.261  0.00  0.00    -0.079 HD
ENDBRANCH  15  17
ENDBRANCH  14  15
ENDBRANCH  13  14
ENDBRANCH   7  13
ENDBRANCH   2   8
BRANCH   3  23
ATOM     23  C   UNL     1      35.608 -16.192 -24.536  0.00  0.00    +0.131 C 
BRANCH  23  26
ATOM     24  O   UNL     1      33.519 -15.441 -25.505  0.00  0.00    -0.275 OA
ATOM     25  N   UNL     1      34.574 -14.097 -23.933  0.00  0.00    -0.300 N 
ATOM     26  C   UNL     1      34.447 -15.227 -24.729  0.00  0.00    +0.229 C 
ATOM     27  H   UNL     1      35.359 -14.020 -23.342  0.00  0.00    +0.150 HD
BRANCH  25  28
ATOM     28  C   UNL     1      33.602 -13.029 -23.937  0.00  0.00    +0.116 C 
BRANCH  28  29
ATOM     29  C   UNL     1      33.082 -12.739 -22.559  0.00  0.00    -0.003 C 
ATOM     30  C   UNL     1      32.375 -11.566 -22.324  0.00  0.00    -0.003 C 
ATOM     31  C   UNL     1      33.313 -13.646 -21.531  0.00  0.00    -0.003 C 
ATOM     32  C   UNL     1      31.892 -11.296 -21.044  0.00  0.00    -0.000 C 
ATOM     33  C   UNL     1      32.830 -13.376 -20.251  0.00  0.00    -0.000 C 
ATOM     34  C   UNL     1      32.120 -12.200 -20.007  0.00  0.00    -0.000 C 
ENDBRANCH  28  29
ENDBRANCH  25  28
ENDBRANCH  23  26
ENDBRANCH   3  23
TORSDOF 9
ENDMDL
MODEL 4
REMARK VINA RESULT:     -11.6      2.341     10.933
REMARK  Name = 23635314
REMARK  9 active torsions:
REMARK  status: ('A' for Active; 'I' for Inactive)
REMARK    1  A    between atoms: C_2  and  C_8
REMARK    2  A    between atoms: C_3  and  C_23
REMARK    3  A    between atoms: C_7  and  O_13
REMARK    4  A    between atoms: O_13  and  C_14
REMARK    5  A    between atoms: C_14  and  C_15
REMARK    6  A    between atoms: C_15  and  N_17
REMARK    7  A    between atoms: C_23  and  C_26
REMARK    8  A    between atoms: N_25  and  C_28
REMARK    9  A    between atoms: C_28  and  C_29
REMARK                            x       y       z     vdW  Elec       q    Type
REMARK                         _______ _______ _______ _____ _____    ______ ____
ROOT
ATOM      1  N   UNL     1      34.272 -23.589 -16.290  0.00  0.00    -0.248 NA
ATOM      2  C   UNL     1      35.195 -21.983 -17.840  0.00  0.00    +0.019 C 
ATOM      3  C   UNL     1      35.427 -23.508 -15.593  0.00  0.00    +0.068 C 
ATOM      4  C   UNL     1      36.368 -21.926 -17.098  0.00  0.00    +0.003 C 
ATOM      5  C   UNL     1      34.185 -22.821 -17.399  0.00  0.00    +0.098 C 
ATOM      6  C   UNL     1      36.494 -22.701 -15.951  0.00  0.00    +0.015 C 
ENDROOT
BRANCH   2   8
ATOM      7  C   UNL     1      34.721 -19.662 -21.341  0.00  0.00    +0.138 C 
ATOM      8  C   UNL     1      35.033 -21.189 -19.038  0.00  0.00    +0.002 C 
ATOM      9  C   UNL     1      35.998 -19.935 -20.864  0.00  0.00    +0.037 C 
ATOM     10  C   UNL     1      33.598 -20.144 -20.677  0.00  0.00    +0.037 C 
ATOM     11  C   UNL     1      36.154 -20.701 -19.709  0.00  0.00    +0.003 C 
ATOM     12  C   UNL     1      33.755 -20.910 -19.522  0.00  0.00    +0.003 C 
BRANCH   7  13
ATOM     13  O   UNL     1      34.567 -18.909 -22.476  0.00  0.00    -0.478 OA
BRANCH  13  14
ATOM     14  C   UNL     1      35.355 -17.730 -22.574  0.00  0.00    +0.183 C 
BRANCH  14  15
ATOM     15  C   UNL     1      35.383 -17.280 -24.025  0.00  0.00    -0.029 C 
BRANCH  15  17
ATOM     16  O   UNL     1      33.451 -13.570 -23.678  0.00  0.00    -0.358 OA
ATOM     17  N   UNL     1      35.092 -15.852 -24.129  0.00  0.00    +0.393 N 
ATOM     18  C   UNL     1      33.864 -15.623 -24.902  0.00  0.00    -0.044 C 
ATOM     19  C   UNL     1      34.968 -15.245 -22.796  0.00  0.00    -0.044 C 
ATOM     20  C   UNL     1      33.576 -14.128 -24.987  0.00  0.00    +0.119 C 
ATOM     21  C   UNL     1      34.653 -13.759 -22.930  0.00  0.00    +0.119 C 
ATOM     22  H   UNL     1      35.871 -15.409 -24.617  0.00  0.00    -0.079 HD
ENDBRANCH  15  17
ENDBRANCH  14  15
ENDBRANCH  13  14
ENDBRANCH   7  13
ENDBRANCH   2   8
BRANCH   3  23
ATOM     23  C   UNL     1      35.528 -24.354 -14.367  0.00  0.00    +0.131 C 
BRANCH  23  26
ATOM     24  O   UNL     1      34.316 -23.640 -12.395  0.00  0.00    -0.275 OA
ATOM     25  N   UNL     1      33.227 -24.960 -13.965  0.00  0.00    -0.300 N 
ATOM     26  C   UNL     1      34.313 -24.261 -13.455  0.00  0.00    +0.229 C 
ATOM     27  H   UNL     1      33.327 -25.427 -14.826  0.00  0.00    +0.150 HD
BRANCH  25  28
ATOM     28  C   UNL     1      31.956 -25.028 -13.283  0.00  0.00    +0.116 C 
BRANCH  28  29
ATOM     29  C   UNL     1      30.862 -24.361 -14.066  0.00  0.00    -0.003 C 
ATOM     30  C   UNL     1      30.829 -22.975 -14.157  0.00  0.00    -0.003 C 
ATOM     31  C   UNL     1      29.895 -25.138 -14.694  0.00  0.00    -0.003 C 
ATOM     32  C   UNL     1      29.813 -22.355 -14.885  0.00  0.00    -0.000 C 
ATOM     33  C   UNL     1      28.879 -24.518 -15.422  0.00  0.00    -0.000 C 
ATOM     34  C   UNL     1      28.838 -23.127 -15.517  0.00  0.00    -0.000 C 
ENDBRANCH  28  29
ENDBRANCH  25  28
ENDBRANCH  23  26
ENDBRANCH   3  23
TORSDOF 9
ENDMDL
MODEL 5
REMARK VINA RESULT:     -11.5      2.433      3.648
REMARK  Name = 23635314
REMARK  9 active torsions:
REMARK  status: ('A' for Active; 'I' for Inactive)
REMARK    1  A    between atoms: C_2  and  C_8
REMARK    2  A    between atoms: C_3  and  C_23
REMARK    3  A    between atoms: C_7  and  O_13
REMARK    4  A    between atoms: O_13  and  C_14
REMARK    5  A    between atoms: C_14  and  C_15
REMARK    6  A    between atoms: C_15  and  N_17
REMARK    7  A    between atoms: C_23  and  C_26
REMARK    8  A    between atoms: N_25  and  C_28
REMARK    9  A    between atoms: C_28  and  C_29
REMARK                            x       y       z     vdW  Elec       q    Type
REMARK                         _______ _______ _______ _____ _____    ______ ____
ROOT
ATOM      1  N   UNL     1      35.698 -16.820 -22.230  0.00  0.00    -0.248 NA
ATOM      2  C   UNL     1      35.023 -19.056 -21.613  0.00  0.00    +0.019 C 
ATOM      3  C   UNL     1      35.314 -17.105 -23.495  0.00  0.00    +0.068 C 
ATOM      4  C   UNL     1      34.640 -19.313 -22.924  0.00  0.00    +0.003 C 
ATOM      5  C   UNL     1      35.541 -17.806 -21.319  0.00  0.00    +0.098 C 
ATOM      6  C   UNL     1      34.786 -18.324 -23.889  0.00  0.00    +0.015 C 
ENDROOT
BRANCH   2   8
ATOM      7  C   UNL     1      34.616 -22.004 -18.611  0.00  0.00    +0.138 C 
ATOM      8  C   UNL     1      34.884 -20.065 -20.586  0.00  0.00    +0.002 C 
ATOM      9  C   UNL     1      35.885 -21.618 -19.030  0.00  0.00    +0.037 C 
ATOM     10  C   UNL     1      33.480 -21.430 -19.171  0.00  0.00    +0.037 C 
ATOM     11  C   UNL     1      36.019 -20.646 -20.020  0.00  0.00    +0.003 C 
ATOM     12  C   UNL     1      33.615 -20.457 -20.161  0.00  0.00    +0.003 C 
BRANCH   7  13
ATOM     13  O   UNL     1      34.484 -22.960 -17.638  0.00  0.00    -0.478 OA
BRANCH  13  14
ATOM     14  C   UNL     1      34.891 -22.599 -16.325  0.00  0.00    +0.183 C 
BRANCH  14  15
ATOM     15  C   UNL     1      34.618 -23.765 -15.390  0.00  0.00    -0.029 C 
BRANCH  15  17
ATOM     16  O   UNL     1      38.234 -23.982 -13.271  0.00  0.00    -0.358 OA
ATOM     17  N   UNL     1      35.864 -24.273 -14.819  0.00  0.00    +0.393 N 
ATOM     18  C   UNL     1      37.016 -23.507 -15.314  0.00  0.00    -0.044 C 
ATOM     19  C   UNL     1      35.822 -24.228 -13.351  0.00  0.00    -0.044 C 
ATOM     20  C   UNL     1      38.301 -24.048 -14.696  0.00  0.00    +0.119 C 
ATOM     21  C   UNL     1      37.136 -24.751 -12.779  0.00  0.00    +0.119 C 
ATOM     22  H   UNL     1      35.968 -25.244 -15.113  0.00  0.00    -0.079 HD
ENDBRANCH  15  17
ENDBRANCH  14  15
ENDBRANCH  13  14
ENDBRANCH   7  13
ENDBRANCH   2   8
BRANCH   3  23
ATOM     23  C   UNL     1      35.485 -16.020 -24.506  0.00  0.00    +0.131 C 
BRANCH  23  26
ATOM     24  O   UNL     1      33.499 -15.170 -25.601  0.00  0.00    -0.275 OA
ATOM     25  N   UNL     1      34.153 -14.235 -23.578  0.00  0.00    -0.300 N 
ATOM     26  C   UNL     1      34.270 -15.115 -24.646  0.00  0.00    +0.229 C 
ATOM     27  H   UNL     1      34.825 -14.272 -22.860  0.00  0.00    +0.150 HD
BRANCH  25  28
ATOM     28  C   UNL     1      33.083 -13.270 -23.480  0.00  0.00    +0.116 C 
BRANCH  28  29
ATOM     29  C   UNL     1      33.571 -11.867 -23.695  0.00  0.00    -0.003 C 
ATOM     30  C   UNL     1      34.567 -11.622 -24.633  0.00  0.00    -0.003 C 
ATOM     31  C   UNL     1      33.023 -10.826 -22.954  0.00  0.00    -0.003 C 
ATOM     32  C   UNL     1      35.021 -10.318 -24.834  0.00  0.00    -0.000 C 
ATOM     33  C   UNL     1      33.477  -9.523 -23.154  0.00  0.00    -0.000 C 
ATOM     34  C   UNL     1      34.477  -9.269 -24.094  0.00  0.00    -0.000 C 
ENDBRANCH  28  29
ENDBRANCH  25  28
ENDBRANCH  23  26
ENDBRANCH   3  23
TORSDOF 9
ENDMDL
MODEL 6
REMARK VINA RESULT:     -10.9      3.857     11.851
REMARK  Name = 23635314
REMARK  9 active torsions:
REMARK  status: ('A' for Active; 'I' for Inactive)
REMARK    1  A    between atoms: C_2  and  C_8
REMARK    2  A    between atoms: C_3  and  C_23
REMARK    3  A    between atoms: C_7  and  O_13
REMARK    4  A    between atoms: O_13  and  C_14
REMARK    5  A    between atoms: C_14  and  C_15
REMARK    6  A    between atoms: C_15  and  N_17
REMARK    7  A    between atoms: C_23  and  C_26
REMARK    8  A    between atoms: N_25  and  C_28
REMARK    9  A    between atoms: C_28  and  C_29
REMARK                            x       y       z     vdW  Elec       q    Type
REMARK                         _______ _______ _______ _____ _____    ______ ____
ROOT
ATOM      1  N   UNL     1      35.172 -15.905 -22.525  0.00  0.00    -0.248 NA
ATOM      2  C   UNL     1      33.960 -13.946 -23.250  0.00  0.00    +0.019 C 
ATOM      3  C   UNL     1      34.940 -16.441 -23.744  0.00  0.00    +0.068 C 
ATOM      4  C   UNL     1      33.740 -14.529 -24.492  0.00  0.00    +0.003 C 
ATOM      5  C   UNL     1      34.674 -14.667 -22.309  0.00  0.00    +0.098 C 
ATOM      6  C   UNL     1      34.237 -15.801 -24.752  0.00  0.00    +0.015 C 
ENDROOT
BRANCH   2   8
ATOM      7  C   UNL     1      32.488 -10.082 -22.370  0.00  0.00    +0.138 C 
ATOM      8  C   UNL     1      33.456 -12.624 -22.949  0.00  0.00    +0.002 C 
ATOM      9  C   UNL     1      33.383 -10.255 -23.419  0.00  0.00    +0.037 C 
ATOM     10  C   UNL     1      32.073 -11.168 -21.606  0.00  0.00    +0.037 C 
ATOM     11  C   UNL     1      33.868 -11.530 -23.710  0.00  0.00    +0.003 C 
ATOM     12  C   UNL     1      32.559 -12.442 -21.897  0.00  0.00    +0.003 C 
BRANCH   7  13
ATOM     13  O   UNL     1      32.011  -8.830 -22.083  0.00  0.00    -0.478 OA
BRANCH  13  14
ATOM     14  C   UNL     1      32.534  -8.195 -20.924  0.00  0.00    +0.183 C 
BRANCH  14  15
ATOM     15  C   UNL     1      32.823  -6.739 -21.252  0.00  0.00    -0.029 C 
BRANCH  15  17
ATOM     16  O   UNL     1      35.058  -5.454 -24.564  0.00  0.00    -0.358 OA
ATOM     17  N   UNL     1      33.336  -6.609 -22.614  0.00  0.00    +0.393 N 
ATOM     18  C   UNL     1      33.113  -5.251 -23.129  0.00  0.00    -0.044 C 
ATOM     19  C   UNL     1      34.767  -6.939 -22.668  0.00  0.00    -0.044 C 
ATOM     20  C   UNL     1      33.666  -5.137 -24.546  0.00  0.00    +0.119 C 
ATOM     21  C   UNL     1      35.281  -6.785 -24.096  0.00  0.00    +0.119 C 
ATOM     22  H   UNL     1      32.827  -7.268 -23.204  0.00  0.00    -0.079 HD
ENDBRANCH  15  17
ENDBRANCH  14  15
ENDBRANCH  13  14
ENDBRANCH   7  13
ENDBRANCH   2   8
BRANCH   3  23
ATOM     23  C   UNL     1      35.487 -17.809 -23.988  0.00  0.00    +0.131 C 
BRANCH  23  26
ATOM     24  O   UNL     1      37.567 -18.265 -22.834  0.00  0.00    -0.275 OA
ATOM     25  N   UNL     1      35.569 -18.915 -21.845  0.00  0.00    -0.300 N 
ATOM     26  C   UNL     1      36.341 -18.340 -22.846  0.00  0.00    +0.229 C 
ATOM     27  H   UNL     1      34.590 -18.925 -21.950  0.00  0.00    +0.150 HD
BRANCH  25  28
ATOM     28  C   UNL     1      36.146 -19.496 -20.655  0.00  0.00    +0.116 C 
BRANCH  28  29
ATOM     29  C   UNL     1      35.179 -20.399 -19.947  0.00  0.00    -0.003 C 
ATOM     30  C   UNL     1      35.657 -21.365 -19.069  0.00  0.00    -0.003 C 
ATOM     31  C   UNL     1      33.814 -20.260 -20.175  0.00  0.00    -0.003 C 
ATOM     32  C   UNL     1      34.758 -22.204 -18.410  0.00  0.00    -0.000 C 
ATOM     33  C   UNL     1      32.916 -21.100 -19.516  0.00  0.00    -0.000 C 
ATOM     34  C   UNL     1      33.388 -22.073 -18.634  0.00  0.00    -0.000 C 
ENDBRANCH  28  29
ENDBRANCH  25  28
ENDBRANCH  23  26
ENDBRANCH   3  23
TORSDOF 9
ENDMDL
MODEL 7
REMARK VINA RESULT:     -10.9      3.624     11.549
REMARK  Name = 23635314
REMARK  9 active torsions:
REMARK  status: ('A' for Active; 'I' for Inactive)
REMARK    1  A    between atoms: C_2  and  C_8
REMARK    2  A    between atoms: C_3  and  C_23
REMARK    3  A    between atoms: C_7  and  O_13
REMARK    4  A    between atoms: O_13  and  C_14
REMARK    5  A    between atoms: C_14  and  C_15
REMARK    6  A    between atoms: C_15  and  N_17
REMARK    7  A    between atoms: C_23  and  C_26
REMARK    8  A    between atoms: N_25  and  C_28
REMARK    9  A    between atoms: C_28  and  C_29
REMARK                            x       y       z     vdW  Elec       q    Type
REMARK                         _______ _______ _______ _____ _____    ______ ____
ROOT
ATOM      1  N   UNL     1      34.787 -23.289 -15.541  0.00  0.00    -0.248 NA
ATOM      2  C   UNL     1      33.978 -22.234 -17.558  0.00  0.00    +0.019 C 
ATOM      3  C   UNL     1      33.514 -23.663 -15.283  0.00  0.00    +0.068 C 
ATOM      4  C   UNL     1      32.682 -22.634 -17.259  0.00  0.00    +0.003 C 
ATOM      5  C   UNL     1      34.987 -22.582 -16.676  0.00  0.00    +0.098 C 
ATOM      6  C   UNL     1      32.436 -23.363 -16.101  0.00  0.00    +0.015 C 
ENDROOT
BRANCH   2   8
ATOM      7  C   UNL     1      34.818 -20.014 -21.056  0.00  0.00    +0.138 C 
ATOM      8  C   UNL     1      34.266 -21.475 -18.755  0.00  0.00    +0.002 C 
ATOM      9  C   UNL     1      35.862 -20.576 -20.329  0.00  0.00    +0.037 C 
ATOM     10  C   UNL     1      33.499 -20.175 -20.642  0.00  0.00    +0.037 C 
ATOM     11  C   UNL     1      35.585 -21.309 -19.176  0.00  0.00    +0.003 C 
ATOM     12  C   UNL     1      33.223 -20.907 -19.488  0.00  0.00    +0.003 C 
BRANCH   7  13
ATOM     13  O   UNL     1      35.090 -19.294 -22.189  0.00  0.00    -0.478 OA
BRANCH  13  14
ATOM     14  C   UNL     1      35.580 -17.972 -22.006  0.00  0.00    +0.183 C 
BRANCH  14  15
ATOM     15  C   UNL     1      35.914 -17.382 -23.366  0.00  0.00    -0.029 C 
BRANCH  15  17
ATOM     16  O   UNL     1      33.540 -13.921 -23.291  0.00  0.00    -0.358 OA
ATOM     17  N   UNL     1      35.497 -15.983 -23.439  0.00  0.00    +0.393 N 
ATOM     18  C   UNL     1      34.503 -15.788 -24.504  0.00  0.00    -0.044 C 
ATOM     19  C   UNL     1      34.949 -15.534 -22.151  0.00  0.00    -0.044 C 
ATOM     20  C   UNL     1      34.076 -14.324 -24.552  0.00  0.00    +0.119 C 
ATOM     21  C   UNL     1      34.510 -14.076 -22.254  0.00  0.00    +0.119 C 
ATOM     22  H   UNL     1      36.321 -15.422 -23.656  0.00  0.00    -0.079 HD
ENDBRANCH  15  17
ENDBRANCH  14  15
ENDBRANCH  13  14
ENDBRANCH   7  13
ENDBRANCH   2   8
BRANCH   3  23
ATOM     23  C   UNL     1      33.286 -24.443 -14.031  0.00  0.00    +0.131 C 
BRANCH  23  26
ATOM     24  O   UNL     1      34.304 -23.595 -12.003  0.00  0.00    -0.275 OA
ATOM     25  N   UNL     1      35.523 -25.040 -13.349  0.00  0.00    -0.300 N 
ATOM     26  C   UNL     1      34.402 -24.297 -13.006  0.00  0.00    +0.229 C 
ATOM     27  H   UNL     1      35.501 -25.573 -14.178  0.00  0.00    +0.150 HD
BRANCH  25  28
ATOM     28  C   UNL     1      36.718 -25.065 -12.539  0.00  0.00    +0.116 C 
BRANCH  28  29
ATOM     29  C   UNL     1      37.964 -25.052 -13.377  0.00  0.00    -0.003 C 
ATOM     30  C   UNL     1      39.053 -25.829 -13.001  0.00  0.00    -0.003 C 
ATOM     31  C   UNL     1      38.016 -24.262 -14.520  0.00  0.00    -0.003 C 
ATOM     32  C   UNL     1      40.211 -25.817 -13.780  0.00  0.00    -0.000 C 
ATOM     33  C   UNL     1      39.174 -24.250 -15.298  0.00  0.00    -0.000 C 
ATOM     34  C   UNL     1      40.272 -25.027 -14.927  0.00  0.00    -0.000 C 
ENDBRANCH  28  29
ENDBRANCH  25  28
ENDBRANCH  23  26
ENDBRANCH   3  23
TORSDOF 9
ENDMDL
MODEL 8
REMARK VINA RESULT:     -10.9      4.293     12.100
REMARK  Name = 23635314
REMARK  9 active torsions:
REMARK  status: ('A' for Active; 'I' for Inactive)
REMARK    1  A    between atoms: C_2  and  C_8
REMARK    2  A    between atoms: C_3  and  C_23
REMARK    3  A    between atoms: C_7  and  O_13
REMARK    4  A    between atoms: O_13  and  C_14
REMARK    5  A    between atoms: C_14  and  C_15
REMARK    6  A    between atoms: C_15  and  N_17
REMARK    7  A    between atoms: C_23  and  C_26
REMARK    8  A    between atoms: N_25  and  C_28
REMARK    9  A    between atoms: C_28  and  C_29
REMARK                            x       y       z     vdW  Elec       q    Type
REMARK                         _______ _______ _______ _____ _____    ______ ____
ROOT
ATOM      1  N   UNL     1      34.328 -16.150 -24.890  0.00  0.00    -0.248 NA
ATOM      2  C   UNL     1      34.261 -14.087 -23.634  0.00  0.00    +0.019 C 
ATOM      3  C   UNL     1      34.941 -16.720 -23.828  0.00  0.00    +0.068 C 
ATOM      4  C   UNL     1      34.893 -14.707 -22.563  0.00  0.00    +0.003 C 
ATOM      5  C   UNL     1      34.002 -14.844 -24.765  0.00  0.00    +0.098 C 
ATOM      6  C   UNL     1      35.243 -16.049 -22.655  0.00  0.00    +0.015 C 
ENDROOT
BRANCH   2   8
ATOM      7  C   UNL     1      33.159 -10.010 -23.447  0.00  0.00    +0.138 C 
ATOM      8  C   UNL     1      33.884 -12.692 -23.570  0.00  0.00    +0.002 C 
ATOM      9  C   UNL     1      33.976 -10.456 -24.480  0.00  0.00    +0.037 C 
ATOM     10  C   UNL     1      32.702 -10.893 -22.473  0.00  0.00    +0.037 C 
ATOM     11  C   UNL     1      34.339 -11.801 -24.542  0.00  0.00    +0.003 C 
ATOM     12  C   UNL     1      33.066 -12.237 -22.536  0.00  0.00    +0.003 C 
BRANCH   7  13
ATOM     13  O   UNL     1      32.803  -8.688 -23.385  0.00  0.00    -0.478 OA
BRANCH  13  14
ATOM     14  C   UNL     1      32.966  -8.038 -22.131  0.00  0.00    +0.183 C 
BRANCH  14  15
ATOM     15  C   UNL     1      33.822  -6.799 -22.331  0.00  0.00    -0.029 C 
BRANCH  15  17
ATOM     16  O   UNL     1      30.812  -3.887 -22.603  0.00  0.00    -0.358 OA
ATOM     17  N   UNL     1      33.039  -5.587 -22.100  0.00  0.00    +0.393 N 
ATOM     18  C   UNL     1      32.947  -4.783 -23.327  0.00  0.00    -0.044 C 
ATOM     19  C   UNL     1      31.693  -5.920 -21.614  0.00  0.00    -0.044 C 
ATOM     20  C   UNL     1      32.116  -3.531 -23.064  0.00  0.00    +0.119 C 
ATOM     21  C   UNL     1      30.891  -4.641 -21.392  0.00  0.00    +0.119 C 
ATOM     22  H   UNL     1      33.517  -5.038 -21.386  0.00  0.00    -0.079 HD
ENDBRANCH  15  17
ENDBRANCH  14  15
ENDBRANCH  13  14
ENDBRANCH   7  13
ENDBRANCH   2   8
BRANCH   3  23
ATOM     23  C   UNL     1      35.303 -18.162 -23.961  0.00  0.00    +0.131 C 
BRANCH  23  26
ATOM     24  O   UNL     1      37.408 -18.519 -22.816  0.00  0.00    -0.275 OA
ATOM     25  N   UNL     1      35.457 -19.340 -21.861  0.00  0.00    -0.300 N 
ATOM     26  C   UNL     1      36.189 -18.677 -22.836  0.00  0.00    +0.229 C 
ATOM     27  H   UNL     1      34.481 -19.413 -21.970  0.00  0.00    +0.150 HD
BRANCH  25  28
ATOM     28  C   UNL     1      36.070 -19.925 -20.691  0.00  0.00    +0.116 C 
BRANCH  28  29
ATOM     29  C   UNL     1      35.077 -20.680 -19.855  0.00  0.00    -0.003 C 
ATOM     30  C   UNL     1      35.527 -21.603 -18.919  0.00  0.00    -0.003 C 
ATOM     31  C   UNL     1      33.717 -20.446 -20.026  0.00  0.00    -0.003 C 
ATOM     32  C   UNL     1      34.604 -22.304 -18.143  0.00  0.00    -0.000 C 
ATOM     33  C   UNL     1      32.794 -21.147 -19.249  0.00  0.00    -0.000 C 
ATOM     34  C   UNL     1      33.239 -22.077 -18.308  0.00  0.00    -0.000 C 
ENDBRANCH  28  29
ENDBRANCH  25  28
ENDBRANCH  23  26
ENDBRANCH   3  23
TORSDOF 9
ENDMDL
MODEL 9
REMARK VINA RESULT:     -10.8      4.054      7.234
REMARK  Name = 23635314
REMARK  9 active torsions:
REMARK  status: ('A' for Active; 'I' for Inactive)
REMARK    1  A    between atoms: C_2  and  C_8
REMARK    2  A    between atoms: C_3  and  C_23
REMARK    3  A    between atoms: C_7  and  O_13
REMARK    4  A    between atoms: O_13  and  C_14
REMARK    5  A    between atoms: C_14  and  C_15
REMARK    6  A    between atoms: C_15  and  N_17
REMARK    7  A    between atoms: C_23  and  C_26
REMARK    8  A    between atoms: N_25  and  C_28
REMARK    9  A    between atoms: C_28  and  C_29
REMARK                            x       y       z     vdW  Elec       q    Type
REMARK                         _______ _______ _______ _____ _____    ______ ____
ROOT
ATOM      1  N   UNL     1      32.026 -11.829 -20.351  0.00  0.00    -0.248 NA
ATOM      2  C   UNL     1      33.445 -13.077 -21.855  0.00  0.00    +0.019 C 
ATOM      3  C   UNL     1      32.035 -10.823 -21.254  0.00  0.00    +0.068 C 
ATOM      4  C   UNL     1      33.433 -12.021 -22.759  0.00  0.00    +0.003 C 
ATOM      5  C   UNL     1      32.733 -12.934 -20.676  0.00  0.00    +0.098 C 
ATOM      6  C   UNL     1      32.716 -10.868 -22.459  0.00  0.00    +0.015 C 
ENDROOT
BRANCH   2   8
ATOM      7  C   UNL     1      35.596 -16.621 -22.681  0.00  0.00    +0.138 C 
ATOM      8  C   UNL     1      34.181 -14.290 -22.138  0.00  0.00    +0.002 C 
ATOM      9  C   UNL     1      35.345 -16.260 -21.363  0.00  0.00    +0.037 C 
ATOM     10  C   UNL     1      35.148 -15.827 -23.732  0.00  0.00    +0.037 C 
ATOM     11  C   UNL     1      34.635 -15.091 -21.090  0.00  0.00    +0.003 C 
ATOM     12  C   UNL     1      34.438 -14.658 -23.458  0.00  0.00    +0.003 C 
BRANCH   7  13
ATOM     13  O   UNL     1      36.294 -17.769 -22.950  0.00  0.00    -0.478 OA
BRANCH  13  14
ATOM     14  C   UNL     1      35.751 -18.982 -22.444  0.00  0.00    +0.183 C 
BRANCH  14  15
ATOM     15  C   UNL     1      36.452 -19.325 -21.140  0.00  0.00    -0.029 C 
BRANCH  15  17
ATOM     16  O   UNL     1      33.686 -21.952 -19.389  0.00  0.00    -0.358 OA
ATOM     17  N   UNL     1      35.515 -19.924 -20.192  0.00  0.00    +0.393 N 
ATOM     18  C   UNL     1      34.171 -20.023 -20.778  0.00  0.00    -0.044 C 
ATOM     19  C   UNL     1      35.978 -21.252 -19.768  0.00  0.00    -0.044 C 
ATOM     20  C   UNL     1      33.214 -20.660 -19.775  0.00  0.00    +0.119 C 
ATOM     21  C   UNL     1      34.979 -21.861 -18.789  0.00  0.00    +0.119 C 
ATOM     22  H   UNL     1      35.469 -19.318 -19.373  0.00  0.00    -0.079 HD
ENDBRANCH  15  17
ENDBRANCH  14  15
ENDBRANCH  13  14
ENDBRANCH   7  13
ENDBRANCH   2   8
BRANCH   3  23
ATOM     23  C   UNL     1      31.256  -9.600 -20.899  0.00  0.00    +0.131 C 
BRANCH  23  26
ATOM     24  O   UNL     1      32.933  -8.275 -19.760  0.00  0.00    -0.275 OA
ATOM     25  N   UNL     1      31.867  -7.378 -21.617  0.00  0.00    -0.300 N 
ATOM     26  C   UNL     1      32.119  -8.367 -20.676  0.00  0.00    +0.229 C 
ATOM     27  H   UNL     1      31.192  -7.551 -22.314  0.00  0.00    +0.150 HD
BRANCH  25  28
ATOM     28  C   UNL     1      32.556  -6.109 -21.618  0.00  0.00    +0.116 C 
BRANCH  28  29
ATOM     29  C   UNL     1      33.503  -5.985 -22.776  0.00  0.00    -0.003 C 
ATOM     30  C   UNL     1      34.572  -6.866 -22.886  0.00  0.00    -0.003 C 
ATOM     31  C   UNL     1      33.301  -4.991 -23.726  0.00  0.00    -0.003 C 
ATOM     32  C   UNL     1      35.453  -6.751 -23.962  0.00  0.00    -0.000 C 
ATOM     33  C   UNL     1      34.181  -4.876 -24.802  0.00  0.00    -0.000 C 
ATOM     34  C   UNL     1      35.258  -5.756 -24.919  0.00  0.00    -0.000 C 
ENDBRANCH  28  29
ENDBRANCH  25  28
ENDBRANCH  23  26
ENDBRANCH   3  23
TORSDOF 9
ENDMDL
