MODEL 1
REMARK VINA RESULT:     -11.6      0.000      0.000
REMARK  Name = 23586146
REMARK  5 active torsions:
REMARK  status: ('A' for Active; 'I' for Inactive)
REMARK    1  A    between atoms: N_1  and  C_12
REMARK    2  A    between atoms: C_8  and  N_18
REMARK    3  A    between atoms: N_18  and  C_20
REMARK    4  A    between atoms: C_23  and  S_26
REMARK    5  A    between atoms: S_26  and  N_29
REMARK                            x       y       z     vdW  Elec       q    Type
REMARK                         _______ _______ _______ _____ _____    ______ ____
ROOT
ATOM      1  N   UNL     1      35.553 -24.155 -14.676  0.00  0.00    -0.309 N 
ATOM      2  N   UNL     1      33.309 -23.718 -14.462  0.00  0.00    -0.321 NA
ATOM      3  N   UNL     1      32.099 -22.902 -16.370  0.00  0.00    -0.106 N 
ATOM      4  N   UNL     1      30.828 -22.531 -16.678  0.00  0.00    -0.139 NA
ATOM      5  N   UNL     1      30.947 -23.181 -14.499  0.00  0.00    -0.145 NA
ATOM      6  C   UNL     1      34.389 -23.745 -15.207  0.00  0.00    +0.196 C 
ATOM      7  C   UNL     1      34.391 -23.330 -16.654  0.00  0.00    +0.081 C 
ATOM      8  C   UNL     1      33.232 -22.919 -17.188  0.00  0.00    +0.140 C 
ATOM      9  C   UNL     1      32.148 -23.296 -15.031  0.00  0.00    +0.176 C 
ATOM     10  C   UNL     1      30.191 -22.719 -15.526  0.00  0.00    +0.230 C 
ATOM     11  H   UNL     1      36.356 -24.154 -15.244  0.00  0.00    +0.149 HD
ENDROOT
BRANCH   1  12
ATOM     12  C   UNL     1      35.676 -24.600 -13.301  0.00  0.00    +0.071 C 
ATOM     13  C   UNL     1      36.707 -25.729 -13.203  0.00  0.00    +0.020 C 
ATOM     14  C   UNL     1      36.048 -23.420 -12.398  0.00  0.00    +0.020 C 
ATOM     15  C   UNL     1      38.141 -25.241 -13.414  0.00  0.00    +0.002 C 
ATOM     16  C   UNL     1      37.483 -22.940 -12.612  0.00  0.00    +0.002 C 
ATOM     17  C   UNL     1      38.485 -24.084 -12.483  0.00  0.00    +0.000 C 
ENDBRANCH   1  12
BRANCH   8  18
ATOM     18  N   UNL     1      33.084 -22.514 -18.483  0.00  0.00    -0.299 N 
ATOM     19  H   UNL     1      32.333 -22.917 -18.976  0.00  0.00    +0.153 HD
BRANCH  18  20
ATOM     20  C   UNL     1      33.862 -21.598 -19.200  0.00  0.00    +0.049 C 
ATOM     21  C   UNL     1      33.247 -20.636 -20.002  0.00  0.00    +0.016 C 
ATOM     22  C   UNL     1      35.254 -21.646 -19.114  0.00  0.00    +0.016 C 
ATOM     23  C   UNL     1      35.415 -19.772 -20.629  0.00  0.00    +0.122 C 
ATOM     24  C   UNL     1      34.023 -19.723 -20.716  0.00  0.00    +0.021 C 
ATOM     25  C   UNL     1      36.029 -20.734 -19.828  0.00  0.00    +0.021 C 
BRANCH  23  26
ATOM     26  S   UNL     1      36.385 -18.630 -21.523  0.00  0.00    +0.057 S 
ATOM     27  O   UNL     1      37.741 -18.663 -20.992  0.00  0.00    -0.153 OA
ATOM     28  O   UNL     1      36.161 -18.844 -22.946  0.00  0.00    -0.153 OA
BRANCH  26  29
ATOM     29  N   UNL     1      35.652 -17.154 -21.069  0.00  0.00    -0.203 NA
ATOM     30  H   UNL     1      34.862 -16.963 -21.683  0.00  0.00    +0.144 HD
ATOM     31  H   UNL     1      36.333 -16.398 -21.146  0.00  0.00    +0.144 HD
ENDBRANCH  26  29
ENDBRANCH  23  26
ENDBRANCH  18  20
ENDBRANCH   8  18
TORSDOF 5
ENDMDL
MODEL 2
REMARK VINA RESULT:     -10.6      1.858      4.725
REMARK  Name = 23586146
REMARK  5 active torsions:
REMARK  status: ('A' for Active; 'I' for Inactive)
REMARK    1  A    between atoms: N_1  and  C_12
REMARK    2  A    between atoms: C_8  and  N_18
REMARK    3  A    between atoms: N_18  and  C_20
REMARK    4  A    between atoms: C_23  and  S_26
REMARK    5  A    between atoms: S_26  and  N_29
REMARK                            x       y       z     vdW  Elec       q    Type
REMARK                         _______ _______ _______ _____ _____    ______ ____
ROOT
ATOM      1  N   UNL     1      31.453 -22.762 -15.757  0.00  0.00    -0.309 N 
ATOM      2  N   UNL     1      33.563 -22.846 -14.856  0.00  0.00    -0.321 NA
ATOM      3  N   UNL     1      35.457 -22.685 -16.324  0.00  0.00    -0.106 N 
ATOM      4  N   UNL     1      36.814 -22.689 -16.228  0.00  0.00    -0.139 NA
ATOM      5  N   UNL     1      35.883 -22.909 -14.162  0.00  0.00    -0.145 NA
ATOM      6  C   UNL     1      32.787 -22.739 -15.909  0.00  0.00    +0.196 C 
ATOM      7  C   UNL     1      33.326 -22.592 -17.307  0.00  0.00    +0.081 C 
ATOM      8  C   UNL     1      34.658 -22.570 -17.464  0.00  0.00    +0.140 C 
ATOM      9  C   UNL     1      34.910 -22.821 -15.047  0.00  0.00    +0.176 C 
ATOM     10  C   UNL     1      37.005 -22.825 -14.920  0.00  0.00    +0.230 C 
ATOM     11  H   UNL     1      30.886 -22.696 -16.558  0.00  0.00    +0.149 HD
ENDROOT
BRANCH   1  12
ATOM     12  C   UNL     1      30.812 -22.877 -14.460  0.00  0.00    +0.071 C 
ATOM     13  C   UNL     1      29.313 -22.589 -14.587  0.00  0.00    +0.020 C 
ATOM     14  C   UNL     1      31.068 -24.268 -13.870  0.00  0.00    +0.020 C 
ATOM     15  C   UNL     1      28.555 -23.699 -15.316  0.00  0.00    +0.002 C 
ATOM     16  C   UNL     1      30.305 -25.372 -14.601  0.00  0.00    +0.002 C 
ATOM     17  C   UNL     1      28.813 -25.064 -14.687  0.00  0.00    +0.000 C 
ENDBRANCH   1  12
BRANCH   8  18
ATOM     18  N   UNL     1      35.287 -22.442 -18.669  0.00  0.00    -0.299 N 
ATOM     19  H   UNL     1      35.759 -23.243 -18.994  0.00  0.00    +0.153 HD
BRANCH  18  20
ATOM     20  C   UNL     1      35.345 -21.320 -19.503  0.00  0.00    +0.049 C 
ATOM     21  C   UNL     1      36.574 -20.719 -19.778  0.00  0.00    +0.016 C 
ATOM     22  C   UNL     1      34.176 -20.801 -20.058  0.00  0.00    +0.016 C 
ATOM     23  C   UNL     1      35.462 -19.081 -21.164  0.00  0.00    +0.122 C 
ATOM     24  C   UNL     1      36.633 -19.600 -20.610  0.00  0.00    +0.021 C 
ATOM     25  C   UNL     1      34.235 -19.682 -20.888  0.00  0.00    +0.021 C 
BRANCH  23  26
ATOM     26  S   UNL     1      35.536 -17.681 -22.204  0.00  0.00    +0.057 S 
ATOM     27  O   UNL     1      34.634 -17.895 -23.327  0.00  0.00    -0.153 OA
ATOM     28  O   UNL     1      35.399 -16.486 -21.383  0.00  0.00    -0.153 OA
BRANCH  26  29
ATOM     29  N   UNL     1      37.147 -17.778 -22.767  0.00  0.00    -0.203 NA
ATOM     30  H   UNL     1      37.735 -18.195 -22.046  0.00  0.00    +0.144 HD
ATOM     31  H   UNL     1      37.488 -16.841 -22.984  0.00  0.00    +0.144 HD
ENDBRANCH  26  29
ENDBRANCH  23  26
ENDBRANCH  18  20
ENDBRANCH   8  18
TORSDOF 5
ENDMDL
MODEL 3
REMARK VINA RESULT:      -9.4      9.115     13.902
REMARK  Name = 23586146
REMARK  5 active torsions:
REMARK  status: ('A' for Active; 'I' for Inactive)
REMARK    1  A    between atoms: N_1  and  C_12
REMARK    2  A    between atoms: C_8  and  N_18
REMARK    3  A    between atoms: N_18  and  C_20
REMARK    4  A    between atoms: C_23  and  S_26
REMARK    5  A    between atoms: S_26  and  N_29
REMARK                            x       y       z     vdW  Elec       q    Type
REMARK                         _______ _______ _______ _____ _____    ______ ____
ROOT
ATOM      1  N   UNL     1      33.504  -8.375 -23.638  0.00  0.00    -0.309 N 
ATOM      2  N   UNL     1      32.709  -9.856 -22.075  0.00  0.00    -0.321 NA
ATOM      3  N   UNL     1      32.918 -12.211 -22.498  0.00  0.00    -0.106 N 
ATOM      4  N   UNL     1      32.603 -13.381 -21.881  0.00  0.00    -0.139 NA
ATOM      5  N   UNL     1      31.954 -11.618 -20.594  0.00  0.00    -0.145 NA
ATOM      6  C   UNL     1      33.295  -9.636 -23.229  0.00  0.00    +0.196 C 
ATOM      7  C   UNL     1      33.751 -10.747 -24.135  0.00  0.00    +0.081 C 
ATOM      8  C   UNL     1      33.543 -12.009 -23.731  0.00  0.00    +0.140 C 
ATOM      9  C   UNL     1      32.512 -11.146 -21.691  0.00  0.00    +0.176 C 
ATOM     10  C   UNL     1      32.033 -12.963 -20.754  0.00  0.00    +0.230 C 
ATOM     11  H   UNL     1      33.930  -8.227 -24.513  0.00  0.00    +0.149 HD
ENDROOT
BRANCH   1  12
ATOM     12  C   UNL     1      33.130  -7.218 -22.845  0.00  0.00    +0.071 C 
ATOM     13  C   UNL     1      34.189  -6.120 -22.982  0.00  0.00    +0.020 C 
ATOM     14  C   UNL     1      31.745  -6.718 -23.267  0.00  0.00    +0.020 C 
ATOM     15  C   UNL     1      34.184  -5.462 -24.363  0.00  0.00    +0.002 C 
ATOM     16  C   UNL     1      31.748  -6.058 -24.646  0.00  0.00    +0.002 C 
ATOM     17  C   UNL     1      32.797  -4.954 -24.739  0.00  0.00    +0.000 C 
ENDBRANCH   1  12
BRANCH   8  18
ATOM     18  N   UNL     1      33.903 -13.114 -24.448  0.00  0.00    -0.299 N 
ATOM     19  H   UNL     1      33.854 -13.026 -25.426  0.00  0.00    +0.153 HD
BRANCH  18  20
ATOM     20  C   UNL     1      34.333 -14.357 -23.969  0.00  0.00    +0.049 C 
ATOM     21  C   UNL     1      34.138 -15.506 -24.736  0.00  0.00    +0.016 C 
ATOM     22  C   UNL     1      34.956 -14.448 -22.724  0.00  0.00    +0.016 C 
ATOM     23  C   UNL     1      35.190 -16.834 -23.013  0.00  0.00    +0.122 C 
ATOM     24  C   UNL     1      34.567 -16.745 -24.259  0.00  0.00    +0.021 C 
ATOM     25  C   UNL     1      35.385 -15.686 -22.247  0.00  0.00    +0.021 C 
BRANCH  23  26
ATOM     26  S   UNL     1      35.727 -18.384 -22.417  0.00  0.00    +0.057 S 
ATOM     27  O   UNL     1      35.401 -18.470 -21.000  0.00  0.00    -0.153 OA
ATOM     28  O   UNL     1      35.261 -19.419 -23.330  0.00  0.00    -0.153 OA
BRANCH  26  29
ATOM     29  N   UNL     1      37.421 -18.229 -22.583  0.00  0.00    -0.203 NA
ATOM     30  H   UNL     1      37.765 -17.529 -21.928  0.00  0.00    +0.144 HD
ATOM     31  H   UNL     1      37.644 -17.942 -23.536  0.00  0.00    +0.144 HD
ENDBRANCH  26  29
ENDBRANCH  23  26
ENDBRANCH  18  20
ENDBRANCH   8  18
TORSDOF 5
ENDMDL
MODEL 4
REMARK VINA RESULT:      -9.3      9.311     14.070
REMARK  Name = 23586146
REMARK  5 active torsions:
REMARK  status: ('A' for Active; 'I' for Inactive)
REMARK    1  A    between atoms: N_1  and  C_12
REMARK    2  A    between atoms: C_8  and  N_18
REMARK    3  A    between atoms: N_18  and  C_20
REMARK    4  A    between atoms: C_23  and  S_26
REMARK    5  A    between atoms: S_26  and  N_29
REMARK                            x       y       z     vdW  Elec       q    Type
REMARK                         _______ _______ _______ _____ _____    ______ ____
ROOT
ATOM      1  N   UNL     1      32.552  -8.348 -23.725  0.00  0.00    -0.309 N 
ATOM      2  N   UNL     1      31.967  -9.920 -22.158  0.00  0.00    -0.321 NA
ATOM      3  N   UNL     1      33.099 -12.039 -22.163  0.00  0.00    -0.106 N 
ATOM      4  N   UNL     1      33.075 -13.200 -21.455  0.00  0.00    -0.139 NA
ATOM      5  N   UNL     1      31.539 -11.742 -20.620  0.00  0.00    -0.145 NA
ATOM      6  C   UNL     1      32.708  -9.566 -23.182  0.00  0.00    +0.196 C 
ATOM      7  C   UNL     1      33.743 -10.473 -23.791  0.00  0.00    +0.081 C 
ATOM      8  C   UNL     1      33.902 -11.691 -23.252  0.00  0.00    +0.140 C 
ATOM      9  C   UNL     1      32.151 -11.162 -21.633  0.00  0.00    +0.176 C 
ATOM     10  C   UNL     1      32.129 -12.962 -20.553  0.00  0.00    +0.230 C 
ATOM     11  H   UNL     1      33.105  -8.104 -24.502  0.00  0.00    +0.149 HD
ENDROOT
BRANCH   1  12
ATOM     12  C   UNL     1      31.603  -7.375 -23.215  0.00  0.00    +0.071 C 
ATOM     13  C   UNL     1      32.220  -6.602 -22.046  0.00  0.00    +0.020 C 
ATOM     14  C   UNL     1      31.160  -6.435 -24.340  0.00  0.00    +0.020 C 
ATOM     15  C   UNL     1      33.320  -5.637 -22.489  0.00  0.00    +0.002 C 
ATOM     16  C   UNL     1      32.263  -5.470 -24.775  0.00  0.00    +0.002 C 
ATOM     17  C   UNL     1      32.837  -4.699 -23.590  0.00  0.00    +0.000 C 
ENDBRANCH   1  12
BRANCH   8  18
ATOM     18  N   UNL     1      34.800 -12.617 -23.699  0.00  0.00    -0.299 N 
ATOM     19  H   UNL     1      35.703 -12.279 -23.897  0.00  0.00    +0.153 HD
BRANCH  18  20
ATOM     20  C   UNL     1      34.602 -13.986 -23.911  0.00  0.00    +0.049 C 
ATOM     21  C   UNL     1      35.281 -14.919 -23.127  0.00  0.00    +0.016 C 
ATOM     22  C   UNL     1      33.726 -14.418 -24.906  0.00  0.00    +0.016 C 
ATOM     23  C   UNL     1      34.206 -16.715 -24.334  0.00  0.00    +0.122 C 
ATOM     24  C   UNL     1      35.083 -16.284 -23.338  0.00  0.00    +0.021 C 
ATOM     25  C   UNL     1      33.528 -15.782 -25.117  0.00  0.00    +0.021 C 
BRANCH  23  26
ATOM     26  S   UNL     1      33.959 -18.423 -24.598  0.00  0.00    +0.057 S 
ATOM     27  O   UNL     1      32.619 -18.616 -25.135  0.00  0.00    -0.153 OA
ATOM     28  O   UNL     1      35.109 -18.953 -25.317  0.00  0.00    -0.153 OA
BRANCH  26  29
ATOM     29  N   UNL     1      33.998 -19.010 -22.993  0.00  0.00    -0.203 NA
ATOM     30  H   UNL     1      34.945 -18.931 -22.625  0.00  0.00    +0.144 HD
ATOM     31  H   UNL     1      33.709 -19.988 -22.982  0.00  0.00    +0.144 HD
ENDBRANCH  26  29
ENDBRANCH  23  26
ENDBRANCH  18  20
ENDBRANCH   8  18
TORSDOF 5
ENDMDL
MODEL 5
REMARK VINA RESULT:      -9.3      4.563      8.559
REMARK  Name = 23586146
REMARK  5 active torsions:
REMARK  status: ('A' for Active; 'I' for Inactive)
REMARK    1  A    between atoms: N_1  and  C_12
REMARK    2  A    between atoms: C_8  and  N_18
REMARK    3  A    between atoms: N_18  and  C_20
REMARK    4  A    between atoms: C_23  and  S_26
REMARK    5  A    between atoms: S_26  and  N_29
REMARK                            x       y       z     vdW  Elec       q    Type
REMARK                         _______ _______ _______ _____ _____    ______ ____
ROOT
ATOM      1  N   UNL     1      35.933 -19.902 -20.546  0.00  0.00    -0.309 N 
ATOM      2  N   UNL     1      34.488 -21.242 -19.369  0.00  0.00    -0.321 NA
ATOM      3  N   UNL     1      35.315 -22.442 -17.459  0.00  0.00    -0.106 N 
ATOM      4  N   UNL     1      34.837 -23.303 -16.521  0.00  0.00    -0.139 NA
ATOM      5  N   UNL     1      33.176 -22.717 -17.964  0.00  0.00    -0.145 NA
ATOM      6  C   UNL     1      35.693 -20.748 -19.531  0.00  0.00    +0.196 C 
ATOM      7  C   UNL     1      36.842 -21.088 -18.621  0.00  0.00    +0.081 C 
ATOM      8  C   UNL     1      36.607 -21.933 -17.606  0.00  0.00    +0.140 C 
ATOM      9  C   UNL     1      34.280 -22.097 -18.331  0.00  0.00    +0.176 C 
ATOM     10  C   UNL     1      33.561 -23.427 -16.874  0.00  0.00    +0.230 C 
ATOM     11  H   UNL     1      36.846 -19.553 -20.662  0.00  0.00    +0.149 HD
ENDROOT
BRANCH   1  12
ATOM     12  C   UNL     1      34.904 -19.480 -21.478  0.00  0.00    +0.071 C 
ATOM     13  C   UNL     1      34.432 -18.064 -21.135  0.00  0.00    +0.020 C 
ATOM     14  C   UNL     1      35.430 -19.565 -22.914  0.00  0.00    +0.020 C 
ATOM     15  C   UNL     1      35.480 -16.997 -21.453  0.00  0.00    +0.002 C 
ATOM     16  C   UNL     1      36.474 -18.492 -23.227  0.00  0.00    +0.002 C 
ATOM     17  C   UNL     1      35.961 -17.094 -22.897  0.00  0.00    +0.000 C 
ENDBRANCH   1  12
BRANCH   8  18
ATOM     18  N   UNL     1      37.551 -22.331 -16.703  0.00  0.00    -0.299 N 
ATOM     19  H   UNL     1      38.487 -22.166 -16.961  0.00  0.00    +0.153 HD
BRANCH  18  20
ATOM     20  C   UNL     1      37.359 -22.941 -15.459  0.00  0.00    +0.049 C 
ATOM     21  C   UNL     1      37.861 -24.223 -15.226  0.00  0.00    +0.016 C 
ATOM     22  C   UNL     1      36.667 -22.270 -14.452  0.00  0.00    +0.016 C 
ATOM     23  C   UNL     1      36.976 -24.159 -12.978  0.00  0.00    +0.122 C 
ATOM     24  C   UNL     1      37.670 -24.831 -13.985  0.00  0.00    +0.021 C 
ATOM     25  C   UNL     1      36.476 -22.879 -13.212  0.00  0.00    +0.021 C 
BRANCH  23  26
ATOM     26  S   UNL     1      36.738 -24.921 -11.426  0.00  0.00    +0.057 S 
ATOM     27  O   UNL     1      37.156 -26.312 -11.528  0.00  0.00    -0.153 OA
ATOM     28  O   UNL     1      37.313 -24.067 -10.396  0.00  0.00    -0.153 OA
BRANCH  26  29
ATOM     29  N   UNL     1      35.034 -24.867 -11.295  0.00  0.00    -0.203 NA
ATOM     30  H   UNL     1      34.664 -25.816 -11.284  0.00  0.00    +0.144 HD
ATOM     31  H   UNL     1      34.648 -24.359 -12.091  0.00  0.00    +0.144 HD
ENDBRANCH  26  29
ENDBRANCH  23  26
ENDBRANCH  18  20
ENDBRANCH   8  18
TORSDOF 5
ENDMDL
MODEL 6
REMARK VINA RESULT:      -8.8      5.553     11.207
REMARK  Name = 23586146
REMARK  5 active torsions:
REMARK  status: ('A' for Active; 'I' for Inactive)
REMARK    1  A    between atoms: N_1  and  C_12
REMARK    2  A    between atoms: C_8  and  N_18
REMARK    3  A    between atoms: N_18  and  C_20
REMARK    4  A    between atoms: C_23  and  S_26
REMARK    5  A    between atoms: S_26  and  N_29
REMARK                            x       y       z     vdW  Elec       q    Type
REMARK                         _______ _______ _______ _____ _____    ______ ____
ROOT
ATOM      1  N   UNL     1      34.482 -13.336 -23.616  0.00  0.00    -0.309 N 
ATOM      2  N   UNL     1      33.703 -15.262 -24.592  0.00  0.00    -0.321 NA
ATOM      3  N   UNL     1      34.551 -17.376 -23.826  0.00  0.00    -0.106 N 
ATOM      4  N   UNL     1      34.378 -18.695 -24.105  0.00  0.00    -0.139 NA
ATOM      5  N   UNL     1      33.048 -17.430 -25.452  0.00  0.00    -0.145 NA
ATOM      6  C   UNL     1      34.480 -14.676 -23.712  0.00  0.00    +0.196 C 
ATOM      7  C   UNL     1      35.388 -15.442 -22.788  0.00  0.00    +0.081 C 
ATOM      8  C   UNL     1      35.389 -16.780 -22.880  0.00  0.00    +0.140 C 
ATOM      9  C   UNL     1      33.726 -16.621 -24.663  0.00  0.00    +0.176 C 
ATOM     10  C   UNL     1      33.474 -18.663 -25.079  0.00  0.00    +0.230 C 
ATOM     11  H   UNL     1      35.083 -12.912 -22.962  0.00  0.00    +0.149 HD
ENDROOT
BRANCH   1  12
ATOM     12  C   UNL     1      33.637 -12.488 -24.435  0.00  0.00    +0.071 C 
ATOM     13  C   UNL     1      32.681 -11.684 -23.548  0.00  0.00    +0.020 C 
ATOM     14  C   UNL     1      34.501 -11.571 -25.307  0.00  0.00    +0.020 C 
ATOM     15  C   UNL     1      33.393 -10.592 -22.748  0.00  0.00    +0.002 C 
ATOM     16  C   UNL     1      35.206 -10.480 -24.501  0.00  0.00    +0.002 C 
ATOM     17  C   UNL     1      34.222  -9.683 -23.649  0.00  0.00    +0.000 C 
ENDBRANCH   1  12
BRANCH   8  18
ATOM     18  N   UNL     1      36.159 -17.602 -22.109  0.00  0.00    -0.299 N 
ATOM     19  H   UNL     1      37.123 -17.401 -22.096  0.00  0.00    +0.153 HD
BRANCH  18  20
ATOM     20  C   UNL     1      35.754 -18.694 -21.333  0.00  0.00    +0.049 C 
ATOM     21  C   UNL     1      34.398 -19.005 -21.219  0.00  0.00    +0.016 C 
ATOM     22  C   UNL     1      36.705 -19.473 -20.673  0.00  0.00    +0.016 C 
ATOM     23  C   UNL     1      34.947 -20.871 -19.786  0.00  0.00    +0.122 C 
ATOM     24  C   UNL     1      33.995 -20.094 -20.446  0.00  0.00    +0.021 C 
ATOM     25  C   UNL     1      36.301 -20.561 -19.900  0.00  0.00    +0.021 C 
BRANCH  23  26
ATOM     26  S   UNL     1      34.441 -22.233 -18.819  0.00  0.00    +0.057 S 
ATOM     27  O   UNL     1      34.298 -23.390 -19.693  0.00  0.00    -0.153 OA
ATOM     28  O   UNL     1      35.302 -22.315 -17.647  0.00  0.00    -0.153 OA
BRANCH  26  29
ATOM     29  N   UNL     1      32.887 -21.723 -18.324  0.00  0.00    -0.203 NA
ATOM     30  H   UNL     1      32.861 -20.705 -18.282  0.00  0.00    +0.144 HD
ATOM     31  H   UNL     1      32.681 -22.107 -17.402  0.00  0.00    +0.144 HD
ENDBRANCH  26  29
ENDBRANCH  23  26
ENDBRANCH  18  20
ENDBRANCH   8  18
TORSDOF 5
ENDMDL
MODEL 7
REMARK VINA RESULT:      -8.7      4.600      8.673
REMARK  Name = 23586146
REMARK  5 active torsions:
REMARK  status: ('A' for Active; 'I' for Inactive)
REMARK    1  A    between atoms: N_1  and  C_12
REMARK    2  A    between atoms: C_8  and  N_18
REMARK    3  A    between atoms: N_18  and  C_20
REMARK    4  A    between atoms: C_23  and  S_26
REMARK    5  A    between atoms: S_26  and  N_29
REMARK                            x       y       z     vdW  Elec       q    Type
REMARK                         _______ _______ _______ _____ _____    ______ ____
ROOT
ATOM      1  N   UNL     1      35.039 -19.231 -21.671  0.00  0.00    -0.309 N 
ATOM      2  N   UNL     1      36.268 -20.088 -19.932  0.00  0.00    -0.321 NA
ATOM      3  N   UNL     1      35.237 -21.679 -18.457  0.00  0.00    -0.106 N 
ATOM      4  N   UNL     1      35.575 -22.405 -17.357  0.00  0.00    -0.139 NA
ATOM      5  N   UNL     1      37.342 -21.137 -18.031  0.00  0.00    -0.145 NA
ATOM      6  C   UNL     1      35.139 -20.034 -20.599  0.00  0.00    +0.196 C 
ATOM      7  C   UNL     1      33.927 -20.840 -20.216  0.00  0.00    +0.081 C 
ATOM      8  C   UNL     1      34.023 -21.643 -19.146  0.00  0.00    +0.140 C 
ATOM      9  C   UNL     1      36.335 -20.912 -18.851  0.00  0.00    +0.176 C 
ATOM     10  C   UNL     1      36.837 -22.040 -17.153  0.00  0.00    +0.230 C 
ATOM     11  H   UNL     1      34.180 -19.191 -22.150  0.00  0.00    +0.149 HD
ENDROOT
BRANCH   1  12
ATOM     12  C   UNL     1      36.142 -18.422 -22.153  0.00  0.00    +0.071 C 
ATOM     13  C   UNL     1      36.086 -18.310 -23.680  0.00  0.00    +0.020 C 
ATOM     14  C   UNL     1      36.111 -17.042 -21.487  0.00  0.00    +0.020 C 
ATOM     15  C   UNL     1      34.930 -17.435 -24.167  0.00  0.00    +0.002 C 
ATOM     16  C   UNL     1      34.956 -16.172 -21.983  0.00  0.00    +0.002 C 
ATOM     17  C   UNL     1      34.945 -16.062 -23.504  0.00  0.00    +0.000 C 
ENDBRANCH   1  12
BRANCH   8  18
ATOM     18  N   UNL     1      33.007 -22.429 -18.683  0.00  0.00    -0.299 N 
ATOM     19  H   UNL     1      32.408 -22.803 -19.368  0.00  0.00    +0.153 HD
BRANCH  18  20
ATOM     20  C   UNL     1      32.711 -22.773 -17.359  0.00  0.00    +0.049 C 
ATOM     21  C   UNL     1      31.526 -22.327 -16.772  0.00  0.00    +0.016 C 
ATOM     22  C   UNL     1      33.598 -23.560 -16.627  0.00  0.00    +0.016 C 
ATOM     23  C   UNL     1      32.119 -23.458 -14.720  0.00  0.00    +0.122 C 
ATOM     24  C   UNL     1      31.230 -22.670 -15.452  0.00  0.00    +0.021 C 
ATOM     25  C   UNL     1      33.302 -23.903 -15.308  0.00  0.00    +0.021 C 
BRANCH  23  26
ATOM     26  S   UNL     1      31.748 -23.886 -13.069  0.00  0.00    +0.057 S 
ATOM     27  O   UNL     1      31.923 -22.704 -12.237  0.00  0.00    -0.153 OA
ATOM     28  O   UNL     1      30.480 -24.603 -13.050  0.00  0.00    -0.153 OA
BRANCH  26  29
ATOM     29  N   UNL     1      33.007 -24.990 -12.728  0.00  0.00    -0.203 NA
ATOM     30  H   UNL     1      33.606 -25.087 -13.546  0.00  0.00    +0.144 HD
ATOM     31  H   UNL     1      32.608 -25.898 -12.489  0.00  0.00    +0.144 HD
ENDBRANCH  26  29
ENDBRANCH  23  26
ENDBRANCH  18  20
ENDBRANCH   8  18
TORSDOF 5
ENDMDL
