MODEL 1
REMARK VINA RESULT:     -11.9      0.000      0.000
REMARK  Name = 11224409
REMARK  8 active torsions:
REMARK  status: ('A' for Active; 'I' for Inactive)
REMARK    1  A    between atoms: C_2  and  N_10
REMARK    2  A    between atoms: C_5  and  C_20
REMARK    3  A    between atoms: C_11  and  C_14
REMARK    4  A    between atoms: C_14  and  N_16
REMARK    5  A    between atoms: C_21  and  C_26
REMARK    6  A    between atoms: C_26  and  N_27
REMARK    7  A    between atoms: N_27  and  C_30
REMARK    8  A    between atoms: C_30  and  C_34
REMARK                            x       y       z     vdW  Elec       q    Type
REMARK                         _______ _______ _______ _____ _____    ______ ____
ROOT
ATOM      1  F   UNL     1      33.291 -22.446 -18.184  0.00  0.00    -0.204 F 
ATOM      2  C   UNL     1      36.036 -23.097 -15.892  0.00  0.00    +0.059 C 
ATOM      3  C   UNL     1      34.769 -23.132 -16.475  0.00  0.00    +0.045 C 
ATOM      4  C   UNL     1      37.048 -22.331 -16.471  0.00  0.00    +0.015 C 
ATOM      5  C   UNL     1      35.527 -21.636 -18.213  0.00  0.00    +0.028 C 
ATOM      6  C   UNL     1      34.514 -22.401 -17.636  0.00  0.00    +0.141 C 
ATOM      7  C   UNL     1      36.794 -21.601 -17.632  0.00  0.00    +0.004 C 
ENDROOT
BRANCH   2  10
ATOM      8  O   UNL     1      36.601 -25.544 -13.256  0.00  0.00    -0.434 OA
ATOM      9  O   UNL     1      36.100 -26.098 -15.398  0.00  0.00    -0.226 OA
ATOM     10  N   UNL     1      36.295 -23.843 -14.708  0.00  0.00    -0.221 N 
ATOM     11  C   UNL     1      37.005 -24.355 -12.565  0.00  0.00    +0.210 C 
ATOM     12  C   UNL     1      36.475 -23.225 -13.421  0.00  0.00    +0.147 C 
ATOM     13  C   UNL     1      36.315 -25.228 -14.565  0.00  0.00    +0.409 C 
BRANCH  11  14
ATOM     14  C   UNL     1      38.523 -24.351 -12.439  0.00  0.00    +0.135 C 
BRANCH  14  16
ATOM     15  O   UNL     1      39.922 -24.163 -14.976  0.00  0.00    -0.275 OA
ATOM     16  N   UNL     1      39.108 -25.421 -13.192  0.00  0.00    -0.301 N 
ATOM     17  C   UNL     1      39.763 -25.239 -14.406  0.00  0.00    +0.223 C 
ATOM     18  C   UNL     1      40.304 -26.526 -14.970  0.00  0.00    +0.095 C 
ATOM     19  H   UNL     1      39.041 -26.335 -12.831  0.00  0.00    +0.150 HD
ENDBRANCH  14  16
ENDBRANCH  11  14
ENDBRANCH   2  10
BRANCH   5  20
ATOM     20  C   UNL     1      35.267 -20.876 -19.417  0.00  0.00    +0.002 C 
ATOM     21  C   UNL     1      34.767 -19.413 -21.739  0.00  0.00    -0.044 C 
ATOM     22  C   UNL     1      36.330 -20.378 -20.170  0.00  0.00    -0.000 C 
ATOM     23  C   UNL     1      33.953 -20.643 -19.826  0.00  0.00    -0.000 C 
ATOM     24  C   UNL     1      36.080 -19.647 -21.332  0.00  0.00    -0.006 C 
ATOM     25  C   UNL     1      33.703 -19.911 -20.986  0.00  0.00    -0.006 C 
BRANCH  21  26
ATOM     26  C   UNL     1      34.500 -18.632 -22.981  0.00  0.00    -0.054 C 
BRANCH  26  27
ATOM     27  N   UNL     1      35.326 -17.426 -23.070  0.00  0.00    +0.390 N 
ATOM     28  H   UNL     1      36.286 -17.658 -22.817  0.00  0.00    -0.083 HD
ATOM     29  H   UNL     1      34.952 -16.724 -22.432  0.00  0.00    -0.083 HD
BRANCH  27  30
ATOM     30  C   UNL     1      35.306 -16.888 -24.421  0.00  0.00    -0.031 C 
BRANCH  30  34
ATOM     31  N   UNL     1      33.634 -15.469 -25.567  0.00  0.00    -0.170 NA
ATOM     32  N   UNL     1      33.080 -14.288 -25.250  0.00  0.00    -0.157 N 
ATOM     33  N   UNL     1      33.452 -13.692 -24.105  0.00  0.00    -0.162 NA
ATOM     34  C   UNL     1      34.444 -15.657 -24.522  0.00  0.00    +0.077 C 
ATOM     35  C   UNL     1      34.335 -14.578 -23.634  0.00  0.00    +0.133 C 
ATOM     36  H   UNL     1      32.417 -13.867 -25.844  0.00  0.00    +0.197 HD
ENDBRANCH  30  34
ENDBRANCH  27  30
ENDBRANCH  26  27
ENDBRANCH  21  26
ENDBRANCH   5  20
TORSDOF 8
ENDMDL
MODEL 2
REMARK VINA RESULT:     -11.8      4.679     11.864
REMARK  Name = 11224409
REMARK  8 active torsions:
REMARK  status: ('A' for Active; 'I' for Inactive)
REMARK    1  A    between atoms: C_2  and  N_10
REMARK    2  A    between atoms: C_5  and  C_20
REMARK    3  A    between atoms: C_11  and  C_14
REMARK    4  A    between atoms: C_14  and  N_16
REMARK    5  A    between atoms: C_21  and  C_26
REMARK    6  A    between atoms: C_26  and  N_27
REMARK    7  A    between atoms: N_27  and  C_30
REMARK    8  A    between atoms: C_30  and  C_34
REMARK                            x       y       z     vdW  Elec       q    Type
REMARK                         _______ _______ _______ _____ _____    ______ ____
ROOT
ATOM      1  F   UNL     1      37.157 -20.790 -19.712  0.00  0.00    -0.204 F 
ATOM      2  C   UNL     1      34.853 -19.073 -21.937  0.00  0.00    +0.059 C 
ATOM      3  C   UNL     1      36.042 -19.528 -21.366  0.00  0.00    +0.045 C 
ATOM      4  C   UNL     1      33.627 -19.453 -21.389  0.00  0.00    +0.015 C 
ATOM      5  C   UNL     1      34.780 -20.740 -19.702  0.00  0.00    +0.028 C 
ATOM      6  C   UNL     1      36.005 -20.361 -20.248  0.00  0.00    +0.141 C 
ATOM      7  C   UNL     1      33.590 -20.287 -20.272  0.00  0.00    +0.004 C 
ENDROOT
BRANCH   2  10
ATOM      8  O   UNL     1      34.590 -17.384 -25.152  0.00  0.00    -0.434 OA
ATOM      9  O   UNL     1      33.690 -19.422 -24.726  0.00  0.00    -0.226 OA
ATOM     10  N   UNL     1      34.890 -18.222 -23.078  0.00  0.00    -0.221 N 
ATOM     11  C   UNL     1      35.154 -16.321 -24.372  0.00  0.00    +0.210 C 
ATOM     12  C   UNL     1      35.651 -17.002 -23.115  0.00  0.00    +0.147 C 
ATOM     13  C   UNL     1      34.319 -18.453 -24.327  0.00  0.00    +0.409 C 
BRANCH  11  14
ATOM     14  C   UNL     1      34.074 -15.282 -24.105  0.00  0.00    +0.135 C 
BRANCH  14  16
ATOM     15  O   UNL     1      34.034 -12.474 -24.843  0.00  0.00    -0.275 OA
ATOM     16  N   UNL     1      33.592 -14.709 -25.328  0.00  0.00    -0.301 N 
ATOM     17  C   UNL     1      33.612 -13.345 -25.598  0.00  0.00    +0.223 C 
ATOM     18  C   UNL     1      33.069 -13.018 -26.964  0.00  0.00    +0.095 C 
ATOM     19  H   UNL     1      33.227 -15.315 -26.013  0.00  0.00    +0.150 HD
ENDBRANCH  14  16
ENDBRANCH  11  14
ENDBRANCH   2  10
BRANCH   5  20
ATOM     20  C   UNL     1      34.737 -21.605 -18.542  0.00  0.00    +0.002 C 
ATOM     21  C   UNL     1      34.654 -23.270 -16.305  0.00  0.00    -0.044 C 
ATOM     22  C   UNL     1      35.843 -21.694 -17.697  0.00  0.00    -0.000 C 
ATOM     23  C   UNL     1      33.589 -22.349 -18.268  0.00  0.00    -0.000 C 
ATOM     24  C   UNL     1      35.801 -22.526 -16.578  0.00  0.00    -0.006 C 
ATOM     25  C   UNL     1      33.547 -23.181 -17.150  0.00  0.00    -0.006 C 
BRANCH  21  26
ATOM     26  C   UNL     1      34.610 -24.159 -15.109  0.00  0.00    -0.054 C 
BRANCH  26  27
ATOM     27  N   UNL     1      34.505 -23.406 -13.857  0.00  0.00    +0.390 N 
ATOM     28  H   UNL     1      33.611 -22.916 -13.835  0.00  0.00    -0.083 HD
ATOM     29  H   UNL     1      35.275 -22.739 -13.810  0.00  0.00    -0.083 HD
BRANCH  27  30
ATOM     30  C   UNL     1      34.589 -24.299 -12.712  0.00  0.00    -0.031 C 
BRANCH  30  34
ATOM     31  N   UNL     1      35.678 -24.318 -10.490  0.00  0.00    -0.170 NA
ATOM     32  N   UNL     1      36.779 -23.714 -10.018  0.00  0.00    -0.157 N 
ATOM     33  N   UNL     1      37.485 -22.927 -10.847  0.00  0.00    -0.162 NA
ATOM     34  C   UNL     1      35.671 -23.879 -11.752  0.00  0.00    +0.077 C 
ATOM     35  C   UNL     1      36.768 -23.034 -11.969  0.00  0.00    +0.133 C 
ATOM     36  H   UNL     1      37.063 -23.843  -9.084  0.00  0.00    +0.197 HD
ENDBRANCH  30  34
ENDBRANCH  27  30
ENDBRANCH  26  27
ENDBRANCH  21  26
ENDBRANCH   5  20
TORSDOF 8
ENDMDL
MODEL 3
REMARK VINA RESULT:     -11.7      8.431     14.662
REMARK  Name = 11224409
REMARK  8 active torsions:
REMARK  status: ('A' for Active; 'I' for Inactive)
REMARK    1  A    between atoms: C_2  and  N_10
REMARK    2  A    between atoms: C_5  and  C_20
REMARK    3  A    between atoms: C_11  and  C_14
REMARK    4  A    between atoms: C_14  and  N_16
REMARK    5  A    between atoms: C_21  and  C_26
REMARK    6  A    between atoms: C_26  and  N_27
REMARK    7  A    between atoms: N_27  and  C_30
REMARK    8  A    between atoms: C_30  and  C_34
REMARK                            x       y       z     vdW  Elec       q    Type
REMARK                         _______ _______ _______ _____ _____    ______ ____
ROOT
ATOM      1  F   UNL     1      34.767 -10.723 -24.670  0.00  0.00    -0.204 F 
ATOM      2  C   UNL     1      32.487  -9.174 -22.301  0.00  0.00    +0.059 C 
ATOM      3  C   UNL     1      33.432  -9.323 -23.317  0.00  0.00    +0.045 C 
ATOM      4  C   UNL     1      31.970 -10.301 -21.661  0.00  0.00    +0.015 C 
ATOM      5  C   UNL     1      33.342 -11.722 -23.051  0.00  0.00    +0.028 C 
ATOM      6  C   UNL     1      33.859 -10.597 -23.692  0.00  0.00    +0.141 C 
ATOM      7  C   UNL     1      32.396 -11.575 -22.035  0.00  0.00    +0.004 C 
ENDROOT
BRANCH   2  10
ATOM      8  O   UNL     1      31.614  -6.015 -20.716  0.00  0.00    -0.434 OA
ATOM      9  O   UNL     1      32.633  -7.727 -19.630  0.00  0.00    -0.226 OA
ATOM     10  N   UNL     1      32.051  -7.874 -21.919  0.00  0.00    -0.221 N 
ATOM     11  C   UNL     1      31.336  -5.679 -22.082  0.00  0.00    +0.210 C 
ATOM     12  C   UNL     1      31.307  -7.012 -22.797  0.00  0.00    +0.147 C 
ATOM     13  C   UNL     1      32.165  -7.276 -20.666  0.00  0.00    +0.409 C 
BRANCH  11  14
ATOM     14  C   UNL     1      32.428  -4.748 -22.591  0.00  0.00    +0.135 C 
BRANCH  14  16
ATOM     15  O   UNL     1      33.822  -4.322 -25.102  0.00  0.00    -0.275 OA
ATOM     16  N   UNL     1      33.542  -5.489 -23.105  0.00  0.00    -0.301 N 
ATOM     17  C   UNL     1      34.151  -5.215 -24.325  0.00  0.00    +0.223 C 
ATOM     18  C   UNL     1      35.313  -6.129 -24.611  0.00  0.00    +0.095 C 
ATOM     19  H   UNL     1      33.894  -6.234 -22.566  0.00  0.00    +0.150 HD
ENDBRANCH  14  16
ENDBRANCH  11  14
ENDBRANCH   2  10
BRANCH   5  20
ATOM     20  C   UNL     1      33.782 -13.046 -23.436  0.00  0.00    +0.002 C 
ATOM     21  C   UNL     1      34.630 -15.598 -24.177  0.00  0.00    -0.044 C 
ATOM     22  C   UNL     1      34.661 -13.754 -22.617  0.00  0.00    -0.000 C 
ATOM     23  C   UNL     1      33.327 -13.614 -24.626  0.00  0.00    -0.000 C 
ATOM     24  C   UNL     1      35.084 -15.031 -22.987  0.00  0.00    -0.006 C 
ATOM     25  C   UNL     1      33.751 -14.890 -24.997  0.00  0.00    -0.006 C 
BRANCH  21  26
ATOM     26  C   UNL     1      35.082 -16.963 -24.572  0.00  0.00    -0.054 C 
BRANCH  26  27
ATOM     27  N   UNL     1      35.935 -17.584 -23.557  0.00  0.00    +0.390 N 
ATOM     28  H   UNL     1      36.236 -16.872 -22.891  0.00  0.00    -0.083 HD
ATOM     29  H   UNL     1      36.743 -18.001 -24.018  0.00  0.00    -0.083 HD
BRANCH  27  30
ATOM     30  C   UNL     1      35.212 -18.627 -22.847  0.00  0.00    -0.031 C 
BRANCH  30  34
ATOM     31  N   UNL     1      36.961 -18.334 -21.120  0.00  0.00    -0.170 NA
ATOM     32  N   UNL     1      37.247 -19.014 -19.999  0.00  0.00    -0.157 N 
ATOM     33  N   UNL     1      36.487 -20.074 -19.679  0.00  0.00    -0.162 NA
ATOM     34  C   UNL     1      35.907 -19.022 -21.571  0.00  0.00    +0.077 C 
ATOM     35  C   UNL     1      35.620 -20.079 -20.696  0.00  0.00    +0.133 C 
ATOM     36  H   UNL     1      37.999 -18.742 -19.424  0.00  0.00    +0.197 HD
ENDBRANCH  30  34
ENDBRANCH  27  30
ENDBRANCH  26  27
ENDBRANCH  21  26
ENDBRANCH   5  20
TORSDOF 8
ENDMDL
MODEL 4
REMARK VINA RESULT:     -11.7      8.276     14.544
REMARK  Name = 11224409
REMARK  8 active torsions:
REMARK  status: ('A' for Active; 'I' for Inactive)
REMARK    1  A    between atoms: C_2  and  N_10
REMARK    2  A    between atoms: C_5  and  C_20
REMARK    3  A    between atoms: C_11  and  C_14
REMARK    4  A    between atoms: C_14  and  N_16
REMARK    5  A    between atoms: C_21  and  C_26
REMARK    6  A    between atoms: C_26  and  N_27
REMARK    7  A    between atoms: N_27  and  C_30
REMARK    8  A    between atoms: C_30  and  C_34
REMARK                            x       y       z     vdW  Elec       q    Type
REMARK                         _______ _______ _______ _____ _____    ______ ____
ROOT
ATOM      1  F   UNL     1      31.960 -12.655 -21.265  0.00  0.00    -0.204 F 
ATOM      2  C   UNL     1      32.477  -9.190 -22.234  0.00  0.00    +0.059 C 
ATOM      3  C   UNL     1      32.000 -10.313 -21.555  0.00  0.00    +0.045 C 
ATOM      4  C   UNL     1      33.381  -9.344 -23.285  0.00  0.00    +0.015 C 
ATOM      5  C   UNL     1      33.331 -11.740 -22.979  0.00  0.00    +0.028 C 
ATOM      6  C   UNL     1      32.427 -11.587 -21.928  0.00  0.00    +0.141 C 
ATOM      7  C   UNL     1      33.809 -10.619 -23.658  0.00  0.00    +0.004 C 
ENDROOT
BRANCH   2  10
ATOM      8  O   UNL     1      31.627  -6.019 -20.661  0.00  0.00    -0.434 OA
ATOM      9  O   UNL     1      32.707  -7.702 -19.591  0.00  0.00    -0.226 OA
ATOM     10  N   UNL     1      32.040  -7.890 -21.854  0.00  0.00    -0.221 N 
ATOM     11  C   UNL     1      31.293  -5.705 -22.020  0.00  0.00    +0.210 C 
ATOM     12  C   UNL     1      31.253  -7.050 -22.715  0.00  0.00    +0.147 C 
ATOM     13  C   UNL     1      32.195  -7.272 -20.615  0.00  0.00    +0.409 C 
BRANCH  11  14
ATOM     14  C   UNL     1      32.354  -4.770 -22.584  0.00  0.00    +0.135 C 
BRANCH  14  16
ATOM     15  O   UNL     1      33.697  -4.514 -25.145  0.00  0.00    -0.275 OA
ATOM     16  N   UNL     1      33.498  -5.501 -23.044  0.00  0.00    -0.301 N 
ATOM     17  C   UNL     1      34.079  -5.313 -24.294  0.00  0.00    +0.223 C 
ATOM     18  C   UNL     1      35.281  -6.192 -24.512  0.00  0.00    +0.095 C 
ATOM     19  H   UNL     1      33.892  -6.174 -22.443  0.00  0.00    +0.150 HD
ENDBRANCH  14  16
ENDBRANCH  11  14
ENDBRANCH   2  10
BRANCH   5  20
ATOM     20  C   UNL     1      33.777 -13.060 -23.369  0.00  0.00    +0.002 C 
ATOM     21  C   UNL     1      34.638 -15.604 -24.122  0.00  0.00    -0.044 C 
ATOM     22  C   UNL     1      33.388 -13.593 -24.598  0.00  0.00    -0.000 C 
ATOM     23  C   UNL     1      34.597 -13.800 -22.517  0.00  0.00    -0.000 C 
ATOM     24  C   UNL     1      33.819 -14.865 -24.975  0.00  0.00    -0.006 C 
ATOM     25  C   UNL     1      35.027 -15.072 -22.893  0.00  0.00    -0.006 C 
BRANCH  21  26
ATOM     26  C   UNL     1      35.099 -16.964 -24.526  0.00  0.00    -0.054 C 
BRANCH  26  27
ATOM     27  N   UNL     1      35.988 -17.570 -23.533  0.00  0.00    +0.390 N 
ATOM     28  H   UNL     1      36.335 -16.843 -22.907  0.00  0.00    -0.083 HD
ATOM     29  H   UNL     1      36.765 -18.018 -24.019  0.00  0.00    -0.083 HD
BRANCH  27  30
ATOM     30  C   UNL     1      35.281 -18.574 -22.755  0.00  0.00    -0.031 C 
BRANCH  30  34
ATOM     31  N   UNL     1      37.081 -18.223 -21.093  0.00  0.00    -0.170 NA
ATOM     32  N   UNL     1      37.421 -18.883 -19.975  0.00  0.00    -0.157 N 
ATOM     33  N   UNL     1      36.694 -19.954 -19.617  0.00  0.00    -0.162 NA
ATOM     34  C   UNL     1      36.028 -18.938 -21.499  0.00  0.00    +0.077 C 
ATOM     35  C   UNL     1      35.794 -19.990 -20.603  0.00  0.00    +0.133 C 
ATOM     36  H   UNL     1      38.186 -18.588 -19.429  0.00  0.00    +0.197 HD
ENDBRANCH  30  34
ENDBRANCH  27  30
ENDBRANCH  26  27
ENDBRANCH  21  26
ENDBRANCH   5  20
TORSDOF 8
ENDMDL
MODEL 5
REMARK VINA RESULT:     -11.6      2.982      4.895
REMARK  Name = 11224409
REMARK  8 active torsions:
REMARK  status: ('A' for Active; 'I' for Inactive)
REMARK    1  A    between atoms: C_2  and  N_10
REMARK    2  A    between atoms: C_5  and  C_20
REMARK    3  A    between atoms: C_11  and  C_14
REMARK    4  A    between atoms: C_14  and  N_16
REMARK    5  A    between atoms: C_21  and  C_26
REMARK    6  A    between atoms: C_26  and  N_27
REMARK    7  A    between atoms: N_27  and  C_30
REMARK    8  A    between atoms: C_30  and  C_34
REMARK                            x       y       z     vdW  Elec       q    Type
REMARK                         _______ _______ _______ _____ _____    ______ ____
ROOT
ATOM      1  F   UNL     1      37.145 -20.017 -20.387  0.00  0.00    -0.204 F 
ATOM      2  C   UNL     1      34.554 -21.708 -18.481  0.00  0.00    +0.059 C 
ATOM      3  C   UNL     1      35.815 -21.305 -18.924  0.00  0.00    +0.045 C 
ATOM      4  C   UNL     1      33.406 -21.199 -19.089  0.00  0.00    +0.015 C 
ATOM      5  C   UNL     1      34.779 -19.885 -20.581  0.00  0.00    +0.028 C 
ATOM      6  C   UNL     1      35.927 -20.394 -19.974  0.00  0.00    +0.141 C 
ATOM      7  C   UNL     1      33.519 -20.287 -20.139  0.00  0.00    +0.004 C 
ENDROOT
BRANCH   2  10
ATOM      8  O   UNL     1      34.914 -23.953 -15.637  0.00  0.00    -0.434 OA
ATOM      9  O   UNL     1      36.609 -22.694 -16.467  0.00  0.00    -0.226 OA
ATOM     10  N   UNL     1      34.439 -22.639 -17.410  0.00  0.00    -0.221 N 
ATOM     11  C   UNL     1      33.490 -24.002 -15.798  0.00  0.00    +0.210 C 
ATOM     12  C   UNL     1      33.247 -23.406 -17.168  0.00  0.00    +0.147 C 
ATOM     13  C   UNL     1      35.435 -23.032 -16.519  0.00  0.00    +0.409 C 
BRANCH  11  14
ATOM     14  C   UNL     1      32.841 -23.207 -14.674  0.00  0.00    +0.135 C 
BRANCH  14  16
ATOM     15  O   UNL     1      30.203 -24.283 -14.112  0.00  0.00    -0.275 OA
ATOM     16  N   UNL     1      31.577 -22.670 -15.082  0.00  0.00    -0.301 N 
ATOM     17  C   UNL     1      30.355 -23.255 -14.766  0.00  0.00    +0.223 C 
ATOM     18  C   UNL     1      29.184 -22.471 -15.298  0.00  0.00    +0.095 C 
ATOM     19  H   UNL     1      31.573 -21.842 -15.615  0.00  0.00    +0.150 HD
ENDBRANCH  14  16
ENDBRANCH  11  14
ENDBRANCH   2  10
BRANCH   5  20
ATOM     20  C   UNL     1      34.891 -18.940 -21.671  0.00  0.00    +0.002 C 
ATOM     21  C   UNL     1      35.109 -17.118 -23.772  0.00  0.00    -0.044 C 
ATOM     22  C   UNL     1      35.482 -17.695 -21.456  0.00  0.00    -0.000 C 
ATOM     23  C   UNL     1      34.409 -19.274 -22.937  0.00  0.00    -0.000 C 
ATOM     24  C   UNL     1      35.592 -16.784 -22.507  0.00  0.00    -0.006 C 
ATOM     25  C   UNL     1      34.517 -18.363 -23.987  0.00  0.00    -0.006 C 
BRANCH  21  26
ATOM     26  C   UNL     1      35.226 -16.144 -24.896  0.00  0.00    -0.054 C 
BRANCH  26  27
ATOM     27  N   UNL     1      33.976 -15.425 -25.144  0.00  0.00    +0.390 N 
ATOM     28  H   UNL     1      33.205 -16.092 -25.173  0.00  0.00    -0.083 HD
ATOM     29  H   UNL     1      34.051 -14.933 -26.034  0.00  0.00    -0.083 HD
BRANCH  27  30
ATOM     30  C   UNL     1      33.725 -14.452 -24.092  0.00  0.00    -0.031 C 
BRANCH  30  34
ATOM     31  N   UNL     1      33.745 -12.728 -25.867  0.00  0.00    -0.170 NA
ATOM     32  N   UNL     1      34.005 -11.411 -25.846  0.00  0.00    -0.157 N 
ATOM     33  N   UNL     1      34.326 -10.840 -24.673  0.00  0.00    -0.162 NA
ATOM     34  C   UNL     1      33.913 -13.039 -24.579  0.00  0.00    +0.077 C 
ATOM     35  C   UNL     1      34.266 -11.893 -23.854  0.00  0.00    +0.133 C 
ATOM     36  H   UNL     1      33.962 -10.876 -26.671  0.00  0.00    +0.197 HD
ENDBRANCH  30  34
ENDBRANCH  27  30
ENDBRANCH  26  27
ENDBRANCH  21  26
ENDBRANCH   5  20
TORSDOF 8
ENDMDL
MODEL 6
REMARK VINA RESULT:     -11.4      4.300     11.620
REMARK  Name = 11224409
REMARK  8 active torsions:
REMARK  status: ('A' for Active; 'I' for Inactive)
REMARK    1  A    between atoms: C_2  and  N_10
REMARK    2  A    between atoms: C_5  and  C_20
REMARK    3  A    between atoms: C_11  and  C_14
REMARK    4  A    between atoms: C_14  and  N_16
REMARK    5  A    between atoms: C_21  and  C_26
REMARK    6  A    between atoms: C_26  and  N_27
REMARK    7  A    between atoms: N_27  and  C_30
REMARK    8  A    between atoms: C_30  and  C_34
REMARK                            x       y       z     vdW  Elec       q    Type
REMARK                         _______ _______ _______ _____ _____    ______ ____
ROOT
ATOM      1  F   UNL     1      37.230 -20.553 -19.661  0.00  0.00    -0.204 F 
ATOM      2  C   UNL     1      34.996 -18.896 -22.001  0.00  0.00    +0.059 C 
ATOM      3  C   UNL     1      36.166 -19.306 -21.361  0.00  0.00    +0.045 C 
ATOM      4  C   UNL     1      33.757 -19.348 -21.547  0.00  0.00    +0.015 C 
ATOM      5  C   UNL     1      34.858 -20.619 -19.812  0.00  0.00    +0.028 C 
ATOM      6  C   UNL     1      36.096 -20.167 -20.266  0.00  0.00    +0.141 C 
ATOM      7  C   UNL     1      33.688 -20.210 -20.452  0.00  0.00    +0.004 C 
ENDROOT
BRANCH   2  10
ATOM      8  O   UNL     1      35.012 -17.192 -25.219  0.00  0.00    -0.434 OA
ATOM      9  O   UNL     1      34.544 -19.398 -24.967  0.00  0.00    -0.226 OA
ATOM     10  N   UNL     1      35.067 -18.017 -23.118  0.00  0.00    -0.221 N 
ATOM     11  C   UNL     1      35.140 -16.058 -24.351  0.00  0.00    +0.210 C 
ATOM     12  C   UNL     1      35.514 -16.654 -23.010  0.00  0.00    +0.147 C 
ATOM     13  C   UNL     1      34.834 -18.325 -24.457  0.00  0.00    +0.409 C 
BRANCH  11  14
ATOM     14  C   UNL     1      33.817 -15.307 -24.326  0.00  0.00    +0.135 C 
BRANCH  14  16
ATOM     15  O   UNL     1      34.099 -13.028 -22.549  0.00  0.00    -0.275 OA
ATOM     16  N   UNL     1      33.994 -13.933 -24.694  0.00  0.00    -0.301 N 
ATOM     17  C   UNL     1      34.121 -12.900 -23.771  0.00  0.00    +0.223 C 
ATOM     18  C   UNL     1      34.321 -11.559 -24.426  0.00  0.00    +0.095 C 
ATOM     19  H   UNL     1      34.027 -13.708 -25.652  0.00  0.00    +0.150 HD
ENDBRANCH  14  16
ENDBRANCH  11  14
ENDBRANCH   2  10
BRANCH   5  20
ATOM     20  C   UNL     1      34.781 -21.513 -18.676  0.00  0.00    +0.002 C 
ATOM     21  C   UNL     1      34.633 -23.238 -16.489  0.00  0.00    -0.044 C 
ATOM     22  C   UNL     1      33.622 -22.256 -18.451  0.00  0.00    -0.000 C 
ATOM     23  C   UNL     1      35.866 -21.633 -17.807  0.00  0.00    -0.000 C 
ATOM     24  C   UNL     1      33.549 -23.119 -17.357  0.00  0.00    -0.006 C 
ATOM     25  C   UNL     1      35.792 -22.494 -16.713  0.00  0.00    -0.006 C 
BRANCH  21  26
ATOM     26  C   UNL     1      34.554 -24.161 -15.320  0.00  0.00    -0.054 C 
BRANCH  26  27
ATOM     27  N   UNL     1      35.825 -24.258 -14.599  0.00  0.00    +0.390 N 
ATOM     28  H   UNL     1      35.660 -24.097 -13.605  0.00  0.00    -0.083 HD
ATOM     29  H   UNL     1      36.467 -23.558 -14.969  0.00  0.00    -0.083 HD
BRANCH  27  30
ATOM     30  C   UNL     1      36.416 -25.575 -14.776  0.00  0.00    -0.031 C 
BRANCH  30  34
ATOM     31  N   UNL     1      38.442 -26.604 -13.797  0.00  0.00    -0.170 NA
ATOM     32  N   UNL     1      39.719 -26.195 -13.724  0.00  0.00    -0.157 N 
ATOM     33  N   UNL     1      40.044 -25.008 -14.262  0.00  0.00    -0.162 NA
ATOM     34  C   UNL     1      37.886 -25.579 -14.449  0.00  0.00    +0.077 C 
ATOM     35  C   UNL     1      38.858 -24.610 -14.731  0.00  0.00    +0.133 C 
ATOM     36  H   UNL     1      40.402 -26.753 -13.285  0.00  0.00    +0.197 HD
ENDBRANCH  30  34
ENDBRANCH  27  30
ENDBRANCH  26  27
ENDBRANCH  21  26
ENDBRANCH   5  20
TORSDOF 8
ENDMDL
MODEL 7
REMARK VINA RESULT:     -11.4      5.081     11.372
REMARK  Name = 11224409
REMARK  8 active torsions:
REMARK  status: ('A' for Active; 'I' for Inactive)
REMARK    1  A    between atoms: C_2  and  N_10
REMARK    2  A    between atoms: C_5  and  C_20
REMARK    3  A    between atoms: C_11  and  C_14
REMARK    4  A    between atoms: C_14  and  N_16
REMARK    5  A    between atoms: C_21  and  C_26
REMARK    6  A    between atoms: C_26  and  N_27
REMARK    7  A    between atoms: N_27  and  C_30
REMARK    8  A    between atoms: C_30  and  C_34
REMARK                            x       y       z     vdW  Elec       q    Type
REMARK                         _______ _______ _______ _____ _____    ______ ____
ROOT
ATOM      1  F   UNL     1      37.019 -20.893 -19.648  0.00  0.00    -0.204 F 
ATOM      2  C   UNL     1      34.783 -19.104 -21.886  0.00  0.00    +0.059 C 
ATOM      3  C   UNL     1      35.954 -19.592 -21.306  0.00  0.00    +0.045 C 
ATOM      4  C   UNL     1      33.542 -19.456 -21.354  0.00  0.00    +0.015 C 
ATOM      5  C   UNL     1      34.644 -20.784 -19.663  0.00  0.00    +0.028 C 
ATOM      6  C   UNL     1      35.884 -20.432 -20.194  0.00  0.00    +0.141 C 
ATOM      7  C   UNL     1      33.472 -20.297 -20.243  0.00  0.00    +0.004 C 
ENDROOT
BRANCH   2  10
ATOM      8  O   UNL     1      34.632 -17.405 -25.103  0.00  0.00    -0.434 OA
ATOM      9  O   UNL     1      33.760 -19.466 -24.728  0.00  0.00    -0.226 OA
ATOM     10  N   UNL     1      34.854 -18.246 -23.020  0.00  0.00    -0.221 N 
ATOM     11  C   UNL     1      35.134 -16.334 -24.294  0.00  0.00    +0.210 C 
ATOM     12  C   UNL     1      35.588 -17.009 -23.017  0.00  0.00    +0.147 C 
ATOM     13  C   UNL     1      34.347 -18.484 -24.296  0.00  0.00    +0.409 C 
BRANCH  11  14
ATOM     14  C   UNL     1      34.020 -15.321 -24.073  0.00  0.00    +0.135 C 
BRANCH  14  16
ATOM     15  O   UNL     1      33.991 -12.511 -24.805  0.00  0.00    -0.275 OA
ATOM     16  N   UNL     1      33.587 -14.748 -25.314  0.00  0.00    -0.301 N 
ATOM     17  C   UNL     1      33.608 -13.383 -25.580  0.00  0.00    +0.223 C 
ATOM     18  C   UNL     1      33.123 -13.056 -26.967  0.00  0.00    +0.095 C 
ATOM     19  H   UNL     1      33.256 -15.355 -26.016  0.00  0.00    +0.150 HD
ENDBRANCH  14  16
ENDBRANCH  11  14
ENDBRANCH   2  10
BRANCH   5  20
ATOM     20  C   UNL     1      34.567 -21.655 -18.510  0.00  0.00    +0.002 C 
ATOM     21  C   UNL     1      34.419 -23.335 -16.288  0.00  0.00    -0.044 C 
ATOM     22  C   UNL     1      33.396 -22.367 -18.251  0.00  0.00    -0.000 C 
ATOM     23  C   UNL     1      35.664 -21.783 -17.658  0.00  0.00    -0.000 C 
ATOM     24  C   UNL     1      33.322 -23.208 -17.140  0.00  0.00    -0.006 C 
ATOM     25  C   UNL     1      35.590 -22.623 -16.547  0.00  0.00    -0.006 C 
BRANCH  21  26
ATOM     26  C   UNL     1      34.340 -24.235 -15.101  0.00  0.00    -0.054 C 
BRANCH  26  27
ATOM     27  N   UNL     1      33.643 -23.612 -13.974  0.00  0.00    +0.390 N 
ATOM     28  H   UNL     1      33.231 -22.731 -14.281  0.00  0.00    -0.083 HD
ATOM     29  H   UNL     1      34.315 -23.445 -13.225  0.00  0.00    -0.083 HD
BRANCH  27  30
ATOM     30  C   UNL     1      32.592 -24.483 -13.475  0.00  0.00    -0.031 C 
BRANCH  30  34
ATOM     31  N   UNL     1      30.839 -22.945 -14.304  0.00  0.00    -0.170 NA
ATOM     32  N   UNL     1      29.660 -23.159 -14.908  0.00  0.00    -0.157 N 
ATOM     33  N   UNL     1      29.282 -24.426 -15.145  0.00  0.00    -0.162 NA
ATOM     34  C   UNL     1      31.268 -24.199 -14.134  0.00  0.00    +0.077 C 
ATOM     35  C   UNL     1      30.322 -25.099 -14.644  0.00  0.00    +0.133 C 
ATOM     36  H   UNL     1      29.085 -22.405 -15.171  0.00  0.00    +0.197 HD
ENDBRANCH  30  34
ENDBRANCH  27  30
ENDBRANCH  26  27
ENDBRANCH  21  26
ENDBRANCH   5  20
TORSDOF 8
ENDMDL
MODEL 8
REMARK VINA RESULT:     -11.3      2.724      4.567
REMARK  Name = 11224409
REMARK  8 active torsions:
REMARK  status: ('A' for Active; 'I' for Inactive)
REMARK    1  A    between atoms: C_2  and  N_10
REMARK    2  A    between atoms: C_5  and  C_20
REMARK    3  A    between atoms: C_11  and  C_14
REMARK    4  A    between atoms: C_14  and  N_16
REMARK    5  A    between atoms: C_21  and  C_26
REMARK    6  A    between atoms: C_26  and  N_27
REMARK    7  A    between atoms: N_27  and  C_30
REMARK    8  A    between atoms: C_30  and  C_34
REMARK                            x       y       z     vdW  Elec       q    Type
REMARK                         _______ _______ _______ _____ _____    ______ ____
ROOT
ATOM      1  F   UNL     1      32.573 -20.082 -20.503  0.00  0.00    -0.204 F 
ATOM      2  C   UNL     1      34.865 -21.816 -18.279  0.00  0.00    +0.059 C 
ATOM      3  C   UNL     1      33.679 -21.377 -18.868  0.00  0.00    +0.045 C 
ATOM      4  C   UNL     1      36.093 -21.372 -18.769  0.00  0.00    +0.015 C 
ATOM      5  C   UNL     1      34.949 -20.050 -20.436  0.00  0.00    +0.028 C 
ATOM      6  C   UNL     1      33.722 -20.494 -19.947  0.00  0.00    +0.141 C 
ATOM      7  C   UNL     1      36.136 -20.489 -19.848  0.00  0.00    +0.004 C 
ENDROOT
BRANCH   2  10
ATOM      8  O   UNL     1      35.338 -23.835 -15.285  0.00  0.00    -0.434 OA
ATOM      9  O   UNL     1      36.797 -22.238 -15.967  0.00  0.00    -0.226 OA
ATOM     10  N   UNL     1      34.821 -22.718 -17.178  0.00  0.00    -0.221 N 
ATOM     11  C   UNL     1      33.998 -24.220 -15.621  0.00  0.00    +0.210 C 
ATOM     12  C   UNL     1      33.814 -23.736 -17.043  0.00  0.00    +0.147 C 
ATOM     13  C   UNL     1      35.750 -22.842 -16.147  0.00  0.00    +0.409 C 
BRANCH  11  14
ATOM     14  C   UNL     1      33.038 -23.569 -14.636  0.00  0.00    +0.135 C 
BRANCH  14  16
ATOM     15  O   UNL     1      31.237 -24.918 -12.800  0.00  0.00    -0.275 OA
ATOM     16  N   UNL     1      31.686 -23.975 -14.883  0.00  0.00    -0.301 N 
ATOM     17  C   UNL     1      30.892 -24.620 -13.941  0.00  0.00    +0.223 C 
ATOM     18  C   UNL     1      29.507 -24.912 -14.453  0.00  0.00    +0.095 C 
ATOM     19  H   UNL     1      31.299 -23.789 -15.770  0.00  0.00    +0.150 HD
ENDBRANCH  14  16
ENDBRANCH  11  14
ENDBRANCH   2  10
BRANCH   5  20
ATOM     20  C   UNL     1      34.998 -19.133 -21.555  0.00  0.00    +0.002 C 
ATOM     21  C   UNL     1      35.091 -17.365 -23.710  0.00  0.00    -0.044 C 
ATOM     22  C   UNL     1      34.343 -19.449 -22.744  0.00  0.00    -0.000 C 
ATOM     23  C   UNL     1      35.700 -17.932 -21.443  0.00  0.00    -0.000 C 
ATOM     24  C   UNL     1      34.388 -18.564 -23.822  0.00  0.00    -0.006 C 
ATOM     25  C   UNL     1      35.747 -17.049 -22.521  0.00  0.00    -0.006 C 
BRANCH  21  26
ATOM     26  C   UNL     1      35.139 -16.420 -24.863  0.00  0.00    -0.054 C 
BRANCH  26  27
ATOM     27  N   UNL     1      34.222 -15.290 -24.697  0.00  0.00    +0.390 N 
ATOM     28  H   UNL     1      33.398 -15.600 -24.183  0.00  0.00    -0.083 HD
ATOM     29  H   UNL     1      33.955 -14.946 -25.619  0.00  0.00    -0.083 HD
BRANCH  27  30
ATOM     30  C   UNL     1      34.865 -14.211 -23.964  0.00  0.00    -0.031 C 
BRANCH  30  34
ATOM     31  N   UNL     1      34.414 -14.148 -21.531  0.00  0.00    -0.170 NA
ATOM     32  N   UNL     1      33.443 -13.571 -20.806  0.00  0.00    -0.157 N 
ATOM     33  N   UNL     1      32.491 -12.875 -21.448  0.00  0.00    -0.162 NA
ATOM     34  C   UNL     1      34.055 -13.788 -22.767  0.00  0.00    +0.077 C 
ATOM     35  C   UNL     1      32.887 -13.015 -22.716  0.00  0.00    +0.133 C 
ATOM     36  H   UNL     1      33.429 -13.658 -19.825  0.00  0.00    +0.197 HD
ENDBRANCH  30  34
ENDBRANCH  27  30
ENDBRANCH  26  27
ENDBRANCH  21  26
ENDBRANCH   5  20
TORSDOF 8
ENDMDL
MODEL 9
REMARK VINA RESULT:     -11.2      1.532      2.258
REMARK  Name = 11224409
REMARK  8 active torsions:
REMARK  status: ('A' for Active; 'I' for Inactive)
REMARK    1  A    between atoms: C_2  and  N_10
REMARK    2  A    between atoms: C_5  and  C_20
REMARK    3  A    between atoms: C_11  and  C_14
REMARK    4  A    between atoms: C_14  and  N_16
REMARK    5  A    between atoms: C_21  and  C_26
REMARK    6  A    between atoms: C_26  and  N_27
REMARK    7  A    between atoms: N_27  and  C_30
REMARK    8  A    between atoms: C_30  and  C_34
REMARK                            x       y       z     vdW  Elec       q    Type
REMARK                         _______ _______ _______ _____ _____    ______ ____
ROOT
ATOM      1  F   UNL     1      32.959 -20.816 -20.009  0.00  0.00    -0.204 F 
ATOM      2  C   UNL     1      35.264 -22.167 -17.545  0.00  0.00    +0.059 C 
ATOM      3  C   UNL     1      34.079 -21.881 -18.224  0.00  0.00    +0.045 C 
ATOM      4  C   UNL     1      36.475 -21.654 -18.009  0.00  0.00    +0.015 C 
ATOM      5  C   UNL     1      35.317 -20.569 -19.831  0.00  0.00    +0.028 C 
ATOM      6  C   UNL     1      34.106 -21.081 -19.367  0.00  0.00    +0.141 C 
ATOM      7  C   UNL     1      36.502 -20.856 -19.153  0.00  0.00    +0.004 C 
ENDROOT
BRANCH   2  10
ATOM      8  O   UNL     1      34.534 -24.316 -14.698  0.00  0.00    -0.434 OA
ATOM      9  O   UNL     1      32.972 -23.649 -16.201  0.00  0.00    -0.226 OA
ATOM     10  N   UNL     1      35.236 -22.982 -16.378  0.00  0.00    -0.221 N 
ATOM     11  C   UNL     1      35.966 -24.299 -14.620  0.00  0.00    +0.210 C 
ATOM     12  C   UNL     1      36.376 -23.151 -15.518  0.00  0.00    +0.147 C 
ATOM     13  C   UNL     1      34.137 -23.639 -15.829  0.00  0.00    +0.409 C 
BRANCH  11  14
ATOM     14  C   UNL     1      36.499 -25.646 -15.086  0.00  0.00    +0.135 C 
BRANCH  14  16
ATOM     15  O   UNL     1      38.372 -26.366 -12.986  0.00  0.00    -0.275 OA
ATOM     16  N   UNL     1      37.931 -25.641 -15.156  0.00  0.00    -0.301 N 
ATOM     17  C   UNL     1      38.755 -26.002 -14.095  0.00  0.00    +0.223 C 
ATOM     18  C   UNL     1      40.217 -25.930 -14.447  0.00  0.00    +0.095 C 
ATOM     19  H   UNL     1      38.354 -25.365 -16.002  0.00  0.00    +0.150 HD
ENDBRANCH  14  16
ENDBRANCH  11  14
ENDBRANCH   2  10
BRANCH   5  20
ATOM     20  C   UNL     1      35.350 -19.740 -21.017  0.00  0.00    +0.002 C 
ATOM     21  C   UNL     1      35.415 -18.143 -23.303  0.00  0.00    -0.044 C 
ATOM     22  C   UNL     1      36.476 -18.966 -21.295  0.00  0.00    -0.000 C 
ATOM     23  C   UNL     1      34.256 -19.716 -21.882  0.00  0.00    -0.000 C 
ATOM     24  C   UNL     1      36.509 -18.168 -22.438  0.00  0.00    -0.006 C 
ATOM     25  C   UNL     1      34.288 -18.917 -23.024  0.00  0.00    -0.006 C 
BRANCH  21  26
ATOM     26  C   UNL     1      35.450 -17.290 -24.525  0.00  0.00    -0.054 C 
BRANCH  26  27
ATOM     27  N   UNL     1      35.726 -15.885 -24.218  0.00  0.00    +0.390 N 
ATOM     28  H   UNL     1      36.098 -15.427 -25.049  0.00  0.00    -0.083 HD
ATOM     29  H   UNL     1      36.403 -15.842 -23.457  0.00  0.00    -0.083 HD
BRANCH  27  30
ATOM     30  C   UNL     1      34.511 -15.203 -23.801  0.00  0.00    -0.031 C 
BRANCH  30  34
ATOM     31  N   UNL     1      33.218 -15.028 -25.905  0.00  0.00    -0.170 NA
ATOM     32  N   UNL     1      32.862 -13.979 -26.663  0.00  0.00    -0.157 N 
ATOM     33  N   UNL     1      33.241 -12.750 -26.275  0.00  0.00    -0.162 NA
ATOM     34  C   UNL     1      33.895 -14.416 -24.928  0.00  0.00    +0.077 C 
ATOM     35  C   UNL     1      33.909 -13.033 -25.154  0.00  0.00    +0.133 C 
ATOM     36  H   UNL     1      32.335 -14.108 -27.484  0.00  0.00    +0.197 HD
ENDBRANCH  30  34
ENDBRANCH  27  30
ENDBRANCH  26  27
ENDBRANCH  21  26
ENDBRANCH   5  20
TORSDOF 8
ENDMDL
