MODEL 1
REMARK VINA RESULT:     -11.7      0.000      0.000
REMARK  Name = 9810927
REMARK  6 active torsions:
REMARK  status: ('A' for Active; 'I' for Inactive)
REMARK    1  A    between atoms: N_1  and  C_13
REMARK    2  A    between atoms: C_11  and  O_24
REMARK    3  A    between atoms: C_12  and  O_26
REMARK    4  A    between atoms: C_14  and  C_18
REMARK    5  A    between atoms: C_19  and  C_20
REMARK    6  A    between atoms: N_28  and  C_32
REMARK                            x       y       z     vdW  Elec       q    Type
REMARK                         _______ _______ _______ _____ _____    ______ ____
ROOT
ATOM      1  N   UNL     1      36.526 -23.123 -15.924  0.00  0.00    -0.247 N 
ATOM      2  N   UNL     1      37.579 -21.507 -17.045  0.00  0.00    -0.242 NA
ATOM      3  N   UNL     1      34.511 -23.314 -17.268  0.00  0.00    -0.228 NA
ATOM      4  N   UNL     1      34.538 -21.746 -19.137  0.00  0.00    -0.228 NA
ATOM      5  C   UNL     1      35.708 -22.788 -16.967  0.00  0.00    +0.152 C 
ATOM      6  C   UNL     1      37.637 -22.325 -16.015  0.00  0.00    +0.223 C 
ATOM      7  C   UNL     1      36.379 -21.786 -17.649  0.00  0.00    +0.140 C 
ATOM      8  C   UNL     1      35.750 -21.261 -18.774  0.00  0.00    +0.150 C 
ATOM      9  C   UNL     1      34.002 -22.727 -18.372  0.00  0.00    +0.253 C 
ATOM     10  N   UNL     1      36.359 -20.242 -19.527  0.00  0.00    -0.295 N 
ATOM     11  H   UNL     1      37.237 -19.965 -19.178  0.00  0.00    +0.154 HD
ENDROOT
BRANCH  10  14
ATOM     12 CL   UNL     1      34.689 -17.295 -24.382  0.00  0.00    -0.082 Cl
ATOM     13  F   UNL     1      38.039 -18.387 -20.745  0.00  0.00    -0.203 F 
ATOM     14  C   UNL     1      35.963 -19.539 -20.684  0.00  0.00    +0.077 C 
ATOM     15  C   UNL     1      36.827 -18.616 -21.272  0.00  0.00    +0.154 C 
ATOM     16  C   UNL     1      34.705 -19.768 -21.239  0.00  0.00    +0.018 C 
ATOM     17  C   UNL     1      36.434 -17.921 -22.415  0.00  0.00    +0.042 C 
ATOM     18  C   UNL     1      34.310 -19.074 -22.382  0.00  0.00    +0.013 C 
ATOM     19  C   UNL     1      35.174 -18.151 -22.971  0.00  0.00    +0.060 C 
ENDBRANCH  10  14
BRANCH   1  23
ATOM     20  O   UNL     1      34.858 -24.388 -14.795  0.00  0.00    -0.326 OA
ATOM     21  C   UNL     1      36.763 -23.743 -13.509  0.00  0.00    +0.187 C 
ATOM     22  C   UNL     1      35.493 -23.243 -12.846  0.00  0.00    +0.178 C 
ATOM     23  C   UNL     1      36.274 -24.138 -14.898  0.00  0.00    +0.225 C 
ATOM     24  C   UNL     1      34.436 -24.172 -13.428  0.00  0.00    +0.223 C 
BRANCH  24  28
ATOM     25  O   UNL     1      32.362 -23.774 -14.656  0.00  0.00    -0.421 OA
ATOM     26  N   UNL     1      32.293 -23.138 -12.512  0.00  0.00    -0.109 NA
ATOM     27  N   UNL     1      31.064 -22.856 -13.081  0.00  0.00    -0.112 NA
ATOM     28  C   UNL     1      33.009 -23.669 -13.467  0.00  0.00    +0.255 A 
ATOM     29  C   UNL     1      31.151 -23.244 -14.332  0.00  0.00    +0.225 A 
BRANCH  29  30
ATOM     30  C   UNL     1      30.145 -23.188 -15.401  0.00  0.00    +0.070 C 
ATOM     31  C   UNL     1      29.538 -24.600 -15.733  0.00  0.00    +0.009 C 
ATOM     32  C   UNL     1      30.726 -22.623 -16.749  0.00  0.00    +0.009 C 
ATOM     33  C   UNL     1      28.884 -22.283 -15.114  0.00  0.00    +0.009 C 
ENDBRANCH  29  30
ENDBRANCH  24  28
BRANCH  21  34
ATOM     34  O   UNL     1      37.237 -24.922 -12.861  0.00  0.00    -0.378 OA
ATOM     35  H   UNL     1      37.677 -25.493 -13.510  0.00  0.00    +0.211 HD
ENDBRANCH  21  34
BRANCH  22  36
ATOM     36  O   UNL     1      35.551 -23.322 -11.436  0.00  0.00    -0.379 OA
ATOM     37  H   UNL     1      34.743 -22.941 -11.057  0.00  0.00    +0.211 HD
ENDBRANCH  22  36
ENDBRANCH   1  23
TORSDOF 6
ENDMDL
MODEL 2
REMARK VINA RESULT:     -11.2     11.517     15.459
REMARK  Name = 9810927
REMARK  6 active torsions:
REMARK  status: ('A' for Active; 'I' for Inactive)
REMARK    1  A    between atoms: N_1  and  C_13
REMARK    2  A    between atoms: C_11  and  O_24
REMARK    3  A    between atoms: C_12  and  O_26
REMARK    4  A    between atoms: C_14  and  C_18
REMARK    5  A    between atoms: C_19  and  C_20
REMARK    6  A    between atoms: N_28  and  C_32
REMARK                            x       y       z     vdW  Elec       q    Type
REMARK                         _______ _______ _______ _____ _____    ______ ____
ROOT
ATOM      1  N   UNL     1      32.455  -9.969 -21.958  0.00  0.00    -0.247 N 
ATOM      2  N   UNL     1      33.514 -11.014 -23.620  0.00  0.00    -0.242 NA
ATOM      3  N   UNL     1      32.105 -11.841 -20.449  0.00  0.00    -0.228 NA
ATOM      4  N   UNL     1      33.017 -13.908 -21.372  0.00  0.00    -0.228 NA
ATOM      5  C   UNL     1      32.552 -11.281 -21.583  0.00  0.00    +0.152 C 
ATOM      6  C   UNL     1      33.047  -9.860 -23.189  0.00  0.00    +0.223 C 
ATOM      7  C   UNL     1      33.212 -11.910 -22.626  0.00  0.00    +0.140 C 
ATOM      8  C   UNL     1      33.442 -13.275 -22.492  0.00  0.00    +0.150 C 
ATOM      9  C   UNL     1      32.384 -13.163 -20.434  0.00  0.00    +0.253 C 
ATOM     10  N   UNL     1      34.105 -13.994 -23.502  0.00  0.00    -0.295 N 
ATOM     11  H   UNL     1      34.372 -13.440 -24.271  0.00  0.00    +0.154 HD
ENDROOT
BRANCH  10  14
ATOM     12 CL   UNL     1      35.622 -19.691 -24.042  0.00  0.00    -0.082 Cl
ATOM     13  F   UNL     1      33.211 -15.535 -25.640  0.00  0.00    -0.203 F 
ATOM     14  C   UNL     1      34.466 -15.352 -23.632  0.00  0.00    +0.077 C 
ATOM     15  C   UNL     1      34.002 -16.098 -24.715  0.00  0.00    +0.154 C 
ATOM     16  C   UNL     1      35.287 -15.947 -22.675  0.00  0.00    +0.018 C 
ATOM     17  C   UNL     1      34.359 -17.440 -24.842  0.00  0.00    +0.042 C 
ATOM     18  C   UNL     1      35.644 -17.289 -22.801  0.00  0.00    +0.013 C 
ATOM     19  C   UNL     1      35.181 -18.036 -23.885  0.00  0.00    +0.060 C 
ENDBRANCH  10  14
BRANCH   1  23
ATOM     20  O   UNL     1      31.669  -7.725 -22.044  0.00  0.00    -0.326 OA
ATOM     21  C   UNL     1      32.652  -8.435 -19.988  0.00  0.00    +0.187 C 
ATOM     22  C   UNL     1      33.372  -7.207 -20.513  0.00  0.00    +0.178 C 
ATOM     23  C   UNL     1      31.837  -8.880 -21.197  0.00  0.00    +0.225 C 
ATOM     24  C   UNL     1      32.330  -6.591 -21.437  0.00  0.00    +0.223 C 
BRANCH  24  28
ATOM     25  O   UNL     1      32.135  -4.555 -22.772  0.00  0.00    -0.421 OA
ATOM     26  N   UNL     1      33.840  -5.876 -23.363  0.00  0.00    -0.109 NA
ATOM     27  N   UNL     1      33.848  -4.771 -24.195  0.00  0.00    -0.112 NA
ATOM     28  C   UNL     1      32.827  -5.702 -22.557  0.00  0.00    +0.255 A 
ATOM     29  C   UNL     1      32.835  -4.028 -23.813  0.00  0.00    +0.225 A 
BRANCH  29  30
ATOM     30  C   UNL     1      32.370  -2.739 -24.341  0.00  0.00    +0.070 C 
ATOM     31  C   UNL     1      33.506  -1.947 -25.086  0.00  0.00    +0.009 C 
ATOM     32  C   UNL     1      31.827  -1.786 -23.214  0.00  0.00    +0.009 C 
ATOM     33  C   UNL     1      31.194  -2.807 -25.390  0.00  0.00    +0.009 C 
ENDBRANCH  29  30
ENDBRANCH  24  28
BRANCH  21  34
ATOM     34  O   UNL     1      31.739  -8.077 -18.952  0.00  0.00    -0.378 OA
ATOM     35  H   UNL     1      32.098  -7.329 -18.449  0.00  0.00    +0.211 HD
ENDBRANCH  21  34
BRANCH  22  36
ATOM     36  O   UNL     1      33.757  -6.322 -19.480  0.00  0.00    -0.379 OA
ATOM     37  H   UNL     1      34.103  -6.831 -18.730  0.00  0.00    +0.211 HD
ENDBRANCH  22  36
ENDBRANCH   1  23
TORSDOF 6
ENDMDL
MODEL 3
REMARK VINA RESULT:     -11.1      5.752     10.188
REMARK  Name = 9810927
REMARK  6 active torsions:
REMARK  status: ('A' for Active; 'I' for Inactive)
REMARK    1  A    between atoms: N_1  and  C_13
REMARK    2  A    between atoms: C_11  and  O_24
REMARK    3  A    between atoms: C_12  and  O_26
REMARK    4  A    between atoms: C_14  and  C_18
REMARK    5  A    between atoms: C_19  and  C_20
REMARK    6  A    between atoms: N_28  and  C_32
REMARK                            x       y       z     vdW  Elec       q    Type
REMARK                         _______ _______ _______ _____ _____    ______ ____
ROOT
ATOM      1  N   UNL     1      34.558 -19.928 -21.176  0.00  0.00    -0.247 N 
ATOM      2  N   UNL     1      32.585 -20.357 -20.227  0.00  0.00    -0.242 NA
ATOM      3  N   UNL     1      36.023 -21.107 -19.636  0.00  0.00    -0.228 NA
ATOM      4  N   UNL     1      34.755 -22.173 -17.844  0.00  0.00    -0.228 NA
ATOM      5  C   UNL     1      34.824 -20.691 -20.073  0.00  0.00    +0.152 C 
ATOM      6  C   UNL     1      33.200 -19.755 -21.224  0.00  0.00    +0.223 C 
ATOM      7  C   UNL     1      33.588 -20.947 -19.501  0.00  0.00    +0.140 C 
ATOM      8  C   UNL     1      33.579 -21.719 -18.343  0.00  0.00    +0.150 C 
ATOM      9  C   UNL     1      35.887 -21.843 -18.512  0.00  0.00    +0.253 C 
ATOM     10  N   UNL     1      32.370 -22.028 -17.695  0.00  0.00    -0.295 N 
ATOM     11  H   UNL     1      31.577 -21.651 -18.141  0.00  0.00    +0.154 HD
ENDROOT
BRANCH  10  14
ATOM     12 CL   UNL     1      31.108 -25.147 -12.825  0.00  0.00    -0.082 Cl
ATOM     13  F   UNL     1      29.750 -22.328 -16.806  0.00  0.00    -0.203 F 
ATOM     14  C   UNL     1      32.067 -22.771 -16.535  0.00  0.00    +0.077 C 
ATOM     15  C   UNL     1      30.744 -22.903 -16.115  0.00  0.00    +0.154 C 
ATOM     16  C   UNL     1      33.094 -23.372 -15.808  0.00  0.00    +0.018 C 
ATOM     17  C   UNL     1      30.447 -23.638 -14.967  0.00  0.00    +0.042 C 
ATOM     18  C   UNL     1      32.798 -24.107 -14.660  0.00  0.00    +0.013 C 
ATOM     19  C   UNL     1      31.475 -24.241 -14.240  0.00  0.00    +0.060 C 
ENDBRANCH  10  14
BRANCH   1  23
ATOM     20  O   UNL     1      35.816 -18.014 -21.817  0.00  0.00    -0.326 OA
ATOM     21  C   UNL     1      35.060 -19.436 -23.580  0.00  0.00    +0.187 C 
ATOM     22  C   UNL     1      34.566 -18.019 -23.805  0.00  0.00    +0.178 C 
ATOM     23  C   UNL     1      35.532 -19.392 -22.130  0.00  0.00    +0.225 C 
ATOM     24  C   UNL     1      35.549 -17.198 -22.982  0.00  0.00    +0.223 C 
BRANCH  24  28
ATOM     25  O   UNL     1      34.549 -15.012 -23.419  0.00  0.00    -0.421 OA
ATOM     26  N   UNL     1      35.134 -15.340 -21.285  0.00  0.00    -0.109 NA
ATOM     27  N   UNL     1      34.587 -14.074 -21.388  0.00  0.00    -0.112 NA
ATOM     28  C   UNL     1      35.088 -15.842 -22.490  0.00  0.00    +0.255 A 
ATOM     29  C   UNL     1      34.261 -13.927 -22.651  0.00  0.00    +0.225 A 
BRANCH  29  30
ATOM     30  C   UNL     1      33.640 -12.781 -23.329  0.00  0.00    +0.070 C 
ATOM     31  C   UNL     1      32.440 -12.175 -22.513  0.00  0.00    +0.009 C 
ATOM     32  C   UNL     1      33.073 -13.153 -24.748  0.00  0.00    +0.009 C 
ATOM     33  C   UNL     1      34.584 -11.546 -23.602  0.00  0.00    +0.009 C 
ENDBRANCH  29  30
ENDBRANCH  24  28
BRANCH  21  34
ATOM     34  O   UNL     1      36.194 -19.708 -24.401  0.00  0.00    -0.378 OA
ATOM     35  H   UNL     1      36.324 -18.976 -25.025  0.00  0.00    +0.211 HD
ENDBRANCH  21  34
BRANCH  22  36
ATOM     36  O   UNL     1      34.578 -17.652 -25.170  0.00  0.00    -0.379 OA
ATOM     37  H   UNL     1      35.419 -17.214 -25.379  0.00  0.00    +0.211 HD
ENDBRANCH  22  36
ENDBRANCH   1  23
TORSDOF 6
ENDMDL
MODEL 4
REMARK VINA RESULT:     -10.8     12.052     16.231
REMARK  Name = 9810927
REMARK  6 active torsions:
REMARK  status: ('A' for Active; 'I' for Inactive)
REMARK    1  A    between atoms: N_1  and  C_13
REMARK    2  A    between atoms: C_11  and  O_24
REMARK    3  A    between atoms: C_12  and  O_26
REMARK    4  A    between atoms: C_14  and  C_18
REMARK    5  A    between atoms: C_19  and  C_20
REMARK    6  A    between atoms: N_28  and  C_32
REMARK                            x       y       z     vdW  Elec       q    Type
REMARK                         _______ _______ _______ _____ _____    ______ ____
ROOT
ATOM      1  N   UNL     1      32.173  -8.988 -22.379  0.00  0.00    -0.247 N 
ATOM      2  N   UNL     1      33.423 -10.069 -23.877  0.00  0.00    -0.242 NA
ATOM      3  N   UNL     1      31.618 -10.832 -20.896  0.00  0.00    -0.228 NA
ATOM      4  N   UNL     1      32.621 -12.921 -21.662  0.00  0.00    -0.228 NA
ATOM      5  C   UNL     1      32.209 -10.294 -21.974  0.00  0.00    +0.152 C 
ATOM      6  C   UNL     1      32.916  -8.905 -23.527  0.00  0.00    +0.223 C 
ATOM      7  C   UNL     1      32.990 -10.945 -22.915  0.00  0.00    +0.140 C 
ATOM      8  C   UNL     1      33.189 -12.310 -22.731  0.00  0.00    +0.150 C 
ATOM      9  C   UNL     1      31.881 -12.155 -20.824  0.00  0.00    +0.253 C 
ATOM     10  N   UNL     1      33.968 -13.051 -23.636  0.00  0.00    -0.295 N 
ATOM     11  H   UNL     1      34.335 -12.512 -24.374  0.00  0.00    +0.154 HD
ENDROOT
BRANCH  10  14
ATOM     12 CL   UNL     1      35.490 -18.767 -23.888  0.00  0.00    -0.082 Cl
ATOM     13  F   UNL     1      33.243 -14.650 -25.796  0.00  0.00    -0.203 F 
ATOM     14  C   UNL     1      34.330 -14.413 -23.698  0.00  0.00    +0.077 C 
ATOM     15  C   UNL     1      33.952 -15.188 -24.794  0.00  0.00    +0.154 C 
ATOM     16  C   UNL     1      35.066 -14.984 -22.661  0.00  0.00    +0.018 C 
ATOM     17  C   UNL     1      34.310 -16.535 -24.853  0.00  0.00    +0.042 C 
ATOM     18  C   UNL     1      35.425 -16.330 -22.719  0.00  0.00    +0.013 C 
ATOM     19  C   UNL     1      35.048 -17.106 -23.815  0.00  0.00    +0.060 C 
ENDBRANCH  10  14
BRANCH   1  23
ATOM     20  O   UNL     1      31.053  -6.914 -22.703  0.00  0.00    -0.326 OA
ATOM     21  C   UNL     1      32.324  -7.141 -20.695  0.00  0.00    +0.187 C 
ATOM     22  C   UNL     1      32.798  -5.931 -21.477  0.00  0.00    +0.178 C 
ATOM     23  C   UNL     1      31.474  -7.882 -21.720  0.00  0.00    +0.225 C 
ATOM     24  C   UNL     1      31.591  -5.618 -22.352  0.00  0.00    +0.223 C 
BRANCH  24  28
ATOM     25  O   UNL     1      33.070  -5.006 -24.198  0.00  0.00    -0.421 OA
ATOM     26  N   UNL     1      31.034  -4.085 -24.312  0.00  0.00    -0.109 NA
ATOM     27  N   UNL     1      31.760  -3.656 -25.409  0.00  0.00    -0.112 NA
ATOM     28  C   UNL     1      31.840  -4.865 -23.642  0.00  0.00    +0.255 A 
ATOM     29  C   UNL     1      32.940  -4.218 -25.300  0.00  0.00    +0.225 A 
BRANCH  29  30
ATOM     30  C   UNL     1      34.109  -4.118 -26.185  0.00  0.00    +0.070 C 
ATOM     31  C   UNL     1      35.260  -5.109 -25.776  0.00  0.00    +0.009 C 
ATOM     32  C   UNL     1      34.740  -2.678 -26.192  0.00  0.00    +0.009 C 
ATOM     33  C   UNL     1      33.849  -4.435 -27.709  0.00  0.00    +0.009 C 
ENDBRANCH  29  30
ENDBRANCH  24  28
BRANCH  21  34
ATOM     34  O   UNL     1      31.470  -6.744 -19.623  0.00  0.00    -0.378 OA
ATOM     35  H   UNL     1      31.910  -6.923 -18.776  0.00  0.00    +0.211 HD
ENDBRANCH  21  34
BRANCH  22  36
ATOM     36  O   UNL     1      33.142  -4.845 -20.639  0.00  0.00    -0.379 OA
ATOM     37  H   UNL     1      34.026  -4.522 -20.876  0.00  0.00    +0.211 HD
ENDBRANCH  22  36
ENDBRANCH   1  23
TORSDOF 6
ENDMDL
MODEL 5
REMARK VINA RESULT:     -10.2      3.157      5.793
REMARK  Name = 9810927
REMARK  6 active torsions:
REMARK  status: ('A' for Active; 'I' for Inactive)
REMARK    1  A    between atoms: N_1  and  C_13
REMARK    2  A    between atoms: C_11  and  O_24
REMARK    3  A    between atoms: C_12  and  O_26
REMARK    4  A    between atoms: C_14  and  C_18
REMARK    5  A    between atoms: C_19  and  C_20
REMARK    6  A    between atoms: N_28  and  C_32
REMARK                            x       y       z     vdW  Elec       q    Type
REMARK                         _______ _______ _______ _____ _____    ______ ____
ROOT
ATOM      1  N   UNL     1      36.807 -22.602 -15.724  0.00  0.00    -0.247 N 
ATOM      2  N   UNL     1      37.803 -21.156 -17.101  0.00  0.00    -0.242 NA
ATOM      3  N   UNL     1      34.709 -22.921 -16.908  0.00  0.00    -0.228 NA
ATOM      4  N   UNL     1      34.633 -21.595 -18.955  0.00  0.00    -0.228 NA
ATOM      5  C   UNL     1      35.927 -22.383 -16.748  0.00  0.00    +0.152 C 
ATOM      6  C   UNL     1      37.918 -21.841 -15.982  0.00  0.00    +0.223 C 
ATOM      7  C   UNL     1      36.565 -21.485 -17.590  0.00  0.00    +0.140 C 
ATOM      8  C   UNL     1      35.871 -21.092 -18.730  0.00  0.00    +0.150 C 
ATOM      9  C   UNL     1      34.136 -22.466 -18.043  0.00  0.00    +0.253 C 
ATOM     10  N   UNL     1      36.441 -20.184 -19.640  0.00  0.00    -0.295 N 
ATOM     11  H   UNL     1      37.343 -19.882 -19.383  0.00  0.00    +0.154 HD
ENDROOT
BRANCH  10  14
ATOM     12 CL   UNL     1      34.497 -17.826 -24.710  0.00  0.00    -0.082 Cl
ATOM     13  F   UNL     1      38.118 -18.681 -21.275  0.00  0.00    -0.203 F 
ATOM     14  C   UNL     1      35.980 -19.622 -20.849  0.00  0.00    +0.077 C 
ATOM     15  C   UNL     1      36.844 -18.873 -21.647  0.00  0.00    +0.154 C 
ATOM     16  C   UNL     1      34.657 -19.815 -21.244  0.00  0.00    +0.018 C 
ATOM     17  C   UNL     1      36.386 -18.318 -22.841  0.00  0.00    +0.042 C 
ATOM     18  C   UNL     1      34.197 -19.259 -22.437  0.00  0.00    +0.013 C 
ATOM     19  C   UNL     1      35.062 -18.511 -23.237  0.00  0.00    +0.060 C 
ENDBRANCH  10  14
BRANCH   1  23
ATOM     20  O   UNL     1      37.875 -24.027 -14.147  0.00  0.00    -0.326 OA
ATOM     21  C   UNL     1      35.678 -24.654 -14.838  0.00  0.00    +0.187 C 
ATOM     22  C   UNL     1      36.651 -25.787 -15.105  0.00  0.00    +0.178 C 
ATOM     23  C   UNL     1      36.610 -23.479 -14.567  0.00  0.00    +0.225 C 
ATOM     24  C   UNL     1      37.787 -25.471 -14.142  0.00  0.00    +0.223 C 
BRANCH  24  28
ATOM     25  O   UNL     1      39.200 -27.193 -15.146  0.00  0.00    -0.421 OA
ATOM     26  N   UNL     1      40.336 -25.502 -14.223  0.00  0.00    -0.109 NA
ATOM     27  N   UNL     1      41.252 -26.395 -14.748  0.00  0.00    -0.112 NA
ATOM     28  C   UNL     1      39.161 -26.011 -14.481  0.00  0.00    +0.255 A 
ATOM     29  C   UNL     1      40.544 -27.366 -15.276  0.00  0.00    +0.225 A 
BRANCH  29  30
ATOM     30  C   UNL     1      40.992 -28.579 -15.972  0.00  0.00    +0.070 C 
ATOM     31  C   UNL     1      39.912 -29.134 -16.973  0.00  0.00    +0.009 C 
ATOM     32  C   UNL     1      41.330 -29.754 -14.983  0.00  0.00    +0.009 C 
ATOM     33  C   UNL     1      42.293 -28.428 -16.853  0.00  0.00    +0.009 C 
ENDBRANCH  29  30
ENDBRANCH  24  28
BRANCH  21  34
ATOM     34  O   UNL     1      34.930 -24.903 -13.649  0.00  0.00    -0.378 OA
ATOM     35  H   UNL     1      34.186 -24.281 -13.599  0.00  0.00    +0.211 HD
ENDBRANCH  21  34
BRANCH  22  36
ATOM     36  O   UNL     1      36.083 -27.058 -14.857  0.00  0.00    -0.379 OA
ATOM     37  H   UNL     1      35.619 -27.365 -15.653  0.00  0.00    +0.211 HD
ENDBRANCH  22  36
ENDBRANCH   1  23
TORSDOF 6
ENDMDL
MODEL 6
REMARK VINA RESULT:      -9.9      1.595      2.479
REMARK  Name = 9810927
REMARK  6 active torsions:
REMARK  status: ('A' for Active; 'I' for Inactive)
REMARK    1  A    between atoms: N_1  and  C_13
REMARK    2  A    between atoms: C_11  and  O_24
REMARK    3  A    between atoms: C_12  and  O_26
REMARK    4  A    between atoms: C_14  and  C_18
REMARK    5  A    between atoms: C_19  and  C_20
REMARK    6  A    between atoms: N_28  and  C_32
REMARK                            x       y       z     vdW  Elec       q    Type
REMARK                         _______ _______ _______ _____ _____    ______ ____
ROOT
ATOM      1  N   UNL     1      34.777 -22.551 -18.021  0.00  0.00    -0.247 N 
ATOM      2  N   UNL     1      33.385 -21.481 -19.396  0.00  0.00    -0.242 NA
ATOM      3  N   UNL     1      36.872 -21.489 -18.643  0.00  0.00    -0.228 NA
ATOM      4  N   UNL     1      36.536 -19.820 -20.393  0.00  0.00    -0.228 NA
ATOM      5  C   UNL     1      35.547 -21.677 -18.737  0.00  0.00    +0.152 C 
ATOM      6  C   UNL     1      33.486 -22.395 -18.454  0.00  0.00    +0.223 C 
ATOM      7  C   UNL     1      34.664 -21.023 -19.582  0.00  0.00    +0.140 C 
ATOM      8  C   UNL     1      35.203 -20.063 -20.433  0.00  0.00    +0.150 C 
ATOM      9  C   UNL     1      37.276 -20.538 -19.513  0.00  0.00    +0.253 C 
ATOM     10  N   UNL     1      34.382 -19.350 -21.324  0.00  0.00    -0.295 N 
ATOM     11  H   UNL     1      33.431 -19.602 -21.271  0.00  0.00    +0.154 HD
ENDROOT
BRANCH  10  14
ATOM     12 CL   UNL     1      35.494 -15.139 -25.333  0.00  0.00    -0.082 Cl
ATOM     13  F   UNL     1      35.316 -16.840 -20.567  0.00  0.00    -0.203 F 
ATOM     14  C   UNL     1      34.648 -18.345 -22.278  0.00  0.00    +0.077 C 
ATOM     15  C   UNL     1      35.115 -17.097 -21.867  0.00  0.00    +0.154 C 
ATOM     16  C   UNL     1      34.441 -18.602 -23.632  0.00  0.00    +0.018 C 
ATOM     17  C   UNL     1      35.377 -16.106 -22.812  0.00  0.00    +0.042 C 
ATOM     18  C   UNL     1      34.702 -17.611 -24.578  0.00  0.00    +0.013 C 
ATOM     19  C   UNL     1      35.171 -16.363 -24.168  0.00  0.00    +0.060 C 
ENDBRANCH  10  14
BRANCH   1  23
ATOM     20  O   UNL     1      34.099 -24.064 -16.315  0.00  0.00    -0.326 OA
ATOM     21  C   UNL     1      36.105 -22.833 -15.917  0.00  0.00    +0.187 C 
ATOM     22  C   UNL     1      35.117 -22.597 -14.790  0.00  0.00    +0.178 C 
ATOM     23  C   UNL     1      35.234 -23.482 -16.986  0.00  0.00    +0.225 C 
ATOM     24  C   UNL     1      34.210 -23.816 -14.894  0.00  0.00    +0.223 C 
BRANCH  24  28
ATOM     25  O   UNL     1      31.818 -23.470 -15.248  0.00  0.00    -0.421 OA
ATOM     26  N   UNL     1      32.392 -23.762 -13.106  0.00  0.00    -0.109 NA
ATOM     27  N   UNL     1      31.022 -23.578 -13.160  0.00  0.00    -0.112 NA
ATOM     28  C   UNL     1      32.805 -23.690 -14.344  0.00  0.00    +0.255 A 
ATOM     29  C   UNL     1      30.732 -23.411 -14.429  0.00  0.00    +0.225 A 
BRANCH  29  30
ATOM     30  C   UNL     1      29.431 -23.180 -15.068  0.00  0.00    +0.070 C 
ATOM     31  C   UNL     1      28.566 -24.490 -15.168  0.00  0.00    +0.009 C 
ATOM     32  C   UNL     1      29.567 -22.622 -16.533  0.00  0.00    +0.009 C 
ATOM     33  C   UNL     1      28.482 -22.145 -14.347  0.00  0.00    +0.009 C 
ENDBRANCH  29  30
ENDBRANCH  24  28
BRANCH  21  34
ATOM     34  O   UNL     1      37.096 -23.781 -15.524  0.00  0.00    -0.378 OA
ATOM     35  H   UNL     1      36.748 -24.680 -15.642  0.00  0.00    +0.211 HD
ENDBRANCH  21  34
BRANCH  22  36
ATOM     36  O   UNL     1      35.746 -22.509 -13.527  0.00  0.00    -0.379 OA
ATOM     37  H   UNL     1      35.607 -21.622 -13.158  0.00  0.00    +0.211 HD
ENDBRANCH  22  36
ENDBRANCH   1  23
TORSDOF 6
ENDMDL
MODEL 7
REMARK VINA RESULT:      -9.6      3.384      6.157
REMARK  Name = 9810927
REMARK  6 active torsions:
REMARK  status: ('A' for Active; 'I' for Inactive)
REMARK    1  A    between atoms: N_1  and  C_13
REMARK    2  A    between atoms: C_11  and  O_24
REMARK    3  A    between atoms: C_12  and  O_26
REMARK    4  A    between atoms: C_14  and  C_18
REMARK    5  A    between atoms: C_19  and  C_20
REMARK    6  A    between atoms: N_28  and  C_32
REMARK                            x       y       z     vdW  Elec       q    Type
REMARK                         _______ _______ _______ _____ _____    ______ ____
ROOT
ATOM      1  N   UNL     1      36.118 -23.290 -15.186  0.00  0.00    -0.247 N 
ATOM      2  N   UNL     1      34.709 -23.095 -16.904  0.00  0.00    -0.242 NA
ATOM      3  N   UNL     1      37.770 -21.623 -15.814  0.00  0.00    -0.228 NA
ATOM      4  N   UNL     1      37.183 -20.541 -17.921  0.00  0.00    -0.228 NA
ATOM      5  C   UNL     1      36.641 -22.323 -15.999  0.00  0.00    +0.152 C 
ATOM      6  C   UNL     1      34.958 -23.723 -15.774  0.00  0.00    +0.223 C 
ATOM      7  C   UNL     1      35.751 -22.216 -17.056  0.00  0.00    +0.140 C 
ATOM      8  C   UNL     1      36.056 -21.283 -18.042  0.00  0.00    +0.150 C 
ATOM      9  C   UNL     1      37.959 -20.754 -16.831  0.00  0.00    +0.253 C 
ATOM     10  N   UNL     1      35.210 -21.108 -19.151  0.00  0.00    -0.295 N 
ATOM     11  H   UNL     1      34.419 -21.695 -19.140  0.00  0.00    +0.154 HD
ENDROOT
BRANCH  10  14
ATOM     12 CL   UNL     1      35.459 -17.540 -23.868  0.00  0.00    -0.082 Cl
ATOM     13  F   UNL     1      32.923 -20.458 -20.598  0.00  0.00    -0.203 F 
ATOM     14  C   UNL     1      35.267 -20.257 -20.275  0.00  0.00    +0.077 C 
ATOM     15  C   UNL     1      34.104 -19.951 -20.980  0.00  0.00    +0.154 C 
ATOM     16  C   UNL     1      36.490 -19.725 -20.681  0.00  0.00    +0.018 C 
ATOM     17  C   UNL     1      34.163 -19.110 -22.091  0.00  0.00    +0.042 C 
ATOM     18  C   UNL     1      36.550 -18.885 -21.793  0.00  0.00    +0.013 C 
ATOM     19  C   UNL     1      35.387 -18.577 -22.497  0.00  0.00    +0.060 C 
ENDBRANCH  10  14
BRANCH   1  23
ATOM     20  O   UNL     1      38.086 -24.063 -14.095  0.00  0.00    -0.326 OA
ATOM     21  C   UNL     1      36.026 -25.057 -13.413  0.00  0.00    +0.187 C 
ATOM     22  C   UNL     1      36.994 -26.130 -13.873  0.00  0.00    +0.178 C 
ATOM     23  C   UNL     1      36.683 -23.780 -13.926  0.00  0.00    +0.225 C 
ATOM     24  C   UNL     1      38.342 -25.437 -13.721  0.00  0.00    +0.223 C 
BRANCH  24  28
ATOM     25  O   UNL     1      39.517 -27.269 -14.830  0.00  0.00    -0.421 OA
ATOM     26  N   UNL     1      40.466 -25.265 -15.122  0.00  0.00    -0.109 NA
ATOM     27  N   UNL     1      41.228 -26.201 -15.796  0.00  0.00    -0.112 NA
ATOM     28  C   UNL     1      39.485 -25.936 -14.578  0.00  0.00    +0.255 A 
ATOM     29  C   UNL     1      40.637 -27.355 -15.598  0.00  0.00    +0.225 A 
BRANCH  29  30
ATOM     30  C   UNL     1      41.008 -28.692 -16.082  0.00  0.00    +0.070 C 
ATOM     31  C   UNL     1      39.930 -29.302 -17.051  0.00  0.00    +0.009 C 
ATOM     32  C   UNL     1      41.195 -29.727 -14.913  0.00  0.00    +0.009 C 
ATOM     33  C   UNL     1      42.356 -28.781 -16.897  0.00  0.00    +0.009 C 
ENDBRANCH  29  30
ENDBRANCH  24  28
BRANCH  21  34
ATOM     34  O   UNL     1      35.991 -24.989 -11.989  0.00  0.00    -0.378 OA
ATOM     35  H   UNL     1      36.379 -24.149 -11.695  0.00  0.00    +0.211 HD
ENDBRANCH  21  34
BRANCH  22  36
ATOM     36  O   UNL     1      36.910 -27.305 -13.093  0.00  0.00    -0.379 OA
ATOM     37  H   UNL     1      36.935 -27.071 -12.151  0.00  0.00    +0.211 HD
ENDBRANCH  22  36
ENDBRANCH   1  23
TORSDOF 6
ENDMDL
MODEL 8
REMARK VINA RESULT:      -9.3     12.165     16.658
REMARK  Name = 9810927
REMARK  6 active torsions:
REMARK  status: ('A' for Active; 'I' for Inactive)
REMARK    1  A    between atoms: N_1  and  C_13
REMARK    2  A    between atoms: C_11  and  O_24
REMARK    3  A    between atoms: C_12  and  O_26
REMARK    4  A    between atoms: C_14  and  C_18
REMARK    5  A    between atoms: C_19  and  C_20
REMARK    6  A    between atoms: N_28  and  C_32
REMARK                            x       y       z     vdW  Elec       q    Type
REMARK                         _______ _______ _______ _____ _____    ______ ____
ROOT
ATOM      1  N   UNL     1      31.617  -8.649 -22.330  0.00  0.00    -0.247 N 
ATOM      2  N   UNL     1      31.796 -10.509 -21.112  0.00  0.00    -0.242 NA
ATOM      3  N   UNL     1      33.003  -9.263 -24.229  0.00  0.00    -0.228 NA
ATOM      4  N   UNL     1      33.917 -11.511 -23.972  0.00  0.00    -0.228 NA
ATOM      5  C   UNL     1      32.426  -9.492 -23.040  0.00  0.00    +0.152 C 
ATOM      6  C   UNL     1      31.266  -9.305 -21.179  0.00  0.00    +0.223 C 
ATOM      7  C   UNL     1      32.522 -10.639 -22.268  0.00  0.00    +0.140 C 
ATOM      8  C   UNL     1      33.303 -11.674 -22.774  0.00  0.00    +0.150 C 
ATOM      9  C   UNL     1      33.731 -10.333 -24.615  0.00  0.00    +0.253 C 
ATOM     10  N   UNL     1      33.456 -12.874 -22.059  0.00  0.00    -0.295 N 
ATOM     11  H   UNL     1      32.968 -12.889 -21.203  0.00  0.00    +0.154 HD
ENDROOT
BRANCH  10  14
ATOM     12 CL   UNL     1      36.450 -17.858 -23.173  0.00  0.00    -0.082 Cl
ATOM     13  F   UNL     1      34.341 -14.524 -19.999  0.00  0.00    -0.203 F 
ATOM     14  C   UNL     1      34.170 -14.063 -22.322  0.00  0.00    +0.077 C 
ATOM     15  C   UNL     1      34.600 -14.868 -21.268  0.00  0.00    +0.154 C 
ATOM     16  C   UNL     1      34.445 -14.429 -23.639  0.00  0.00    +0.018 C 
ATOM     17  C   UNL     1      35.305 -16.042 -21.531  0.00  0.00    +0.042 C 
ATOM     18  C   UNL     1      35.151 -15.603 -23.902  0.00  0.00    +0.013 C 
ATOM     19  C   UNL     1      35.580 -16.410 -22.849  0.00  0.00    +0.060 C 
ENDBRANCH  10  14
BRANCH   1  23
ATOM     20  O   UNL     1      31.931  -6.875 -23.884  0.00  0.00    -0.326 OA
ATOM     21  C   UNL     1      31.437  -6.250 -21.633  0.00  0.00    +0.187 C 
ATOM     22  C   UNL     1      32.739  -5.610 -22.078  0.00  0.00    +0.178 C 
ATOM     23  C   UNL     1      31.200  -7.298 -22.715  0.00  0.00    +0.225 C 
ATOM     24  C   UNL     1      32.607  -5.630 -23.595  0.00  0.00    +0.223 C 
BRANCH  24  28
ATOM     25  O   UNL     1      33.898  -4.798 -25.496  0.00  0.00    -0.421 OA
ATOM     26  N   UNL     1      34.998  -6.266 -24.217  0.00  0.00    -0.109 NA
ATOM     27  N   UNL     1      35.838  -5.883 -25.246  0.00  0.00    -0.112 NA
ATOM     28  C   UNL     1      33.885  -5.608 -24.408  0.00  0.00    +0.255 A 
ATOM     29  C   UNL     1      35.154  -5.026 -25.967  0.00  0.00    +0.225 A 
BRANCH  29  30
ATOM     30  C   UNL     1      35.550  -4.296 -27.178  0.00  0.00    +0.070 C 
ATOM     31  C   UNL     1      34.343  -4.048 -28.155  0.00  0.00    +0.009 C 
ATOM     32  C   UNL     1      36.649  -5.055 -28.009  0.00  0.00    +0.009 C 
ATOM     33  C   UNL     1      36.162  -2.859 -26.949  0.00  0.00    +0.009 C 
ENDBRANCH  29  30
ENDBRANCH  24  28
BRANCH  21  34
ATOM     34  O   UNL     1      30.368  -5.308 -21.695  0.00  0.00    -0.378 OA
ATOM     35  H   UNL     1      30.732  -4.408 -21.729  0.00  0.00    +0.211 HD
ENDBRANCH  21  34
BRANCH  22  36
ATOM     36  O   UNL     1      32.897  -4.299 -21.575  0.00  0.00    -0.379 OA
ATOM     37  H   UNL     1      33.735  -3.928 -21.897  0.00  0.00    +0.211 HD
ENDBRANCH  22  36
ENDBRANCH   1  23
TORSDOF 6
ENDMDL
MODEL 9
REMARK VINA RESULT:      -8.8      6.188      8.910
REMARK  Name = 9810927
REMARK  6 active torsions:
REMARK  status: ('A' for Active; 'I' for Inactive)
REMARK    1  A    between atoms: N_1  and  C_13
REMARK    2  A    between atoms: C_11  and  O_24
REMARK    3  A    between atoms: C_12  and  O_26
REMARK    4  A    between atoms: C_14  and  C_18
REMARK    5  A    between atoms: C_19  and  C_20
REMARK    6  A    between atoms: N_28  and  C_32
REMARK                            x       y       z     vdW  Elec       q    Type
REMARK                         _______ _______ _______ _____ _____    ______ ____
ROOT
ATOM      1  N   UNL     1      35.149 -16.697 -23.449  0.00  0.00    -0.247 N 
ATOM      2  N   UNL     1      34.002 -14.956 -24.245  0.00  0.00    -0.242 NA
ATOM      3  N   UNL     1      35.339 -16.036 -21.119  0.00  0.00    -0.228 NA
ATOM      4  N   UNL     1      34.251 -13.889 -20.713  0.00  0.00    -0.228 NA
ATOM      5  C   UNL     1      34.941 -15.860 -22.388  0.00  0.00    +0.152 C 
ATOM      6  C   UNL     1      34.567 -16.109 -24.542  0.00  0.00    +0.223 C 
ATOM      7  C   UNL     1      34.228 -14.789 -22.903  0.00  0.00    +0.140 C 
ATOM      8  C   UNL     1      33.881 -13.778 -22.012  0.00  0.00    +0.150 C 
ATOM      9  C   UNL     1      34.947 -14.995 -20.353  0.00  0.00    +0.253 C 
ATOM     10  N   UNL     1      33.157 -12.654 -22.447  0.00  0.00    -0.295 N 
ATOM     11  H   UNL     1      32.938 -12.674 -23.407  0.00  0.00    +0.154 HD
ENDROOT
BRANCH  10  14
ATOM     12 CL   UNL     1      31.159  -7.835 -19.649  0.00  0.00    -0.082 Cl
ATOM     13  F   UNL     1      33.176 -10.156 -23.672  0.00  0.00    -0.203 F 
ATOM     14  C   UNL     1      32.681 -11.505 -21.782  0.00  0.00    +0.077 C 
ATOM     15  C   UNL     1      32.704 -10.266 -22.423  0.00  0.00    +0.154 C 
ATOM     16  C   UNL     1      32.189 -11.609 -20.482  0.00  0.00    +0.018 C 
ATOM     17  C   UNL     1      32.233  -9.132 -21.763  0.00  0.00    +0.042 C 
ATOM     18  C   UNL     1      31.718 -10.474 -19.821  0.00  0.00    +0.013 C 
ATOM     19  C   UNL     1      31.740  -9.236 -20.462  0.00  0.00    +0.060 C 
ENDBRANCH  10  14
BRANCH   1  23
ATOM     20  O   UNL     1      34.994 -19.011 -22.922  0.00  0.00    -0.326 OA
ATOM     21  C   UNL     1      37.115 -17.974 -22.570  0.00  0.00    +0.187 C 
ATOM     22  C   UNL     1      36.627 -18.614 -21.283  0.00  0.00    +0.178 C 
ATOM     23  C   UNL     1      35.859 -17.978 -23.434  0.00  0.00    +0.225 C 
ATOM     24  C   UNL     1      35.633 -19.649 -21.792  0.00  0.00    +0.223 C 
BRANCH  24  28
ATOM     25  O   UNL     1      34.852 -21.104 -19.992  0.00  0.00    -0.421 OA
ATOM     26  N   UNL     1      33.319 -19.646 -20.720  0.00  0.00    -0.109 NA
ATOM     27  N   UNL     1      32.747 -20.400 -19.711  0.00  0.00    -0.112 NA
ATOM     28  C   UNL     1      34.541 -20.094 -20.843  0.00  0.00    +0.255 A 
ATOM     29  C   UNL     1      33.678 -21.237 -19.317  0.00  0.00    +0.225 A 
BRANCH  29  30
ATOM     30  C   UNL     1      33.627 -22.267 -18.272  0.00  0.00    +0.070 C 
ATOM     31  C   UNL     1      34.808 -22.140 -17.241  0.00  0.00    +0.009 C 
ATOM     32  C   UNL     1      33.701 -23.726 -18.856  0.00  0.00    +0.009 C 
ATOM     33  C   UNL     1      32.329 -22.276 -17.373  0.00  0.00    +0.009 C 
ENDBRANCH  29  30
ENDBRANCH  24  28
BRANCH  21  34
ATOM     34  O   UNL     1      38.086 -18.803 -23.205  0.00  0.00    -0.378 OA
ATOM     35  H   UNL     1      38.886 -18.283 -23.386  0.00  0.00    +0.211 HD
ENDBRANCH  21  34
BRANCH  22  36
ATOM     36  O   UNL     1      37.676 -19.204 -20.541  0.00  0.00    -0.379 OA
ATOM     37  H   UNL     1      37.304 -19.694 -19.789  0.00  0.00    +0.211 HD
ENDBRANCH  22  36
ENDBRANCH   1  23
TORSDOF 6
ENDMDL
