MODEL 1
REMARK VINA RESULT:     -11.8      0.000      0.000
REMARK  Name = 12136798
REMARK  7 active torsions:
REMARK  status: ('A' for Active; 'I' for Inactive)
REMARK    1  A    between atoms: C_1  and  C_21
REMARK    2  A    between atoms: C_2  and  C_9
REMARK    3  A    between atoms: N_8  and  C_12
REMARK    4  A    between atoms: C_13  and  N_18
REMARK    5  A    between atoms: C_21  and  N_23
REMARK    6  A    between atoms: C_24  and  C_26
REMARK    7  A    between atoms: C_27  and  C_29
REMARK                            x       y       z     vdW  Elec       q    Type
REMARK                         _______ _______ _______ _____ _____    ______ ____
ROOT
ATOM      1  C   UNL     1      35.660 -19.729 -20.638  0.00  0.00    -0.003 C 
ATOM      2  C   UNL     1      34.483 -21.694 -19.063  0.00  0.00    +0.054 C 
ATOM      3  C   UNL     1      36.461 -20.567 -19.871  0.00  0.00    -0.002 C 
ATOM      4  C   UNL     1      34.277 -19.863 -20.626  0.00  0.00    -0.002 C 
ATOM      5  C   UNL     1      35.870 -21.554 -19.081  0.00  0.00    +0.004 C 
ATOM      6  C   UNL     1      33.686 -20.849 -19.835  0.00  0.00    +0.004 C 
ENDROOT
BRANCH   2   9
ATOM      7  O   UNL     1      33.845 -23.892 -18.648  0.00  0.00    -0.270 OA
ATOM      8  N   UNL     1      33.359 -22.290 -17.004  0.00  0.00    -0.279 N 
ATOM      9  C   UNL     1      33.866 -22.721 -18.238  0.00  0.00    +0.250 C 
ATOM     10  H   UNL     1      33.449 -21.328 -16.817  0.00  0.00    +0.155 HD
BRANCH   8  12
ATOM     11  F   UNL     1      30.984 -25.304 -13.026  0.00  0.00    -0.204 F 
ATOM     12  C   UNL     1      32.733 -23.058 -15.992  0.00  0.00    +0.064 C 
ATOM     13  C   UNL     1      31.351 -23.126 -15.918  0.00  0.00    +0.057 C 
ATOM     14  C   UNL     1      33.537 -23.731 -15.086  0.00  0.00    +0.018 C 
ATOM     15  C   UNL     1      30.758 -23.888 -14.912  0.00  0.00    +0.045 C 
ATOM     16  C   UNL     1      32.944 -24.493 -14.080  0.00  0.00    +0.031 C 
ATOM     17  C   UNL     1      31.554 -24.572 -13.992  0.00  0.00    +0.141 C 
BRANCH  13  18
ATOM     18  N   UNL     1      30.525 -22.442 -16.837  0.00  0.00    -0.356 N 
ATOM     19  H   UNL     1      29.938 -21.716 -16.525  0.00  0.00    +0.142 HD
ATOM     20  H   UNL     1      30.537 -22.691 -17.790  0.00  0.00    +0.142 HD
ENDBRANCH  13  18
ENDBRANCH   8  12
ENDBRANCH   2   9
BRANCH   1  21
ATOM     21  C   UNL     1      36.295 -18.668 -21.490  0.00  0.00    +0.117 C 
BRANCH  21  23
ATOM     22  O   UNL     1      35.682 -16.702 -23.527  0.00  0.00    -0.270 OA
ATOM     23  N   UNL     1      35.670 -17.378 -21.303  0.00  0.00    -0.297 N 
ATOM     24  C   UNL     1      35.416 -16.503 -22.346  0.00  0.00    +0.246 C 
ATOM     25  H   UNL     1      35.412 -17.109 -20.391  0.00  0.00    +0.150 HD
BRANCH  24  26
ATOM     26  C   UNL     1      34.766 -15.249 -21.871  0.00  0.00    +0.058 C 
ATOM     27  C   UNL     1      34.187 -14.421 -22.753  0.00  0.00    +0.006 C 
BRANCH  27  29
ATOM     28  N   UNL     1      33.062 -10.862 -22.910  0.00  0.00    -0.242 NA
ATOM     29  C   UNL     1      33.507 -13.162 -22.395  0.00  0.00    +0.019 C 
ATOM     30  C   UNL     1      32.714 -13.097 -21.268  0.00  0.00    +0.003 C 
ATOM     31  C   UNL     1      33.657 -12.046 -23.181  0.00  0.00    +0.099 C 
ATOM     32  C   UNL     1      32.085 -11.897 -20.956  0.00  0.00    +0.021 C 
ATOM     33  C   UNL     1      32.289 -10.819 -21.801  0.00  0.00    +0.099 C 
ENDBRANCH  27  29
ENDBRANCH  24  26
ENDBRANCH  21  23
ENDBRANCH   1  21
TORSDOF 7
ENDMDL
MODEL 2
REMARK VINA RESULT:     -11.7      0.758      1.355
REMARK  Name = 12136798
REMARK  7 active torsions:
REMARK  status: ('A' for Active; 'I' for Inactive)
REMARK    1  A    between atoms: C_1  and  C_21
REMARK    2  A    between atoms: C_2  and  C_9
REMARK    3  A    between atoms: N_8  and  C_12
REMARK    4  A    between atoms: C_13  and  N_18
REMARK    5  A    between atoms: C_21  and  N_23
REMARK    6  A    between atoms: C_24  and  C_26
REMARK    7  A    between atoms: C_27  and  C_29
REMARK                            x       y       z     vdW  Elec       q    Type
REMARK                         _______ _______ _______ _____ _____    ______ ____
ROOT
ATOM      1  C   UNL     1      35.658 -19.782 -20.631  0.00  0.00    -0.003 C 
ATOM      2  C   UNL     1      34.293 -21.668 -19.111  0.00  0.00    +0.054 C 
ATOM      3  C   UNL     1      36.372 -20.697 -19.867  0.00  0.00    -0.002 C 
ATOM      4  C   UNL     1      34.268 -19.799 -20.642  0.00  0.00    -0.002 C 
ATOM      5  C   UNL     1      35.688 -21.644 -19.105  0.00  0.00    +0.004 C 
ATOM      6  C   UNL     1      33.583 -20.745 -19.880  0.00  0.00    +0.004 C 
ENDROOT
BRANCH   2   9
ATOM      7  O   UNL     1      33.746 -23.860 -18.557  0.00  0.00    -0.270 OA
ATOM      8  N   UNL     1      32.761 -22.142 -17.299  0.00  0.00    -0.279 N 
ATOM      9  C   UNL     1      33.579 -22.654 -18.315  0.00  0.00    +0.250 C 
ATOM     10  H   UNL     1      32.729 -21.160 -17.228  0.00  0.00    +0.155 HD
BRANCH   8  12
ATOM     11  F   UNL     1      29.621 -24.883 -13.669  0.00  0.00    -0.204 F 
ATOM     12  C   UNL     1      31.972 -22.851 -16.360  0.00  0.00    +0.064 C 
ATOM     13  C   UNL     1      32.575 -23.629 -15.385  0.00  0.00    +0.057 C 
ATOM     14  C   UNL     1      30.593 -22.745 -16.447  0.00  0.00    +0.018 C 
ATOM     15  C   UNL     1      31.777 -24.319 -14.472  0.00  0.00    +0.045 C 
ATOM     16  C   UNL     1      29.796 -23.434 -15.534  0.00  0.00    +0.031 C 
ATOM     17  C   UNL     1      30.388 -24.222 -14.546  0.00  0.00    +0.141 C 
BRANCH  13  18
ATOM     18  N   UNL     1      33.980 -23.742 -15.291  0.00  0.00    -0.356 N 
ATOM     19  H   UNL     1      34.392 -24.620 -15.122  0.00  0.00    +0.142 HD
ATOM     20  H   UNL     1      34.547 -22.944 -15.394  0.00  0.00    +0.142 HD
ENDBRANCH  13  18
ENDBRANCH   8  12
ENDBRANCH   2   9
BRANCH   1  21
ATOM     21  C   UNL     1      36.393 -18.763 -21.452  0.00  0.00    +0.117 C 
BRANCH  21  23
ATOM     22  O   UNL     1      35.712 -17.021 -23.664  0.00  0.00    -0.270 OA
ATOM     23  N   UNL     1      35.771 -17.459 -21.383  0.00  0.00    -0.297 N 
ATOM     24  C   UNL     1      35.483 -16.699 -22.503  0.00  0.00    +0.246 C 
ATOM     25  H   UNL     1      35.542 -17.096 -20.496  0.00  0.00    +0.150 HD
BRANCH  24  26
ATOM     26  C   UNL     1      34.846 -15.401 -22.143  0.00  0.00    +0.058 C 
ATOM     27  C   UNL     1      34.460 -14.554 -23.108  0.00  0.00    +0.006 C 
BRANCH  27  29
ATOM     28  N   UNL     1      33.563 -10.948 -23.487  0.00  0.00    -0.242 NA
ATOM     29  C   UNL     1      33.811 -13.252 -22.868  0.00  0.00    +0.019 C 
ATOM     30  C   UNL     1      32.888 -13.113 -21.854  0.00  0.00    +0.003 C 
ATOM     31  C   UNL     1      34.122 -12.169 -23.653  0.00  0.00    +0.099 C 
ATOM     32  C   UNL     1      32.292 -11.873 -21.650  0.00  0.00    +0.021 C 
ATOM     33  C   UNL     1      32.661 -10.832 -22.487  0.00  0.00    +0.099 C 
ENDBRANCH  27  29
ENDBRANCH  24  26
ENDBRANCH  21  23
ENDBRANCH   1  21
TORSDOF 7
ENDMDL
MODEL 3
REMARK VINA RESULT:     -11.5      5.187     12.183
REMARK  Name = 12136798
REMARK  7 active torsions:
REMARK  status: ('A' for Active; 'I' for Inactive)
REMARK    1  A    between atoms: C_1  and  C_21
REMARK    2  A    between atoms: C_2  and  C_9
REMARK    3  A    between atoms: N_8  and  C_12
REMARK    4  A    between atoms: C_13  and  N_18
REMARK    5  A    between atoms: C_21  and  N_23
REMARK    6  A    between atoms: C_24  and  C_26
REMARK    7  A    between atoms: C_27  and  C_29
REMARK                            x       y       z     vdW  Elec       q    Type
REMARK                         _______ _______ _______ _____ _____    ______ ____
ROOT
ATOM      1  C   UNL     1      34.521 -14.028 -23.373  0.00  0.00    -0.003 C 
ATOM      2  C   UNL     1      33.058 -11.860 -22.432  0.00  0.00    +0.054 C 
ATOM      3  C   UNL     1      33.857 -14.122 -22.156  0.00  0.00    -0.002 C 
ATOM      4  C   UNL     1      34.463 -12.861 -24.124  0.00  0.00    -0.002 C 
ATOM      5  C   UNL     1      33.122 -13.035 -21.684  0.00  0.00    +0.004 C 
ATOM      6  C   UNL     1      33.729 -11.772 -23.652  0.00  0.00    +0.004 C 
ENDROOT
BRANCH   2   9
ATOM      7  O   UNL     1      31.296 -10.931 -21.231  0.00  0.00    -0.270 OA
ATOM      8  N   UNL     1      32.780  -9.459 -22.297  0.00  0.00    -0.279 N 
ATOM      9  C   UNL     1      32.294 -10.724 -21.939  0.00  0.00    +0.250 C 
ATOM     10  H   UNL     1      33.584  -9.455 -22.865  0.00  0.00    +0.155 HD
BRANCH   8  12
ATOM     11  F   UNL     1      30.748  -4.483 -21.011  0.00  0.00    -0.204 F 
ATOM     12  C   UNL     1      32.266  -8.186 -21.949  0.00  0.00    +0.064 C 
ATOM     13  C   UNL     1      32.392  -7.709 -20.655  0.00  0.00    +0.057 C 
ATOM     14  C   UNL     1      31.636  -7.441 -22.934  0.00  0.00    +0.018 C 
ATOM     15  C   UNL     1      31.878  -6.452 -20.336  0.00  0.00    +0.045 C 
ATOM     16  C   UNL     1      31.122  -6.184 -22.615  0.00  0.00    +0.031 C 
ATOM     17  C   UNL     1      31.242  -5.690 -21.316  0.00  0.00    +0.141 C 
BRANCH  13  18
ATOM     18  N   UNL     1      33.032  -8.463 -19.647  0.00  0.00    -0.356 N 
ATOM     19  H   UNL     1      33.488  -8.005 -18.904  0.00  0.00    +0.142 HD
ATOM     20  H   UNL     1      33.022  -9.447 -19.685  0.00  0.00    +0.142 HD
ENDBRANCH  13  18
ENDBRANCH   8  12
ENDBRANCH   2   9
BRANCH   1  21
ATOM     21  C   UNL     1      35.312 -15.199 -23.882  0.00  0.00    +0.117 C 
BRANCH  21  23
ATOM     22  O   UNL     1      34.941 -17.804 -25.093  0.00  0.00    -0.270 OA
ATOM     23  N   UNL     1      34.944 -16.430 -23.219  0.00  0.00    -0.297 N 
ATOM     24  C   UNL     1      34.791 -17.632 -23.888  0.00  0.00    +0.246 C 
ATOM     25  H   UNL     1      34.796 -16.412 -22.245  0.00  0.00    +0.150 HD
BRANCH  24  26
ATOM     26  C   UNL     1      34.408 -18.737 -22.963  0.00  0.00    +0.058 C 
ATOM     27  C   UNL     1      34.977 -18.821 -21.751  0.00  0.00    +0.006 C 
BRANCH  27  29
ATOM     28  N   UNL     1      33.011 -21.085 -19.524  0.00  0.00    -0.242 NA
ATOM     29  C   UNL     1      34.667 -19.861 -20.754  0.00  0.00    +0.019 C 
ATOM     30  C   UNL     1      35.686 -20.560 -20.140  0.00  0.00    +0.003 C 
ATOM     31  C   UNL     1      33.363 -20.144 -20.430  0.00  0.00    +0.099 C 
ATOM     32  C   UNL     1      35.364 -21.536 -19.203  0.00  0.00    +0.021 C 
ATOM     33  C   UNL     1      34.024 -21.758 -18.934  0.00  0.00    +0.099 C 
ENDBRANCH  27  29
ENDBRANCH  24  26
ENDBRANCH  21  23
ENDBRANCH   1  21
TORSDOF 7
ENDMDL
MODEL 4
REMARK VINA RESULT:     -11.4      4.974     12.281
REMARK  Name = 12136798
REMARK  7 active torsions:
REMARK  status: ('A' for Active; 'I' for Inactive)
REMARK    1  A    between atoms: C_1  and  C_21
REMARK    2  A    between atoms: C_2  and  C_9
REMARK    3  A    between atoms: N_8  and  C_12
REMARK    4  A    between atoms: C_13  and  N_18
REMARK    5  A    between atoms: C_21  and  N_23
REMARK    6  A    between atoms: C_24  and  C_26
REMARK    7  A    between atoms: C_27  and  C_29
REMARK                            x       y       z     vdW  Elec       q    Type
REMARK                         _______ _______ _______ _____ _____    ______ ____
ROOT
ATOM      1  C   UNL     1      34.558 -15.945 -24.151  0.00  0.00    -0.003 C 
ATOM      2  C   UNL     1      33.913 -13.325 -23.483  0.00  0.00    +0.054 C 
ATOM      3  C   UNL     1      33.831 -15.166 -25.044  0.00  0.00    -0.002 C 
ATOM      4  C   UNL     1      34.965 -15.428 -22.927  0.00  0.00    -0.002 C 
ATOM      5  C   UNL     1      33.508 -13.851 -24.709  0.00  0.00    +0.004 C 
ATOM      6  C   UNL     1      34.642 -14.113 -22.592  0.00  0.00    +0.004 C 
ENDROOT
BRANCH   2   9
ATOM      7  O   UNL     1      32.781 -11.749 -22.199  0.00  0.00    -0.270 OA
ATOM      8  N   UNL     1      34.210 -10.957 -23.884  0.00  0.00    -0.279 N 
ATOM      9  C   UNL     1      33.574 -11.954 -23.132  0.00  0.00    +0.250 C 
ATOM     10  H   UNL     1      34.814 -11.275 -24.593  0.00  0.00    +0.155 HD
BRANCH   8  12
ATOM     11  F   UNL     1      33.698  -5.478 -23.359  0.00  0.00    -0.204 F 
ATOM     12  C   UNL     1      34.097  -9.550 -23.757  0.00  0.00    +0.064 C 
ATOM     13  C   UNL     1      35.149  -8.727 -24.120  0.00  0.00    +0.057 C 
ATOM     14  C   UNL     1      32.912  -9.029 -23.260  0.00  0.00    +0.018 C 
ATOM     15  C   UNL     1      35.014  -7.345 -23.986  0.00  0.00    +0.045 C 
ATOM     16  C   UNL     1      32.777  -7.648 -23.126  0.00  0.00    +0.031 C 
ATOM     17  C   UNL     1      33.828  -6.805 -23.488  0.00  0.00    +0.141 C 
BRANCH  13  18
ATOM     18  N   UNL     1      36.359  -9.252 -24.627  0.00  0.00    -0.356 N 
ATOM     19  H   UNL     1      37.202  -9.100 -24.141  0.00  0.00    +0.142 HD
ATOM     20  H   UNL     1      36.360  -9.769 -25.465  0.00  0.00    +0.142 HD
ENDBRANCH  13  18
ENDBRANCH   8  12
ENDBRANCH   2   9
BRANCH   1  21
ATOM     21  C   UNL     1      34.907 -17.360 -24.511  0.00  0.00    +0.117 C 
BRANCH  21  23
ATOM     22  O   UNL     1      36.735 -18.579 -22.623  0.00  0.00    -0.270 OA
ATOM     23  N   UNL     1      34.582 -18.285 -23.449  0.00  0.00    -0.297 N 
ATOM     24  C   UNL     1      35.532 -18.816 -22.593  0.00  0.00    +0.246 C 
ATOM     25  H   UNL     1      33.641 -18.550 -23.329  0.00  0.00    +0.150 HD
BRANCH  24  26
ATOM     26  C   UNL     1      34.922 -19.741 -21.595  0.00  0.00    +0.058 C 
ATOM     27  C   UNL     1      35.621 -20.111 -20.512  0.00  0.00    +0.006 C 
BRANCH  27  29
ATOM     28  N   UNL     1      35.584 -22.404 -17.564  0.00  0.00    -0.242 NA
ATOM     29  C   UNL     1      35.115 -21.009 -19.458  0.00  0.00    +0.019 C 
ATOM     30  C   UNL     1      33.768 -21.288 -19.371  0.00  0.00    +0.003 C 
ATOM     31  C   UNL     1      35.982 -21.573 -18.554  0.00  0.00    +0.099 C 
ATOM     32  C   UNL     1      33.319 -22.139 -18.366  0.00  0.00    +0.021 C 
ATOM     33  C   UNL     1      34.259 -22.666 -17.496  0.00  0.00    +0.099 C 
ENDBRANCH  27  29
ENDBRANCH  24  26
ENDBRANCH  21  23
ENDBRANCH   1  21
TORSDOF 7
ENDMDL
MODEL 5
REMARK VINA RESULT:     -11.1      2.055      2.928
REMARK  Name = 12136798
REMARK  7 active torsions:
REMARK  status: ('A' for Active; 'I' for Inactive)
REMARK    1  A    between atoms: C_1  and  C_21
REMARK    2  A    between atoms: C_2  and  C_9
REMARK    3  A    between atoms: N_8  and  C_12
REMARK    4  A    between atoms: C_13  and  N_18
REMARK    5  A    between atoms: C_21  and  N_23
REMARK    6  A    between atoms: C_24  and  C_26
REMARK    7  A    between atoms: C_27  and  C_29
REMARK                            x       y       z     vdW  Elec       q    Type
REMARK                         _______ _______ _______ _____ _____    ______ ____
ROOT
ATOM      1  C   UNL     1      36.149 -18.885 -21.743  0.00  0.00    -0.003 C 
ATOM      2  C   UNL     1      35.513 -20.747 -19.781  0.00  0.00    +0.054 C 
ATOM      3  C   UNL     1      34.851 -19.374 -21.654  0.00  0.00    -0.002 C 
ATOM      4  C   UNL     1      37.132 -19.318 -20.863  0.00  0.00    -0.002 C 
ATOM      5  C   UNL     1      34.531 -20.308 -20.668  0.00  0.00    +0.004 C 
ATOM      6  C   UNL     1      36.814 -20.253 -19.877  0.00  0.00    +0.004 C 
ENDROOT
BRANCH   2   9
ATOM      7  O   UNL     1      34.299 -22.566 -18.986  0.00  0.00    -0.270 OA
ATOM      8  N   UNL     1      35.925 -21.641 -17.569  0.00  0.00    -0.279 N 
ATOM      9  C   UNL     1      35.181 -21.724 -18.754  0.00  0.00    +0.250 C 
ATOM     10  H   UNL     1      36.593 -20.918 -17.532  0.00  0.00    +0.155 HD
BRANCH   8  12
ATOM     11  F   UNL     1      35.528 -24.842 -13.081  0.00  0.00    -0.204 F 
ATOM     12  C   UNL     1      35.843 -22.462 -16.417  0.00  0.00    +0.064 C 
ATOM     13  C   UNL     1      36.995 -22.887 -15.777  0.00  0.00    +0.057 C 
ATOM     14  C   UNL     1      34.587 -22.823 -15.957  0.00  0.00    +0.018 C 
ATOM     15  C   UNL     1      36.888 -23.695 -14.644  0.00  0.00    +0.045 C 
ATOM     16  C   UNL     1      34.480 -23.630 -14.825  0.00  0.00    +0.031 C 
ATOM     17  C   UNL     1      35.631 -24.067 -14.169  0.00  0.00    +0.141 C 
BRANCH  13  18
ATOM     18  N   UNL     1      38.278 -22.523 -16.240  0.00  0.00    -0.356 N 
ATOM     19  H   UNL     1      38.680 -23.000 -17.002  0.00  0.00    +0.142 HD
ATOM     20  H   UNL     1      38.771 -21.791 -15.803  0.00  0.00    +0.142 HD
ENDBRANCH  13  18
ENDBRANCH   8  12
ENDBRANCH   2   9
BRANCH   1  21
ATOM     21  C   UNL     1      36.493 -17.879 -22.803  0.00  0.00    +0.117 C 
BRANCH  21  23
ATOM     22  O   UNL     1      35.300 -16.529 -25.072  0.00  0.00    -0.270 OA
ATOM     23  N   UNL     1      35.604 -16.739 -22.777  0.00  0.00    -0.297 N 
ATOM     24  C   UNL     1      35.082 -16.161 -23.923  0.00  0.00    +0.246 C 
ATOM     25  H   UNL     1      35.358 -16.356 -21.904  0.00  0.00    +0.150 HD
BRANCH  24  26
ATOM     26  C   UNL     1      34.198 -15.004 -23.605  0.00  0.00    +0.058 C 
ATOM     27  C   UNL     1      34.299 -14.390 -22.417  0.00  0.00    +0.006 C 
BRANCH  27  29
ATOM     28  N   UNL     1      32.621 -11.055 -22.513  0.00  0.00    -0.242 NA
ATOM     29  C   UNL     1      33.486 -13.233 -22.002  0.00  0.00    +0.019 C 
ATOM     30  C   UNL     1      32.853 -13.233 -20.777  0.00  0.00    +0.003 C 
ATOM     31  C   UNL     1      33.352 -12.147 -22.833  0.00  0.00    +0.099 C 
ATOM     32  C   UNL     1      32.092 -12.127 -20.412  0.00  0.00    +0.021 C 
ATOM     33  C   UNL     1      32.009 -11.074 -21.308  0.00  0.00    +0.099 C 
ENDBRANCH  27  29
ENDBRANCH  24  26
ENDBRANCH  21  23
ENDBRANCH   1  21
TORSDOF 7
ENDMDL
MODEL 6
REMARK VINA RESULT:     -10.9      4.044     10.939
REMARK  Name = 12136798
REMARK  7 active torsions:
REMARK  status: ('A' for Active; 'I' for Inactive)
REMARK    1  A    between atoms: C_1  and  C_21
REMARK    2  A    between atoms: C_2  and  C_9
REMARK    3  A    between atoms: N_8  and  C_12
REMARK    4  A    between atoms: C_13  and  N_18
REMARK    5  A    between atoms: C_21  and  N_23
REMARK    6  A    between atoms: C_24  and  C_26
REMARK    7  A    between atoms: C_27  and  C_29
REMARK                            x       y       z     vdW  Elec       q    Type
REMARK                         _______ _______ _______ _____ _____    ______ ____
ROOT
ATOM      1  C   UNL     1      35.885 -20.139 -20.327  0.00  0.00    -0.003 C 
ATOM      2  C   UNL     1      35.550 -18.132 -22.221  0.00  0.00    +0.054 C 
ATOM      3  C   UNL     1      34.663 -20.000 -20.972  0.00  0.00    -0.002 C 
ATOM      4  C   UNL     1      36.942 -19.284 -20.618  0.00  0.00    -0.002 C 
ATOM      5  C   UNL     1      34.494 -18.994 -21.924  0.00  0.00    +0.004 C 
ATOM      6  C   UNL     1      36.774 -18.278 -21.569  0.00  0.00    +0.004 C 
ENDROOT
BRANCH   2   9
ATOM      7  O   UNL     1      35.754 -17.281 -24.377  0.00  0.00    -0.270 OA
ATOM      8  N   UNL     1      34.752 -15.911 -22.757  0.00  0.00    -0.279 N 
ATOM      9  C   UNL     1      35.374 -17.081 -23.212  0.00  0.00    +0.250 C 
ATOM     10  H   UNL     1      34.506 -15.900 -21.803  0.00  0.00    +0.155 HD
BRANCH   8  12
ATOM     11  F   UNL     1      33.527 -11.307 -25.559  0.00  0.00    -0.204 F 
ATOM     12  C   UNL     1      34.429 -14.742 -23.489  0.00  0.00    +0.064 C 
ATOM     13  C   UNL     1      33.749 -14.834 -24.692  0.00  0.00    +0.057 C 
ATOM     14  C   UNL     1      34.813 -13.515 -22.970  0.00  0.00    +0.018 C 
ATOM     15  C   UNL     1      33.442 -13.669 -25.394  0.00  0.00    +0.045 C 
ATOM     16  C   UNL     1      34.506 -12.351 -23.672  0.00  0.00    +0.031 C 
ATOM     17  C   UNL     1      33.821 -12.427 -24.885  0.00  0.00    +0.141 C 
BRANCH  13  18
ATOM     18  N   UNL     1      33.355 -16.081 -25.227  0.00  0.00    -0.356 N 
ATOM     19  H   UNL     1      33.494 -16.905 -24.707  0.00  0.00    +0.142 HD
ATOM     20  H   UNL     1      32.940 -16.126 -26.119  0.00  0.00    +0.142 HD
ENDBRANCH  13  18
ENDBRANCH   8  12
ENDBRANCH   2   9
BRANCH   1  21
ATOM     21  C   UNL     1      36.067 -21.222 -19.304  0.00  0.00    +0.117 C 
BRANCH  21  23
ATOM     22  O   UNL     1      35.566 -22.712 -16.870  0.00  0.00    -0.270 OA
ATOM     23  N   UNL     1      34.803 -21.751 -18.844  0.00  0.00    -0.297 N 
ATOM     24  C   UNL     1      34.663 -22.454 -17.659  0.00  0.00    +0.246 C 
ATOM     25  H   UNL     1      34.003 -21.605 -19.400  0.00  0.00    +0.150 HD
BRANCH  24  26
ATOM     26  C   UNL     1      33.254 -22.882 -17.432  0.00  0.00    +0.058 C 
ATOM     27  C   UNL     1      32.744 -22.874 -16.192  0.00  0.00    +0.006 C 
BRANCH  27  29
ATOM     28  N   UNL     1      29.891 -24.745 -14.671  0.00  0.00    -0.242 NA
ATOM     29  C   UNL     1      31.363 -23.266 -15.853  0.00  0.00    +0.019 C 
ATOM     30  C   UNL     1      30.295 -22.562 -16.368  0.00  0.00    +0.003 C 
ATOM     31  C   UNL     1      31.131 -24.334 -15.022  0.00  0.00    +0.099 C 
ATOM     32  C   UNL     1      29.004 -22.954 -16.032  0.00  0.00    +0.021 C 
ATOM     33  C   UNL     1      28.858 -24.042 -15.187  0.00  0.00    +0.099 C 
ENDBRANCH  27  29
ENDBRANCH  24  26
ENDBRANCH  21  23
ENDBRANCH   1  21
TORSDOF 7
ENDMDL
MODEL 7
REMARK VINA RESULT:     -10.8      1.564      2.331
REMARK  Name = 12136798
REMARK  7 active torsions:
REMARK  status: ('A' for Active; 'I' for Inactive)
REMARK    1  A    between atoms: C_1  and  C_21
REMARK    2  A    between atoms: C_2  and  C_9
REMARK    3  A    between atoms: N_8  and  C_12
REMARK    4  A    between atoms: C_13  and  N_18
REMARK    5  A    between atoms: C_21  and  N_23
REMARK    6  A    between atoms: C_24  and  C_26
REMARK    7  A    between atoms: C_27  and  C_29
REMARK                            x       y       z     vdW  Elec       q    Type
REMARK                         _______ _______ _______ _____ _____    ______ ____
ROOT
ATOM      1  C   UNL     1      35.940 -20.167 -20.037  0.00  0.00    -0.003 C 
ATOM      2  C   UNL     1      34.330 -21.980 -18.678  0.00  0.00    +0.054 C 
ATOM      3  C   UNL     1      34.575 -20.201 -20.293  0.00  0.00    -0.002 C 
ATOM      4  C   UNL     1      36.509 -21.031 -19.109  0.00  0.00    -0.002 C 
ATOM      5  C   UNL     1      33.766 -21.110 -19.611  0.00  0.00    +0.004 C 
ATOM      6  C   UNL     1      35.701 -21.940 -18.426  0.00  0.00    +0.004 C 
ENDROOT
BRANCH   2   9
ATOM      7  O   UNL     1      33.651 -24.144 -18.162  0.00  0.00    -0.270 OA
ATOM      8  N   UNL     1      32.555 -22.374 -17.080  0.00  0.00    -0.279 N 
ATOM      9  C   UNL     1      33.487 -22.930 -17.967  0.00  0.00    +0.250 C 
ATOM     10  H   UNL     1      32.542 -21.391 -17.033  0.00  0.00    +0.155 HD
BRANCH   8  12
ATOM     11  F   UNL     1      28.879 -24.953 -13.857  0.00  0.00    -0.204 F 
ATOM     12  C   UNL     1      31.627 -23.043 -16.243  0.00  0.00    +0.064 C 
ATOM     13  C   UNL     1      32.072 -23.830 -15.194  0.00  0.00    +0.057 C 
ATOM     14  C   UNL     1      30.275 -22.887 -16.506  0.00  0.00    +0.018 C 
ATOM     15  C   UNL     1      31.139 -24.478 -14.384  0.00  0.00    +0.045 C 
ATOM     16  C   UNL     1      29.344 -23.535 -15.696  0.00  0.00    +0.031 C 
ATOM     17  C   UNL     1      29.775 -24.332 -14.635  0.00  0.00    +0.141 C 
BRANCH  13  18
ATOM     18  N   UNL     1      33.448 -23.993 -14.921  0.00  0.00    -0.356 N 
ATOM     19  H   UNL     1      33.767 -24.001 -13.990  0.00  0.00    +0.142 HD
ATOM     20  H   UNL     1      34.088 -24.100 -15.662  0.00  0.00    +0.142 HD
ENDBRANCH  13  18
ENDBRANCH   8  12
ENDBRANCH   2   9
BRANCH   1  21
ATOM     21  C   UNL     1      36.811 -19.189 -20.771  0.00  0.00    +0.117 C 
BRANCH  21  23
ATOM     22  O   UNL     1      36.056 -19.036 -23.564  0.00  0.00    -0.270 OA
ATOM     23  N   UNL     1      36.036 -18.151 -21.415  0.00  0.00    -0.297 N 
ATOM     24  C   UNL     1      35.725 -18.168 -22.764  0.00  0.00    +0.246 C 
ATOM     25  H   UNL     1      35.715 -17.398 -20.868  0.00  0.00    +0.150 HD
BRANCH  24  26
ATOM     26  C   UNL     1      34.919 -16.978 -23.161  0.00  0.00    +0.058 C 
ATOM     27  C   UNL     1      35.517 -15.788 -23.322  0.00  0.00    +0.006 C 
BRANCH  27  29
ATOM     28  N   UNL     1      33.601 -13.344 -25.396  0.00  0.00    -0.242 NA
ATOM     29  C   UNL     1      34.822 -14.551 -23.722  0.00  0.00    +0.019 C 
ATOM     30  C   UNL     1      34.737 -13.489 -22.847  0.00  0.00    +0.003 C 
ATOM     31  C   UNL     1      34.253 -14.449 -24.968  0.00  0.00    +0.099 C 
ATOM     32  C   UNL     1      34.076 -12.334 -23.252  0.00  0.00    +0.021 C 
ATOM     33  C   UNL     1      33.530 -12.313 -24.525  0.00  0.00    +0.099 C 
ENDBRANCH  27  29
ENDBRANCH  24  26
ENDBRANCH  21  23
ENDBRANCH   1  21
TORSDOF 7
ENDMDL
MODEL 8
REMARK VINA RESULT:     -10.8      4.402     11.442
REMARK  Name = 12136798
REMARK  7 active torsions:
REMARK  status: ('A' for Active; 'I' for Inactive)
REMARK    1  A    between atoms: C_1  and  C_21
REMARK    2  A    between atoms: C_2  and  C_9
REMARK    3  A    between atoms: N_8  and  C_12
REMARK    4  A    between atoms: C_13  and  N_18
REMARK    5  A    between atoms: C_21  and  N_23
REMARK    6  A    between atoms: C_24  and  C_26
REMARK    7  A    between atoms: C_27  and  C_29
REMARK                            x       y       z     vdW  Elec       q    Type
REMARK                         _______ _______ _______ _____ _____    ______ ____
ROOT
ATOM      1  C   UNL     1      34.852 -16.903 -24.022  0.00  0.00    -0.003 C 
ATOM      2  C   UNL     1      34.174 -14.214 -24.206  0.00  0.00    +0.054 C 
ATOM      3  C   UNL     1      35.425 -15.988 -23.148  0.00  0.00    -0.002 C 
ATOM      4  C   UNL     1      33.944 -16.488 -24.988  0.00  0.00    -0.002 C 
ATOM      5  C   UNL     1      35.085 -14.638 -23.239  0.00  0.00    +0.004 C 
ATOM      6  C   UNL     1      33.603 -15.138 -25.081  0.00  0.00    +0.004 C 
ENDROOT
BRANCH   2   9
ATOM      7  O   UNL     1      33.802 -12.265 -25.421  0.00  0.00    -0.270 OA
ATOM      8  N   UNL     1      33.497 -12.172 -23.096  0.00  0.00    -0.279 N 
ATOM      9  C   UNL     1      33.820 -12.806 -24.304  0.00  0.00    +0.250 C 
ATOM     10  H   UNL     1      33.557 -12.733 -22.289  0.00  0.00    +0.155 HD
BRANCH   8  12
ATOM     11  F   UNL     1      31.985  -6.913 -22.321  0.00  0.00    -0.204 F 
ATOM     12  C   UNL     1      33.096 -10.830 -22.885  0.00  0.00    +0.064 C 
ATOM     13  C   UNL     1      32.060 -10.538 -22.013  0.00  0.00    +0.057 C 
ATOM     14  C   UNL     1      33.764  -9.829 -23.572  0.00  0.00    +0.018 C 
ATOM     15  C   UNL     1      31.683  -9.209 -21.821  0.00  0.00    +0.045 C 
ATOM     16  C   UNL     1      33.388  -8.500 -23.379  0.00  0.00    +0.031 C 
ATOM     17  C   UNL     1      32.346  -8.190 -22.505  0.00  0.00    +0.141 C 
BRANCH  13  18
ATOM     18  N   UNL     1      31.374 -11.553 -21.311  0.00  0.00    -0.356 N 
ATOM     19  H   UNL     1      30.461 -11.391 -20.980  0.00  0.00    +0.142 HD
ATOM     20  H   UNL     1      31.808 -12.423 -21.152  0.00  0.00    +0.142 HD
ENDBRANCH  13  18
ENDBRANCH   8  12
ENDBRANCH   2   9
BRANCH   1  21
ATOM     21  C   UNL     1      35.217 -18.356 -23.923  0.00  0.00    +0.117 C 
BRANCH  21  23
ATOM     22  O   UNL     1      36.612 -18.878 -21.438  0.00  0.00    -0.270 OA
ATOM     23  N   UNL     1      34.681 -18.970 -22.728  0.00  0.00    -0.297 N 
ATOM     24  C   UNL     1      35.431 -19.177 -21.583  0.00  0.00    +0.246 C 
ATOM     25  H   UNL     1      33.738 -19.253 -22.729  0.00  0.00    +0.150 HD
BRANCH  24  26
ATOM     26  C   UNL     1      34.631 -19.826 -20.507  0.00  0.00    +0.058 C 
ATOM     27  C   UNL     1      35.109 -20.911 -19.879  0.00  0.00    +0.006 C 
BRANCH  27  29
ATOM     28  N   UNL     1      32.336 -22.348 -17.830  0.00  0.00    -0.242 NA
ATOM     29  C   UNL     1      34.409 -21.625 -18.796  0.00  0.00    +0.019 C 
ATOM     30  C   UNL     1      35.127 -22.217 -17.778  0.00  0.00    +0.003 C 
ATOM     31  C   UNL     1      33.038 -21.707 -18.793  0.00  0.00    +0.099 C 
ATOM     32  C   UNL     1      34.440 -22.885 -16.769  0.00  0.00    +0.021 C 
ATOM     33  C   UNL     1      33.058 -22.921 -16.841  0.00  0.00    +0.099 C 
ENDBRANCH  27  29
ENDBRANCH  24  26
ENDBRANCH  21  23
ENDBRANCH   1  21
TORSDOF 7
ENDMDL
MODEL 9
REMARK VINA RESULT:     -10.8      3.879     10.840
REMARK  Name = 12136798
REMARK  7 active torsions:
REMARK  status: ('A' for Active; 'I' for Inactive)
REMARK    1  A    between atoms: C_1  and  C_21
REMARK    2  A    between atoms: C_2  and  C_9
REMARK    3  A    between atoms: N_8  and  C_12
REMARK    4  A    between atoms: C_13  and  N_18
REMARK    5  A    between atoms: C_21  and  N_23
REMARK    6  A    between atoms: C_24  and  C_26
REMARK    7  A    between atoms: C_27  and  C_29
REMARK                            x       y       z     vdW  Elec       q    Type
REMARK                         _______ _______ _______ _____ _____    ______ ____
ROOT
ATOM      1  C   UNL     1      36.198 -20.287 -20.152  0.00  0.00    -0.003 C 
ATOM      2  C   UNL     1      35.627 -18.328 -22.039  0.00  0.00    +0.054 C 
ATOM      3  C   UNL     1      34.902 -20.154 -20.634  0.00  0.00    -0.002 C 
ATOM      4  C   UNL     1      37.212 -19.451 -20.603  0.00  0.00    -0.002 C 
ATOM      5  C   UNL     1      34.614 -19.172 -21.581  0.00  0.00    +0.004 C 
ATOM      6  C   UNL     1      36.925 -18.468 -21.550  0.00  0.00    +0.004 C 
ENDROOT
BRANCH   2   9
ATOM      7  O   UNL     1      35.383 -17.590 -24.232  0.00  0.00    -0.270 OA
ATOM      8  N   UNL     1      34.967 -16.048 -22.512  0.00  0.00    -0.279 N 
ATOM      9  C   UNL     1      35.327 -17.302 -23.026  0.00  0.00    +0.250 C 
ATOM     10  H   UNL     1      34.967 -15.971 -21.531  0.00  0.00    +0.155 HD
BRANCH   8  12
ATOM     11  F   UNL     1      33.536 -11.521 -25.342  0.00  0.00    -0.204 F 
ATOM     12  C   UNL     1      34.603 -14.877 -23.221  0.00  0.00    +0.064 C 
ATOM     13  C   UNL     1      34.544 -13.655 -22.572  0.00  0.00    +0.057 C 
ATOM     14  C   UNL     1      34.308 -14.991 -24.571  0.00  0.00    +0.018 C 
ATOM     15  C   UNL     1      34.182 -12.516 -23.291  0.00  0.00    +0.045 C 
ATOM     16  C   UNL     1      33.947 -13.852 -25.290  0.00  0.00    +0.031 C 
ATOM     17  C   UNL     1      33.883 -12.614 -24.650  0.00  0.00    +0.141 C 
BRANCH  13  18
ATOM     18  N   UNL     1      34.843 -13.531 -21.197  0.00  0.00    -0.356 N 
ATOM     19  H   UNL     1      35.546 -12.909 -20.901  0.00  0.00    +0.142 HD
ATOM     20  H   UNL     1      34.347 -14.066 -20.535  0.00  0.00    +0.142 HD
ENDBRANCH  13  18
ENDBRANCH   8  12
ENDBRANCH   2   9
BRANCH   1  21
ATOM     21  C   UNL     1      36.508 -21.345 -19.133  0.00  0.00    +0.117 C 
BRANCH  21  23
ATOM     22  O   UNL     1      34.531 -23.418 -19.565  0.00  0.00    -0.270 OA
ATOM     23  N   UNL     1      35.363 -21.652 -18.305  0.00  0.00    -0.297 N 
ATOM     24  C   UNL     1      34.470 -22.669 -18.596  0.00  0.00    +0.246 C 
ATOM     25  H   UNL     1      35.212 -21.112 -17.495  0.00  0.00    +0.150 HD
BRANCH  24  26
ATOM     26  C   UNL     1      33.386 -22.763 -17.577  0.00  0.00    +0.058 C 
ATOM     27  C   UNL     1      33.680 -23.123 -16.319  0.00  0.00    +0.006 C 
BRANCH  27  29
ATOM     28  N   UNL     1      32.179 -23.980 -13.008  0.00  0.00    -0.242 NA
ATOM     29  C   UNL     1      32.693 -23.238 -15.231  0.00  0.00    +0.019 C 
ATOM     30  C   UNL     1      31.418 -22.738 -15.393  0.00  0.00    +0.003 C 
ATOM     31  C   UNL     1      33.036 -23.843 -14.046  0.00  0.00    +0.099 C 
ATOM     32  C   UNL     1      30.508 -22.860 -14.349  0.00  0.00    +0.021 C 
ATOM     33  C   UNL     1      30.934 -23.484 -13.188  0.00  0.00    +0.099 C 
ENDBRANCH  27  29
ENDBRANCH  24  26
ENDBRANCH  21  23
ENDBRANCH   1  21
TORSDOF 7
ENDMDL
