MODEL 1
REMARK VINA RESULT:     -12.8      0.000      0.000
REMARK  Name = 208951
REMARK  4 active torsions:
REMARK  status: ('A' for Active; 'I' for Inactive)
REMARK    1  A    between atoms: N_1  and  C_19
REMARK    2  A    between atoms: N_2  and  C_11
REMARK    3  A    between atoms: C_19  and  C_20
REMARK    4  A    between atoms: C_23  and  C_26
REMARK                            x       y       z     vdW  Elec       q    Type
REMARK                         _______ _______ _______ _____ _____    ______ ____
ROOT
ATOM      1  N   UNL     1      34.999 -16.260 -23.940  0.00  0.00    +0.392 N 
ATOM      2  N   UNL     1      33.761 -13.818 -23.128  0.00  0.00    -0.309 N 
ATOM      3  C   UNL     1      34.943 -15.891 -22.520  0.00  0.00    -0.055 C 
ATOM      4  C   UNL     1      33.801 -15.771 -24.631  0.00  0.00    -0.055 C 
ATOM      5  C   UNL     1      34.872 -14.372 -22.349  0.00  0.00    +0.068 C 
ATOM      6  C   UNL     1      33.692 -14.247 -24.531  0.00  0.00    +0.068 C 
ATOM      7  H   UNL     1      35.822 -15.826 -24.360  0.00  0.00    -0.079 HD
ENDROOT
BRANCH   2  11
ATOM      8  O   UNL     1      34.775 -11.293 -24.255  0.00  0.00    -0.406 OA
ATOM      9  O   UNL     1      35.694  -9.411 -25.238  0.00  0.00    -0.223 OA
ATOM     10  N   UNL     1      33.929  -9.222 -23.727  0.00  0.00    -0.287 N 
ATOM     11  C   UNL     1      33.241 -12.560 -22.800  0.00  0.00    +0.084 C 
ATOM     12  C   UNL     1      33.734 -11.381 -23.344  0.00  0.00    +0.179 A 
ATOM     13  C   UNL     1      32.173 -12.416 -21.890  0.00  0.00    +0.018 C 
ATOM     14  C   UNL     1      33.213 -10.149 -23.015  0.00  0.00    +0.098 A 
ATOM     15  C   UNL     1      31.649 -11.150 -21.560  0.00  0.00    +0.003 C 
ATOM     16  C   UNL     1      32.173  -9.988 -22.129  0.00  0.00    +0.020 C 
ATOM     17  C   UNL     1      34.872  -9.907 -24.476  0.00  0.00    +0.419 A 
ATOM     18  H   UNL     1      33.798  -8.247 -23.709  0.00  0.00    +0.172 HD
ENDBRANCH   2  11
BRANCH   1  19
ATOM     19  C   UNL     1      35.122 -17.709 -24.088  0.00  0.00    -0.050 C 
BRANCH  19  20
ATOM     20  C   UNL     1      35.768 -18.326 -22.878  0.00  0.00    -0.043 C 
ATOM     21  C   UNL     1      35.011 -19.124 -22.030  0.00  0.00    -0.006 C 
ATOM     22  C   UNL     1      37.113 -18.090 -22.625  0.00  0.00    -0.006 C 
ATOM     23  C   UNL     1      35.612 -19.696 -20.908  0.00  0.00    -0.000 C 
ATOM     24  C   UNL     1      37.712 -18.662 -21.504  0.00  0.00    -0.000 C 
ATOM     25  C   UNL     1      36.962 -19.464 -20.645  0.00  0.00    -0.000 C 
BRANCH  23  26
ATOM     26  C   UNL     1      34.834 -20.531 -20.017  0.00  0.00    -0.000 C 
ATOM     27  C   UNL     1      35.476 -21.430 -19.166  0.00  0.00    -0.000 C 
ATOM     28  C   UNL     1      33.442 -20.435 -20.010  0.00  0.00    -0.000 C 
ATOM     29  C   UNL     1      34.726 -22.234 -18.307  0.00  0.00    -0.000 C 
ATOM     30  C   UNL     1      32.693 -21.240 -19.152  0.00  0.00    -0.000 C 
ATOM     31  C   UNL     1      33.335 -22.139 -18.300  0.00  0.00    +0.000 C 
ENDBRANCH  23  26
ENDBRANCH  19  20
ENDBRANCH   1  19
TORSDOF 4
ENDMDL
MODEL 2
REMARK VINA RESULT:     -12.7      1.478      2.395
REMARK  Name = 208951
REMARK  4 active torsions:
REMARK  status: ('A' for Active; 'I' for Inactive)
REMARK    1  A    between atoms: N_1  and  C_19
REMARK    2  A    between atoms: N_2  and  C_11
REMARK    3  A    between atoms: C_19  and  C_20
REMARK    4  A    between atoms: C_23  and  C_26
REMARK                            x       y       z     vdW  Elec       q    Type
REMARK                         _______ _______ _______ _____ _____    ______ ____
ROOT
ATOM      1  N   UNL     1      34.675 -15.854 -24.079  0.00  0.00    +0.392 N 
ATOM      2  N   UNL     1      34.116 -13.067 -23.789  0.00  0.00    -0.309 N 
ATOM      3  C   UNL     1      34.552 -15.255 -22.745  0.00  0.00    -0.055 C 
ATOM      4  C   UNL     1      33.768 -15.177 -25.015  0.00  0.00    -0.055 C 
ATOM      5  C   UNL     1      34.909 -13.767 -22.774  0.00  0.00    +0.068 C 
ATOM      6  C   UNL     1      34.100 -13.687 -25.121  0.00  0.00    +0.068 C 
ATOM      7  H   UNL     1      35.634 -15.735 -24.406  0.00  0.00    -0.079 HD
ENDROOT
BRANCH   2  11
ATOM      8  O   UNL     1      32.127 -11.764 -22.052  0.00  0.00    -0.406 OA
ATOM      9  O   UNL     1      30.514 -10.910 -20.631  0.00  0.00    -0.223 OA
ATOM     10  N   UNL     1      31.847  -9.487 -21.907  0.00  0.00    -0.287 N 
ATOM     11  C   UNL     1      33.951 -11.680 -23.708  0.00  0.00    +0.084 C 
ATOM     12  C   UNL     1      33.006 -11.086 -22.881  0.00  0.00    +0.179 A 
ATOM     13  C   UNL     1      34.744 -10.796 -24.467  0.00  0.00    +0.018 C 
ATOM     14  C   UNL     1      32.854  -9.718 -22.808  0.00  0.00    +0.098 A 
ATOM     15  C   UNL     1      34.579  -9.398 -24.385  0.00  0.00    +0.003 C 
ATOM     16  C   UNL     1      33.618  -8.839 -23.541  0.00  0.00    +0.020 C 
ATOM     17  C   UNL     1      31.406 -10.717 -21.448  0.00  0.00    +0.419 A 
ATOM     18  H   UNL     1      31.501  -8.607 -21.636  0.00  0.00    +0.172 HD
ENDBRANCH   2  11
BRANCH   1  19
ATOM     19  C   UNL     1      34.384 -17.285 -24.028  0.00  0.00    -0.050 C 
BRANCH  19  20
ATOM     20  C   UNL     1      35.230 -17.974 -22.992  0.00  0.00    -0.043 C 
ATOM     21  C   UNL     1      34.633 -18.842 -22.087  0.00  0.00    -0.006 C 
ATOM     22  C   UNL     1      36.597 -17.733 -22.954  0.00  0.00    -0.006 C 
ATOM     23  C   UNL     1      35.419 -19.481 -21.127  0.00  0.00    -0.000 C 
ATOM     24  C   UNL     1      37.382 -18.371 -21.994  0.00  0.00    -0.000 C 
ATOM     25  C   UNL     1      36.793 -19.245 -21.081  0.00  0.00    -0.000 C 
BRANCH  23  26
ATOM     26  C   UNL     1      34.808 -20.389 -20.180  0.00  0.00    -0.000 C 
ATOM     27  C   UNL     1      33.421 -20.424 -20.042  0.00  0.00    -0.000 C 
ATOM     28  C   UNL     1      35.608 -21.230 -19.406  0.00  0.00    -0.000 C 
ATOM     29  C   UNL     1      32.833 -21.300 -19.130  0.00  0.00    -0.000 C 
ATOM     30  C   UNL     1      35.020 -22.105 -18.493  0.00  0.00    -0.000 C 
ATOM     31  C   UNL     1      33.632 -22.140 -18.355  0.00  0.00    +0.000 C 
ENDBRANCH  23  26
ENDBRANCH  19  20
ENDBRANCH   1  19
TORSDOF 4
ENDMDL
MODEL 3
REMARK VINA RESULT:     -11.7      7.105     12.175
REMARK  Name = 208951
REMARK  4 active torsions:
REMARK  status: ('A' for Active; 'I' for Inactive)
REMARK    1  A    between atoms: N_1  and  C_19
REMARK    2  A    between atoms: N_2  and  C_11
REMARK    3  A    between atoms: C_19  and  C_20
REMARK    4  A    between atoms: C_23  and  C_26
REMARK                            x       y       z     vdW  Elec       q    Type
REMARK                         _______ _______ _______ _____ _____    ______ ____
ROOT
ATOM      1  N   UNL     1      36.378 -21.632 -17.633  0.00  0.00    +0.392 N 
ATOM      2  N   UNL     1      36.367 -23.021 -15.137  0.00  0.00    -0.309 N 
ATOM      3  C   UNL     1      37.633 -21.876 -16.913  0.00  0.00    -0.055 C 
ATOM      4  C   UNL     1      35.448 -22.746 -17.408  0.00  0.00    -0.055 C 
ATOM      5  C   UNL     1      37.388 -22.004 -15.407  0.00  0.00    +0.068 C 
ATOM      6  C   UNL     1      35.129 -22.902 -15.919  0.00  0.00    +0.068 C 
ATOM      7  H   UNL     1      35.956 -20.774 -17.278  0.00  0.00    -0.079 HD
ENDROOT
BRANCH   2  11
ATOM      8  O   UNL     1      38.382 -24.892 -14.083  0.00  0.00    -0.406 OA
ATOM      9  O   UNL     1      40.057 -26.341 -13.415  0.00  0.00    -0.223 OA
ATOM     10  N   UNL     1      38.267 -25.861 -12.002  0.00  0.00    -0.287 N 
ATOM     11  C   UNL     1      36.288 -23.608 -13.869  0.00  0.00    +0.084 C 
ATOM     12  C   UNL     1      37.251 -24.488 -13.391  0.00  0.00    +0.179 A 
ATOM     13  C   UNL     1      35.218 -23.335 -12.993  0.00  0.00    +0.018 C 
ATOM     14  C   UNL     1      37.164 -25.059 -12.140  0.00  0.00    +0.098 A 
ATOM     15  C   UNL     1      35.139 -23.926 -11.715  0.00  0.00    +0.003 C 
ATOM     16  C   UNL     1      36.128 -24.806 -11.271  0.00  0.00    +0.020 C 
ATOM     17  C   UNL     1      39.004 -25.764 -13.170  0.00  0.00    +0.419 A 
ATOM     18  H   UNL     1      38.494 -26.407 -11.215  0.00  0.00    +0.172 HD
ENDBRANCH   2  11
BRANCH   1  19
ATOM     19  C   UNL     1      36.632 -21.458 -19.062  0.00  0.00    -0.050 C 
BRANCH  19  20
ATOM     20  C   UNL     1      35.453 -20.826 -19.750  0.00  0.00    -0.043 C 
ATOM     21  C   UNL     1      35.666 -19.909 -20.771  0.00  0.00    -0.006 C 
ATOM     22  C   UNL     1      34.166 -21.169 -19.356  0.00  0.00    -0.006 C 
ATOM     23  C   UNL     1      34.572 -19.324 -21.409  0.00  0.00    -0.000 C 
ATOM     24  C   UNL     1      33.073 -20.585 -19.994  0.00  0.00    -0.000 C 
ATOM     25  C   UNL     1      33.275 -19.662 -21.020  0.00  0.00    -0.000 C 
BRANCH  23  26
ATOM     26  C   UNL     1      34.781 -18.368 -22.474  0.00  0.00    -0.000 C 
ATOM     27  C   UNL     1      35.371 -17.134 -22.199  0.00  0.00    -0.000 C 
ATOM     28  C   UNL     1      34.394 -18.681 -23.778  0.00  0.00    -0.000 C 
ATOM     29  C   UNL     1      35.573 -16.213 -23.226  0.00  0.00    -0.000 C 
ATOM     30  C   UNL     1      34.596 -17.759 -24.805  0.00  0.00    -0.000 C 
ATOM     31  C   UNL     1      35.186 -16.525 -24.529  0.00  0.00    +0.000 C 
ENDBRANCH  23  26
ENDBRANCH  19  20
ENDBRANCH   1  19
TORSDOF 4
ENDMDL
MODEL 4
REMARK VINA RESULT:     -11.6      5.045     10.247
REMARK  Name = 208951
REMARK  4 active torsions:
REMARK  status: ('A' for Active; 'I' for Inactive)
REMARK    1  A    between atoms: N_1  and  C_19
REMARK    2  A    between atoms: N_2  and  C_11
REMARK    3  A    between atoms: C_19  and  C_20
REMARK    4  A    between atoms: C_23  and  C_26
REMARK                            x       y       z     vdW  Elec       q    Type
REMARK                         _______ _______ _______ _____ _____    ______ ____
ROOT
ATOM      1  N   UNL     1      35.965 -20.133 -20.780  0.00  0.00    +0.392 N 
ATOM      2  N   UNL     1      34.648 -21.438 -18.607  0.00  0.00    -0.309 N 
ATOM      3  C   UNL     1      34.599 -19.753 -20.403  0.00  0.00    -0.055 C 
ATOM      4  C   UNL     1      36.720 -20.531 -19.586  0.00  0.00    -0.055 C 
ATOM      5  C   UNL     1      33.867 -20.920 -19.735  0.00  0.00    +0.068 C 
ATOM      6  C   UNL     1      36.060 -21.724 -18.890  0.00  0.00    +0.068 C 
ATOM      7  H   UNL     1      35.922 -20.926 -21.421  0.00  0.00    -0.079 HD
ENDROOT
BRANCH   2  11
ATOM      8  O   UNL     1      36.091 -22.797 -16.429  0.00  0.00    -0.406 OA
ATOM      9  O   UNL     1      37.382 -23.799 -14.792  0.00  0.00    -0.223 OA
ATOM     10  N   UNL     1      35.062 -24.026 -14.782  0.00  0.00    -0.287 N 
ATOM     11  C   UNL     1      34.014 -22.185 -17.608  0.00  0.00    +0.084 C 
ATOM     12  C   UNL     1      34.714 -22.819 -16.589  0.00  0.00    +0.179 A 
ATOM     13  C   UNL     1      32.613 -22.339 -17.576  0.00  0.00    +0.018 C 
ATOM     14  C   UNL     1      34.079 -23.551 -15.610  0.00  0.00    +0.098 A 
ATOM     15  C   UNL     1      31.973 -23.091 -16.570  0.00  0.00    +0.003 C 
ATOM     16  C   UNL     1      32.713 -23.712 -15.562  0.00  0.00    +0.020 C 
ATOM     17  C   UNL     1      36.277 -23.575 -15.271  0.00  0.00    +0.419 A 
ATOM     18  H   UNL     1      34.929 -24.587 -13.984  0.00  0.00    +0.172 HD
ENDBRANCH   2  11
BRANCH   1  19
ATOM     19  C   UNL     1      36.634 -19.029 -21.465  0.00  0.00    -0.050 C 
BRANCH  19  20
ATOM     20  C   UNL     1      35.799 -18.513 -22.606  0.00  0.00    -0.043 C 
ATOM     21  C   UNL     1      35.541 -17.152 -22.704  0.00  0.00    -0.006 C 
ATOM     22  C   UNL     1      35.298 -19.404 -23.545  0.00  0.00    -0.006 C 
ATOM     23  C   UNL     1      34.767 -16.674 -23.762  0.00  0.00    -0.000 C 
ATOM     24  C   UNL     1      34.525 -18.926 -24.602  0.00  0.00    -0.000 C 
ATOM     25  C   UNL     1      34.259 -17.562 -24.711  0.00  0.00    -0.000 C 
BRANCH  23  26
ATOM     26  C   UNL     1      34.492 -15.258 -23.876  0.00  0.00    -0.000 C 
ATOM     27  C   UNL     1      34.799 -14.401 -22.819  0.00  0.00    -0.000 C 
ATOM     28  C   UNL     1      33.920 -14.750 -25.043  0.00  0.00    -0.000 C 
ATOM     29  C   UNL     1      34.535 -13.035 -22.929  0.00  0.00    -0.000 C 
ATOM     30  C   UNL     1      33.655 -13.385 -25.152  0.00  0.00    -0.000 C 
ATOM     31  C   UNL     1      33.963 -12.528 -24.096  0.00  0.00    +0.000 C 
ENDBRANCH  23  26
ENDBRANCH  19  20
ENDBRANCH   1  19
TORSDOF 4
ENDMDL
MODEL 5
REMARK VINA RESULT:     -11.3      6.915     12.058
REMARK  Name = 208951
REMARK  4 active torsions:
REMARK  status: ('A' for Active; 'I' for Inactive)
REMARK    1  A    between atoms: N_1  and  C_19
REMARK    2  A    between atoms: N_2  and  C_11
REMARK    3  A    between atoms: C_19  and  C_20
REMARK    4  A    between atoms: C_23  and  C_26
REMARK                            x       y       z     vdW  Elec       q    Type
REMARK                         _______ _______ _______ _____ _____    ______ ____
ROOT
ATOM      1  N   UNL     1      34.570 -22.007 -17.718  0.00  0.00    +0.392 N 
ATOM      2  N   UNL     1      35.397 -23.353 -15.338  0.00  0.00    -0.309 N 
ATOM      3  C   UNL     1      35.994 -22.258 -17.462  0.00  0.00    -0.055 C 
ATOM      4  C   UNL     1      33.763 -23.101 -17.166  0.00  0.00    -0.055 C 
ATOM      5  C   UNL     1      36.274 -22.357 -15.961  0.00  0.00    +0.068 C 
ATOM      6  C   UNL     1      33.969 -23.228 -15.655  0.00  0.00    +0.068 C 
ATOM      7  H   UNL     1      34.302 -21.136 -17.259  0.00  0.00    -0.079 HD
ENDROOT
BRANCH   2  11
ATOM      8  O   UNL     1      37.438 -25.455 -15.037  0.00  0.00    -0.406 OA
ATOM      9  O   UNL     1      39.065 -27.098 -14.984  0.00  0.00    -0.223 OA
ATOM     10  N   UNL     1      38.028 -26.388 -13.021  0.00  0.00    -0.287 N 
ATOM     11  C   UNL     1      35.750 -23.917 -14.107  0.00  0.00    +0.084 C 
ATOM     12  C   UNL     1      36.717 -24.908 -13.987  0.00  0.00    +0.179 A 
ATOM     13  C   UNL     1      35.141 -23.506 -12.904  0.00  0.00    +0.018 C 
ATOM     14  C   UNL     1      37.057 -25.454 -12.769  0.00  0.00    +0.098 A 
ATOM     15  C   UNL     1      35.497 -24.073 -11.663  0.00  0.00    +0.003 C 
ATOM     16  C   UNL     1      36.474 -25.067 -11.585  0.00  0.00    +0.020 C 
ATOM     17  C   UNL     1      38.262 -26.392 -14.386  0.00  0.00    +0.419 A 
ATOM     18  H   UNL     1      38.478 -26.953 -12.353  0.00  0.00    +0.172 HD
ENDBRANCH   2  11
BRANCH   1  19
ATOM     19  C   UNL     1      34.325 -21.861 -19.152  0.00  0.00    -0.050 C 
BRANCH  19  20
ATOM     20  C   UNL     1      35.272 -20.866 -19.766  0.00  0.00    -0.043 C 
ATOM     21  C   UNL     1      34.842 -20.072 -20.821  0.00  0.00    -0.006 C 
ATOM     22  C   UNL     1      36.563 -20.753 -19.268  0.00  0.00    -0.006 C 
ATOM     23  C   UNL     1      35.720 -19.149 -21.389  0.00  0.00    -0.000 C 
ATOM     24  C   UNL     1      37.441 -19.831 -19.836  0.00  0.00    -0.000 C 
ATOM     25  C   UNL     1      37.020 -19.029 -20.897  0.00  0.00    -0.000 C 
BRANCH  23  26
ATOM     26  C   UNL     1      35.283 -18.316 -22.488  0.00  0.00    -0.000 C 
ATOM     27  C   UNL     1      35.547 -16.946 -22.473  0.00  0.00    -0.000 C 
ATOM     28  C   UNL     1      34.599 -18.883 -23.564  0.00  0.00    -0.000 C 
ATOM     29  C   UNL     1      35.126 -16.143 -23.533  0.00  0.00    -0.000 C 
ATOM     30  C   UNL     1      34.178 -18.079 -24.623  0.00  0.00    -0.000 C 
ATOM     31  C   UNL     1      34.442 -16.709 -24.608  0.00  0.00    +0.000 C 
ENDBRANCH  23  26
ENDBRANCH  19  20
ENDBRANCH   1  19
TORSDOF 4
ENDMDL
MODEL 6
REMARK VINA RESULT:     -11.3      1.737      2.791
REMARK  Name = 208951
REMARK  4 active torsions:
REMARK  status: ('A' for Active; 'I' for Inactive)
REMARK    1  A    between atoms: N_1  and  C_19
REMARK    2  A    between atoms: N_2  and  C_11
REMARK    3  A    between atoms: C_19  and  C_20
REMARK    4  A    between atoms: C_23  and  C_26
REMARK                            x       y       z     vdW  Elec       q    Type
REMARK                         _______ _______ _______ _____ _____    ______ ____
ROOT
ATOM      1  N   UNL     1      34.420 -14.500 -22.868  0.00  0.00    +0.392 N 
ATOM      2  N   UNL     1      33.301 -12.196 -21.603  0.00  0.00    -0.309 N 
ATOM      3  C   UNL     1      34.327 -13.226 -23.591  0.00  0.00    -0.055 C 
ATOM      4  C   UNL     1      34.657 -14.248 -21.442  0.00  0.00    -0.055 C 
ATOM      5  C   UNL     1      33.178 -12.370 -23.053  0.00  0.00    +0.068 C 
ATOM      6  C   UNL     1      33.518 -13.427 -20.831  0.00  0.00    +0.068 C 
ATOM      7  H   UNL     1      33.538 -15.002 -22.971  0.00  0.00    -0.079 HD
ENDROOT
BRANCH   2  11
ATOM      8  O   UNL     1      32.907  -9.557 -22.849  0.00  0.00    -0.406 OA
ATOM      9  O   UNL     1      32.686  -7.550 -23.978  0.00  0.00    -0.223 OA
ATOM     10  N   UNL     1      31.830  -7.804 -21.825  0.00  0.00    -0.287 N 
ATOM     11  C   UNL     1      32.645 -11.133 -20.972  0.00  0.00    +0.084 C 
ATOM     12  C   UNL     1      32.470  -9.896 -21.578  0.00  0.00    +0.179 A 
ATOM     13  C   UNL     1      32.116 -11.258 -19.671  0.00  0.00    +0.018 C 
ATOM     14  C   UNL     1      31.820  -8.857 -20.948  0.00  0.00    +0.098 A 
ATOM     15  C   UNL     1      31.455 -10.188 -19.035  0.00  0.00    +0.003 C 
ATOM     16  C   UNL     1      31.298  -8.959 -19.679  0.00  0.00    +0.020 C 
ATOM     17  C   UNL     1      32.484  -8.221 -22.973  0.00  0.00    +0.419 A 
ATOM     18  H   UNL     1      31.443  -6.913 -21.668  0.00  0.00    +0.172 HD
ENDBRANCH   2  11
BRANCH   1  19
ATOM     19  C   UNL     1      35.486 -15.330 -23.427  0.00  0.00    -0.050 C 
BRANCH  19  20
ATOM     20  C   UNL     1      35.085 -16.780 -23.455  0.00  0.00    -0.043 C 
ATOM     21  C   UNL     1      35.280 -17.566 -22.327  0.00  0.00    -0.006 C 
ATOM     22  C   UNL     1      34.525 -17.313 -24.608  0.00  0.00    -0.006 C 
ATOM     23  C   UNL     1      34.907 -18.910 -22.354  0.00  0.00    -0.000 C 
ATOM     24  C   UNL     1      34.153 -18.656 -24.635  0.00  0.00    -0.000 C 
ATOM     25  C   UNL     1      34.344 -19.455 -23.508  0.00  0.00    -0.000 C 
BRANCH  23  26
ATOM     26  C   UNL     1      35.103 -19.739 -21.184  0.00  0.00    -0.000 C 
ATOM     27  C   UNL     1      36.389 -19.954 -20.689  0.00  0.00    -0.000 C 
ATOM     28  C   UNL     1      34.005 -20.323 -20.550  0.00  0.00    -0.000 C 
ATOM     29  C   UNL     1      36.578 -20.752 -19.561  0.00  0.00    -0.000 C 
ATOM     30  C   UNL     1      34.195 -21.121 -19.423  0.00  0.00    -0.000 C 
ATOM     31  C   UNL     1      35.482 -21.336 -18.928  0.00  0.00    +0.000 C 
ENDBRANCH  23  26
ENDBRANCH  19  20
ENDBRANCH   1  19
TORSDOF 4
ENDMDL
MODEL 7
REMARK VINA RESULT:     -10.8      1.407      2.333
REMARK  Name = 208951
REMARK  4 active torsions:
REMARK  status: ('A' for Active; 'I' for Inactive)
REMARK    1  A    between atoms: N_1  and  C_19
REMARK    2  A    between atoms: N_2  and  C_11
REMARK    3  A    between atoms: C_19  and  C_20
REMARK    4  A    between atoms: C_23  and  C_26
REMARK                            x       y       z     vdW  Elec       q    Type
REMARK                         _______ _______ _______ _____ _____    ______ ____
ROOT
ATOM      1  N   UNL     1      35.914 -17.017 -22.317  0.00  0.00    +0.392 N 
ATOM      2  N   UNL     1      34.277 -14.692 -22.044  0.00  0.00    -0.309 N 
ATOM      3  C   UNL     1      35.206 -16.750 -21.059  0.00  0.00    -0.055 C 
ATOM      4  C   UNL     1      35.117 -16.534 -23.451  0.00  0.00    -0.055 C 
ATOM      5  C   UNL     1      34.961 -15.251 -20.873  0.00  0.00    +0.068 C 
ATOM      6  C   UNL     1      34.870 -15.027 -23.345  0.00  0.00    +0.068 C 
ATOM      7  H   UNL     1      36.805 -16.520 -22.305  0.00  0.00    -0.079 HD
ENDROOT
BRANCH   2  11
ATOM      8  O   UNL     1      34.543 -12.474 -23.962  0.00  0.00    -0.406 OA
ATOM      9  O   UNL     1      34.874 -10.837 -25.563  0.00  0.00    -0.223 OA
ATOM     10  N   UNL     1      33.403 -10.486 -23.789  0.00  0.00    -0.287 N 
ATOM     11  C   UNL     1      33.579 -13.484 -21.931  0.00  0.00    +0.084 C 
ATOM     12  C   UNL     1      33.720 -12.450 -22.848  0.00  0.00    +0.179 A 
ATOM     13  C   UNL     1      32.683 -13.245 -20.869  0.00  0.00    +0.018 C 
ATOM     14  C   UNL     1      33.027 -11.266 -22.727  0.00  0.00    +0.098 A 
ATOM     15  C   UNL     1      31.980 -12.028 -20.755  0.00  0.00    +0.003 C 
ATOM     16  C   UNL     1      32.148 -11.013 -21.698  0.00  0.00    +0.020 C 
ATOM     17  C   UNL     1      34.317 -11.210 -24.537  0.00  0.00    +0.419 A 
ATOM     18  H   UNL     1      33.082  -9.577 -23.985  0.00  0.00    +0.172 HD
ENDBRANCH   2  11
BRANCH   1  19
ATOM     19  C   UNL     1      36.190 -18.446 -22.456  0.00  0.00    -0.050 C 
BRANCH  19  20
ATOM     20  C   UNL     1      35.304 -19.260 -21.553  0.00  0.00    -0.043 C 
ATOM     21  C   UNL     1      35.856 -19.901 -20.451  0.00  0.00    -0.006 C 
ATOM     22  C   UNL     1      33.948 -19.359 -21.831  0.00  0.00    -0.006 C 
ATOM     23  C   UNL     1      35.034 -20.655 -19.612  0.00  0.00    -0.000 C 
ATOM     24  C   UNL     1      33.127 -20.113 -20.994  0.00  0.00    -0.000 C 
ATOM     25  C   UNL     1      33.670 -20.761 -19.885  0.00  0.00    -0.000 C 
BRANCH  23  26
ATOM     26  C   UNL     1      35.596 -21.326 -18.460  0.00  0.00    -0.000 C 
ATOM     27  C   UNL     1      36.937 -21.136 -18.128  0.00  0.00    -0.000 C 
ATOM     28  C   UNL     1      34.795 -22.163 -17.681  0.00  0.00    -0.000 C 
ATOM     29  C   UNL     1      37.478 -21.783 -17.017  0.00  0.00    -0.000 C 
ATOM     30  C   UNL     1      35.338 -22.810 -16.571  0.00  0.00    -0.000 C 
ATOM     31  C   UNL     1      36.679 -22.619 -16.238  0.00  0.00    +0.000 C 
ENDBRANCH  23  26
ENDBRANCH  19  20
ENDBRANCH   1  19
TORSDOF 4
ENDMDL
MODEL 8
REMARK VINA RESULT:     -10.7      3.206      5.638
REMARK  Name = 208951
REMARK  4 active torsions:
REMARK  status: ('A' for Active; 'I' for Inactive)
REMARK    1  A    between atoms: N_1  and  C_19
REMARK    2  A    between atoms: N_2  and  C_11
REMARK    3  A    between atoms: C_19  and  C_20
REMARK    4  A    between atoms: C_23  and  C_26
REMARK                            x       y       z     vdW  Elec       q    Type
REMARK                         _______ _______ _______ _____ _____    ______ ____
ROOT
ATOM      1  N   UNL     1      34.207 -10.994 -23.675  0.00  0.00    +0.392 N 
ATOM      2  N   UNL     1      33.083  -8.371 -23.544  0.00  0.00    -0.309 N 
ATOM      3  C   UNL     1      32.758 -10.813 -23.531  0.00  0.00    -0.055 C 
ATOM      4  C   UNL     1      34.768  -9.904 -24.484  0.00  0.00    -0.055 C 
ATOM      5  C   UNL     1      32.435  -9.484 -22.843  0.00  0.00    +0.068 C 
ATOM      6  C   UNL     1      34.513  -8.545 -23.827  0.00  0.00    +0.068 C 
ATOM      7  H   UNL     1      34.636 -10.971 -22.750  0.00  0.00    -0.079 HD
ENDROOT
BRANCH   2  11
ATOM      8  O   UNL     1      33.099  -6.954 -20.963  0.00  0.00    -0.406 OA
ATOM      9  O   UNL     1      33.190  -5.991 -18.861  0.00  0.00    -0.223 OA
ATOM     10  N   UNL     1      32.312  -4.814 -20.670  0.00  0.00    -0.287 N 
ATOM     11  C   UNL     1      32.600  -7.068 -23.374  0.00  0.00    +0.084 C 
ATOM     12  C   UNL     1      32.618  -6.418 -22.147  0.00  0.00    +0.179 A 
ATOM     13  C   UNL     1      32.065  -6.332 -24.451  0.00  0.00    +0.018 C 
ATOM     14  C   UNL     1      32.142  -5.134 -21.992  0.00  0.00    +0.098 A 
ATOM     15  C   UNL     1      31.580  -5.020 -24.281  0.00  0.00    +0.003 C 
ATOM     16  C   UNL     1      31.615  -4.400 -23.030  0.00  0.00    +0.020 C 
ATOM     17  C   UNL     1      32.889  -5.907 -20.045  0.00  0.00    +0.419 A 
ATOM     18  H   UNL     1      32.069  -3.962 -20.243  0.00  0.00    +0.172 HD
ENDBRANCH   2  11
BRANCH   1  19
ATOM     19  C   UNL     1      34.504 -12.289 -24.284  0.00  0.00    -0.050 C 
BRANCH  19  20
ATOM     20  C   UNL     1      34.621 -13.365 -23.239  0.00  0.00    -0.043 C 
ATOM     21  C   UNL     1      34.774 -14.688 -23.633  0.00  0.00    -0.006 C 
ATOM     22  C   UNL     1      34.576 -13.022 -21.894  0.00  0.00    -0.006 C 
ATOM     23  C   UNL     1      34.883 -15.685 -22.663  0.00  0.00    -0.000 C 
ATOM     24  C   UNL     1      34.685 -14.018 -20.926  0.00  0.00    -0.000 C 
ATOM     25  C   UNL     1      34.838 -15.350 -21.309  0.00  0.00    -0.000 C 
BRANCH  23  26
ATOM     26  C   UNL     1      35.044 -17.067 -23.060  0.00  0.00    -0.000 C 
ATOM     27  C   UNL     1      35.604 -17.988 -22.174  0.00  0.00    -0.000 C 
ATOM     28  C   UNL     1      34.639 -17.479 -24.331  0.00  0.00    -0.000 C 
ATOM     29  C   UNL     1      35.758 -19.320 -22.558  0.00  0.00    -0.000 C 
ATOM     30  C   UNL     1      34.794 -18.811 -24.714  0.00  0.00    -0.000 C 
ATOM     31  C   UNL     1      35.353 -19.732 -23.827  0.00  0.00    +0.000 C 
ENDBRANCH  23  26
ENDBRANCH  19  20
ENDBRANCH   1  19
TORSDOF 4
ENDMDL
MODEL 9
REMARK VINA RESULT:     -10.6      4.664     12.335
REMARK  Name = 208951
REMARK  4 active torsions:
REMARK  status: ('A' for Active; 'I' for Inactive)
REMARK    1  A    between atoms: N_1  and  C_19
REMARK    2  A    between atoms: N_2  and  C_11
REMARK    3  A    between atoms: C_19  and  C_20
REMARK    4  A    between atoms: C_23  and  C_26
REMARK                            x       y       z     vdW  Elec       q    Type
REMARK                         _______ _______ _______ _____ _____    ______ ____
ROOT
ATOM      1  N   UNL     1      34.250  -7.963 -23.616  0.00  0.00    +0.392 N 
ATOM      2  N   UNL     1      34.115 -10.774 -24.106  0.00  0.00    -0.309 N 
ATOM      3  C   UNL     1      33.379  -8.818 -22.801  0.00  0.00    -0.055 C 
ATOM      4  C   UNL     1      35.453  -8.706 -24.009  0.00  0.00    -0.055 C 
ATOM      5  C   UNL     1      32.945 -10.063 -23.580  0.00  0.00    +0.068 C 
ATOM      6  C   UNL     1      35.089  -9.947 -24.829  0.00  0.00    +0.068 C 
ATOM      7  H   UNL     1      33.745  -7.685 -24.458  0.00  0.00    -0.079 HD
ENDROOT
BRANCH   2  11
ATOM      8  O   UNL     1      34.559 -12.995 -22.223  0.00  0.00    -0.406 OA
ATOM      9  O   UNL     1      34.943 -14.611 -20.613  0.00  0.00    -0.223 OA
ATOM     10  N   UNL     1      34.382 -15.214 -22.794  0.00  0.00    -0.287 N 
ATOM     11  C   UNL     1      34.006 -12.123 -24.462  0.00  0.00    +0.084 C 
ATOM     12  C   UNL     1      34.220 -13.156 -23.557  0.00  0.00    +0.179 A 
ATOM     13  C   UNL     1      33.667 -12.517 -25.772  0.00  0.00    +0.018 C 
ATOM     14  C   UNL     1      34.108 -14.480 -23.919  0.00  0.00    +0.098 A 
ATOM     15  C   UNL     1      33.557 -13.876 -26.132  0.00  0.00    +0.003 C 
ATOM     16  C   UNL     1      33.780 -14.884 -25.192  0.00  0.00    +0.020 C 
ATOM     17  C   UNL     1      34.655 -14.323 -21.769  0.00  0.00    +0.419 A 
ATOM     18  H   UNL     1      34.384 -16.196 -22.727  0.00  0.00    +0.172 HD
ENDBRANCH   2  11
BRANCH   1  19
ATOM     19  C   UNL     1      34.612  -6.752 -22.881  0.00  0.00    -0.050 C 
BRANCH  19  20
ATOM     20  C   UNL     1      33.744  -5.592 -23.285  0.00  0.00    -0.043 C 
ATOM     21  C   UNL     1      33.789  -5.126 -24.592  0.00  0.00    -0.006 C 
ATOM     22  C   UNL     1      32.908  -5.003 -22.346  0.00  0.00    -0.006 C 
ATOM     23  C   UNL     1      32.983  -4.051 -24.966  0.00  0.00    -0.000 C 
ATOM     24  C   UNL     1      32.102  -3.929 -22.720  0.00  0.00    -0.000 C 
ATOM     25  C   UNL     1      32.140  -3.452 -24.030  0.00  0.00    -0.000 C 
BRANCH  23  26
ATOM     26  C   UNL     1      33.020  -3.557 -26.326  0.00  0.00    -0.000 C 
ATOM     27  C   UNL     1      33.937  -4.084 -27.235  0.00  0.00    -0.000 C 
ATOM     28  C   UNL     1      32.137  -2.554 -26.728  0.00  0.00    -0.000 C 
ATOM     29  C   UNL     1      33.972  -3.609 -28.546  0.00  0.00    -0.000 C 
ATOM     30  C   UNL     1      32.173  -2.078 -28.039  0.00  0.00    -0.000 C 
ATOM     31  C   UNL     1      33.090  -2.606 -28.948  0.00  0.00    +0.000 C 
ENDBRANCH  23  26
ENDBRANCH  19  20
ENDBRANCH   1  19
TORSDOF 4
ENDMDL
