MODEL 1
REMARK VINA RESULT:     -11.4      0.000      0.000
REMARK  Name = 4413
REMARK  6 active torsions:
REMARK  status: ('A' for Active; 'I' for Inactive)
REMARK    1  A    between atoms: O_1  and  C_9
REMARK    2  A    between atoms: O_1  and  C_19
REMARK    3  A    between atoms: C_6  and  C_14
REMARK    4  A    between atoms: C_19  and  C_20
REMARK    5  A    between atoms: C_23  and  N_26
REMARK    6  A    between atoms: N_26  and  C_29
REMARK                            x       y       z     vdW  Elec       q    Type
REMARK                         _______ _______ _______ _____ _____    ______ ____
ROOT
ATOM      1  O   UNL     1      32.801 -22.590 -18.010  0.00  0.00    -0.421 OA
ENDROOT
BRANCH   1   9
ATOM      2  C   UNL     1      33.973 -23.627 -14.145  0.00  0.00    +0.000 C 
ATOM      3  C   UNL     1      34.917 -23.080 -15.048  0.00  0.00    +0.003 C 
ATOM      4  C   UNL     1      34.384 -23.970 -12.847  0.00  0.00    +0.003 C 
ATOM      5  C   UNL     1      34.505 -22.737 -16.346  0.00  0.00    +0.038 C 
ATOM      6  C   UNL     1      35.706 -23.777 -12.445  0.00  0.00    +0.031 C 
ATOM      7  C   UNL     1      36.242 -22.892 -14.626  0.00  0.00    +0.000 C 
ATOM      8  C   UNL     1      32.647 -23.815 -14.568  0.00  0.00    +0.003 C 
ATOM      9  C   UNL     1      33.183 -22.930 -16.749  0.00  0.00    +0.149 C 
ATOM     10  C   UNL     1      36.633 -23.239 -13.332  0.00  0.00    +0.003 C 
ATOM     11  C   UNL     1      32.256 -23.468 -15.861  0.00  0.00    +0.038 C 
BRANCH   6  14
ATOM     12  N   UNL     1      37.211 -23.531 -10.485  0.00  0.00    -0.343 N 
ATOM     13  N   UNL     1      35.446 -25.062 -10.431  0.00  0.00    -0.285 NA
ATOM     14  C   UNL     1      36.116 -24.138 -11.097  0.00  0.00    +0.117 C 
ATOM     15  H   UNL     1      37.470 -23.791  -9.571  0.00  0.00    +0.144 HD
ATOM     16  H   UNL     1      37.724 -22.842 -10.965  0.00  0.00    +0.144 HD
ATOM     17  H   UNL     1      35.722 -25.308  -9.518  0.00  0.00    +0.188 HD
ENDBRANCH   6  14
ENDBRANCH   1   9
BRANCH   1  19
ATOM     18  O   UNL     1      34.037 -24.014 -19.379  0.00  0.00    -0.244 OA
ATOM     19  C   UNL     1      33.741 -22.891 -18.998  0.00  0.00    +0.346 C 
BRANCH  19  20
ATOM     20  C   UNL     1      34.350 -21.657 -19.555  0.00  0.00    +0.076 C 
ATOM     21  C   UNL     1      35.719 -21.498 -19.485  0.00  0.00    +0.008 C 
ATOM     22  C   UNL     1      33.528 -20.709 -20.129  0.00  0.00    +0.008 C 
ATOM     23  C   UNL     1      35.482 -19.366 -20.597  0.00  0.00    +0.084 C 
ATOM     24  C   UNL     1      36.290 -20.340 -20.011  0.00  0.00    +0.019 C 
ATOM     25  C   UNL     1      34.100 -19.550 -20.655  0.00  0.00    +0.019 C 
BRANCH  23  26
ATOM     26  N   UNL     1      36.055 -18.205 -21.123  0.00  0.00    -0.214 NA
BRANCH  26  29
ATOM     27  N   UNL     1      36.351 -18.414 -23.430  0.00  0.00    -0.370 N 
ATOM     28  N   UNL     1      38.234 -18.322 -22.146  0.00  0.00    -0.370 N 
ATOM     29  C   UNL     1      36.857 -18.306 -22.156  0.00  0.00    +0.193 C 
ATOM     30  H   UNL     1      35.377 -18.414 -23.575  0.00  0.00    +0.159 HD
ATOM     31  H   UNL     1      36.963 -18.489 -24.199  0.00  0.00    +0.159 HD
ATOM     32  H   UNL     1      38.720 -18.252 -21.293  0.00  0.00    +0.159 HD
ATOM     33  H   UNL     1      38.733 -18.403 -22.992  0.00  0.00    +0.159 HD
ENDBRANCH  26  29
ENDBRANCH  23  26
ENDBRANCH  19  20
ENDBRANCH   1  19
TORSDOF 6
ENDMDL
MODEL 2
REMARK VINA RESULT:     -11.1      5.060      7.770
REMARK  Name = 4413
REMARK  6 active torsions:
REMARK  status: ('A' for Active; 'I' for Inactive)
REMARK    1  A    between atoms: O_1  and  C_9
REMARK    2  A    between atoms: O_1  and  C_19
REMARK    3  A    between atoms: C_6  and  C_14
REMARK    4  A    between atoms: C_19  and  C_20
REMARK    5  A    between atoms: C_23  and  N_26
REMARK    6  A    between atoms: N_26  and  C_29
REMARK                            x       y       z     vdW  Elec       q    Type
REMARK                         _______ _______ _______ _____ _____    ______ ____
ROOT
ATOM      1  O   UNL     1      36.334 -17.282 -23.381  0.00  0.00    -0.421 OA
ENDROOT
BRANCH   1   9
ATOM      2  C   UNL     1      35.841 -20.096 -20.344  0.00  0.00    +0.000 C 
ATOM      3  C   UNL     1      34.711 -19.591 -21.031  0.00  0.00    +0.003 C 
ATOM      4  C   UNL     1      35.658 -21.044 -19.324  0.00  0.00    +0.003 C 
ATOM      5  C   UNL     1      34.895 -18.644 -22.051  0.00  0.00    +0.038 C 
ATOM      6  C   UNL     1      34.379 -21.488 -18.986  0.00  0.00    +0.031 C 
ATOM      7  C   UNL     1      33.432 -20.050 -20.679  0.00  0.00    +0.000 C 
ATOM      8  C   UNL     1      37.121 -19.637 -20.697  0.00  0.00    +0.003 C 
ATOM      9  C   UNL     1      36.174 -18.199 -22.389  0.00  0.00    +0.149 C 
ATOM     10  C   UNL     1      33.268 -20.992 -19.662  0.00  0.00    +0.003 C 
ATOM     11  C   UNL     1      37.284 -18.696 -21.713  0.00  0.00    +0.038 C 
BRANCH   6  14
ATOM     12  N   UNL     1      33.009 -23.165 -17.772  0.00  0.00    -0.343 N 
ATOM     13  N   UNL     1      35.197 -22.711 -17.087  0.00  0.00    -0.285 NA
ATOM     14  C   UNL     1      34.207 -22.469 -17.927  0.00  0.00    +0.117 C 
ATOM     15  H   UNL     1      32.915 -23.826 -17.048  0.00  0.00    +0.144 HD
ATOM     16  H   UNL     1      32.259 -22.997 -18.386  0.00  0.00    +0.144 HD
ATOM     17  H   UNL     1      35.082 -23.376 -16.369  0.00  0.00    +0.188 HD
ENDBRANCH   6  14
ENDBRANCH   1   9
BRANCH   1  19
ATOM     18  O   UNL     1      34.604 -17.785 -24.860  0.00  0.00    -0.244 OA
ATOM     19  C   UNL     1      35.172 -17.009 -24.106  0.00  0.00    +0.346 C 
BRANCH  19  20
ATOM     20  C   UNL     1      34.683 -15.632 -23.840  0.00  0.00    +0.076 C 
ATOM     21  C   UNL     1      33.906 -15.004 -24.792  0.00  0.00    +0.008 C 
ATOM     22  C   UNL     1      35.020 -15.024 -22.648  0.00  0.00    +0.008 C 
ATOM     23  C   UNL     1      33.771 -13.075 -23.344  0.00  0.00    +0.084 C 
ATOM     24  C   UNL     1      33.446 -13.712 -24.541  0.00  0.00    +0.019 C 
ATOM     25  C   UNL     1      34.559 -13.731 -22.397  0.00  0.00    +0.019 C 
BRANCH  23  26
ATOM     26  N   UNL     1      33.311 -11.779 -23.092  0.00  0.00    -0.214 NA
BRANCH  26  29
ATOM     27  N   UNL     1      33.169  -9.576 -23.857  0.00  0.00    -0.370 N 
ATOM     28  N   UNL     1      35.018 -10.769 -24.464  0.00  0.00    -0.370 N 
ATOM     29  C   UNL     1      33.826 -10.781 -23.771  0.00  0.00    +0.193 C 
ATOM     30  H   UNL     1      32.304  -9.454 -23.404  0.00  0.00    +0.159 HD
ATOM     31  H   UNL     1      33.566  -8.834 -24.369  0.00  0.00    +0.159 HD
ATOM     32  H   UNL     1      35.585 -11.573 -24.481  0.00  0.00    +0.159 HD
ATOM     33  H   UNL     1      35.303  -9.955 -24.939  0.00  0.00    +0.159 HD
ENDBRANCH  26  29
ENDBRANCH  23  26
ENDBRANCH  19  20
ENDBRANCH   1  19
TORSDOF 6
ENDMDL
MODEL 3
REMARK VINA RESULT:     -11.0      2.250      8.377
REMARK  Name = 4413
REMARK  6 active torsions:
REMARK  status: ('A' for Active; 'I' for Inactive)
REMARK    1  A    between atoms: O_1  and  C_9
REMARK    2  A    between atoms: O_1  and  C_19
REMARK    3  A    between atoms: C_6  and  C_14
REMARK    4  A    between atoms: C_19  and  C_20
REMARK    5  A    between atoms: C_23  and  N_26
REMARK    6  A    between atoms: N_26  and  C_29
REMARK                            x       y       z     vdW  Elec       q    Type
REMARK                         _______ _______ _______ _____ _____    ______ ____
ROOT
ATOM      1  O   UNL     1      34.151 -23.470 -17.735  0.00  0.00    -0.421 OA
ENDROOT
BRANCH   1   9
ATOM      2  C   UNL     1      34.321 -20.147 -20.248  0.00  0.00    +0.000 C 
ATOM      3  C   UNL     1      35.517 -20.742 -19.780  0.00  0.00    +0.003 C 
ATOM      4  C   UNL     1      34.396 -19.029 -21.094  0.00  0.00    +0.003 C 
ATOM      5  C   UNL     1      35.442 -21.860 -18.934  0.00  0.00    +0.038 C 
ATOM      6  C   UNL     1      35.632 -18.505 -21.473  0.00  0.00    +0.031 C 
ATOM      7  C   UNL     1      36.752 -20.202 -20.172  0.00  0.00    +0.000 C 
ATOM      8  C   UNL     1      33.085 -20.688 -19.856  0.00  0.00    +0.003 C 
ATOM      9  C   UNL     1      34.206 -22.385 -18.554  0.00  0.00    +0.149 C 
ATOM     10  C   UNL     1      36.808 -19.090 -21.013  0.00  0.00    +0.003 C 
ATOM     11  C   UNL     1      33.030 -21.800 -19.015  0.00  0.00    +0.038 C 
BRANCH   6  14
ATOM     12  N   UNL     1      35.352 -16.073 -21.894  0.00  0.00    -0.343 N 
ATOM     13  N   UNL     1      36.074 -17.491 -23.607  0.00  0.00    -0.285 NA
ATOM     14  C   UNL     1      35.692 -17.346 -22.350  0.00  0.00    +0.117 C 
ATOM     15  H   UNL     1      35.401 -15.303 -22.505  0.00  0.00    +0.144 HD
ATOM     16  H   UNL     1      35.063 -15.945 -20.962  0.00  0.00    +0.144 HD
ATOM     17  H   UNL     1      36.116 -16.707 -24.202  0.00  0.00    +0.188 HD
ENDBRANCH   6  14
ENDBRANCH   1   9
BRANCH   1  19
ATOM     18  O   UNL     1      33.093 -22.686 -15.813  0.00  0.00    -0.244 OA
ATOM     19  C   UNL     1      34.068 -23.162 -16.375  0.00  0.00    +0.346 C 
BRANCH  19  20
ATOM     20  C   UNL     1      35.330 -23.497 -15.669  0.00  0.00    +0.076 C 
ATOM     21  C   UNL     1      35.447 -24.730 -15.060  0.00  0.00    +0.008 C 
ATOM     22  C   UNL     1      36.348 -22.566 -15.645  0.00  0.00    +0.008 C 
ATOM     23  C   UNL     1      37.678 -24.122 -14.360  0.00  0.00    +0.084 C 
ATOM     24  C   UNL     1      36.634 -25.045 -14.399  0.00  0.00    +0.019 C 
ATOM     25  C   UNL     1      37.535 -22.881 -14.983  0.00  0.00    +0.019 C 
BRANCH  23  26
ATOM     26  N   UNL     1      38.867 -24.436 -13.696  0.00  0.00    -0.214 NA
BRANCH  26  29
ATOM     27  N   UNL     1      40.211 -26.341 -13.552  0.00  0.00    -0.370 N 
ATOM     28  N   UNL     1      40.182 -25.239 -15.550  0.00  0.00    -0.370 N 
ATOM     29  C   UNL     1      39.703 -25.276 -14.258  0.00  0.00    +0.193 C 
ATOM     30  H   UNL     1      39.947 -26.481 -12.614  0.00  0.00    +0.159 HD
ATOM     31  H   UNL     1      40.839 -26.965 -13.985  0.00  0.00    +0.159 HD
ATOM     32  H   UNL     1      39.894 -24.523 -16.160  0.00  0.00    +0.159 HD
ATOM     33  H   UNL     1      40.812 -25.930 -15.862  0.00  0.00    +0.159 HD
ENDBRANCH  26  29
ENDBRANCH  23  26
ENDBRANCH  19  20
ENDBRANCH   1  19
TORSDOF 6
ENDMDL
MODEL 4
REMARK VINA RESULT:     -10.8      4.772     10.593
REMARK  Name = 4413
REMARK  6 active torsions:
REMARK  status: ('A' for Active; 'I' for Inactive)
REMARK    1  A    between atoms: O_1  and  C_9
REMARK    2  A    between atoms: O_1  and  C_19
REMARK    3  A    between atoms: C_6  and  C_14
REMARK    4  A    between atoms: C_19  and  C_20
REMARK    5  A    between atoms: C_23  and  N_26
REMARK    6  A    between atoms: N_26  and  C_29
REMARK                            x       y       z     vdW  Elec       q    Type
REMARK                         _______ _______ _______ _____ _____    ______ ____
ROOT
ATOM      1  O   UNL     1      35.880 -18.933 -22.526  0.00  0.00    -0.421 OA
ENDROOT
BRANCH   1   9
ATOM      2  C   UNL     1      34.733 -15.102 -23.709  0.00  0.00    +0.000 C 
ATOM      3  C   UNL     1      34.911 -15.395 -22.335  0.00  0.00    +0.003 C 
ATOM      4  C   UNL     1      34.347 -13.807 -24.091  0.00  0.00    +0.003 C 
ATOM      5  C   UNL     1      35.297 -16.690 -21.955  0.00  0.00    +0.038 C 
ATOM      6  C   UNL     1      34.140 -12.815 -23.132  0.00  0.00    +0.031 C 
ATOM      7  C   UNL     1      34.699 -14.385 -21.385  0.00  0.00    +0.000 C 
ATOM      8  C   UNL     1      34.946 -16.114 -24.661  0.00  0.00    +0.003 C 
ATOM      9  C   UNL     1      35.504 -17.683 -22.913  0.00  0.00    +0.149 C 
ATOM     10  C   UNL     1      34.315 -13.102 -21.782  0.00  0.00    +0.003 C 
ATOM     11  C   UNL     1      35.329 -17.395 -24.263  0.00  0.00    +0.038 C 
BRANCH   6  14
ATOM     12  N   UNL     1      32.864 -10.715 -22.774  0.00  0.00    -0.343 N 
ATOM     13  N   UNL     1      34.209 -10.968 -24.669  0.00  0.00    -0.285 NA
ATOM     14  C   UNL     1      33.740 -11.478 -23.543  0.00  0.00    +0.117 C 
ATOM     15  H   UNL     1      32.607  -9.812 -23.072  0.00  0.00    +0.144 HD
ATOM     16  H   UNL     1      32.502 -11.078 -21.934  0.00  0.00    +0.144 HD
ATOM     17  H   UNL     1      33.940 -10.064 -24.949  0.00  0.00    +0.188 HD
ENDBRANCH   6  14
ENDBRANCH   1   9
BRANCH   1  19
ATOM     18  O   UNL     1      37.091 -18.389 -20.612  0.00  0.00    -0.244 OA
ATOM     19  C   UNL     1      36.224 -19.039 -21.178  0.00  0.00    +0.346 C 
BRANCH  19  20
ATOM     20  C   UNL     1      35.388 -20.053 -20.486  0.00  0.00    +0.076 C 
ATOM     21  C   UNL     1      36.009 -21.079 -19.805  0.00  0.00    +0.008 C 
ATOM     22  C   UNL     1      34.014 -19.935 -20.545  0.00  0.00    +0.008 C 
ATOM     23  C   UNL     1      33.833 -21.933 -19.197  0.00  0.00    +0.084 C 
ATOM     24  C   UNL     1      35.223 -22.029 -19.154  0.00  0.00    +0.019 C 
ATOM     25  C   UNL     1      33.228 -20.886 -19.893  0.00  0.00    +0.019 C 
BRANCH  23  26
ATOM     26  N   UNL     1      33.045 -22.886 -18.546  0.00  0.00    -0.214 NA
BRANCH  26  29
ATOM     27  N   UNL     1      31.472 -22.341 -16.906  0.00  0.00    -0.370 N 
ATOM     28  N   UNL     1      33.585 -22.829 -16.197  0.00  0.00    -0.370 N 
ATOM     29  C   UNL     1      32.745 -22.703 -17.281  0.00  0.00    +0.193 C 
ATOM     30  H   UNL     1      30.774 -22.218 -17.589  0.00  0.00    +0.159 HD
ATOM     31  H   UNL     1      31.259 -22.206 -15.954  0.00  0.00    +0.159 HD
ATOM     32  H   UNL     1      34.526 -23.084 -16.331  0.00  0.00    +0.159 HD
ATOM     33  H   UNL     1      33.244 -22.665 -15.288  0.00  0.00    +0.159 HD
ENDBRANCH  26  29
ENDBRANCH  23  26
ENDBRANCH  19  20
ENDBRANCH   1  19
TORSDOF 6
ENDMDL
MODEL 5
REMARK VINA RESULT:     -10.7      1.588      8.722
REMARK  Name = 4413
REMARK  6 active torsions:
REMARK  status: ('A' for Active; 'I' for Inactive)
REMARK    1  A    between atoms: O_1  and  C_9
REMARK    2  A    between atoms: O_1  and  C_19
REMARK    3  A    between atoms: C_6  and  C_14
REMARK    4  A    between atoms: C_19  and  C_20
REMARK    5  A    between atoms: C_23  and  N_26
REMARK    6  A    between atoms: N_26  and  C_29
REMARK                            x       y       z     vdW  Elec       q    Type
REMARK                         _______ _______ _______ _____ _____    ______ ____
ROOT
ATOM      1  O   UNL     1      34.384 -23.226 -18.159  0.00  0.00    -0.421 OA
ENDROOT
BRANCH   1   9
ATOM      2  C   UNL     1      34.351 -19.852 -20.609  0.00  0.00    +0.000 C 
ATOM      3  C   UNL     1      35.581 -20.382 -20.151  0.00  0.00    +0.003 C 
ATOM      4  C   UNL     1      34.357 -18.716 -21.434  0.00  0.00    +0.003 C 
ATOM      5  C   UNL     1      35.574 -21.519 -19.327  0.00  0.00    +0.038 C 
ATOM      6  C   UNL     1      35.559 -18.111 -21.803  0.00  0.00    +0.031 C 
ATOM      7  C   UNL     1      36.781 -19.761 -20.533  0.00  0.00    +0.000 C 
ATOM      8  C   UNL     1      33.150 -20.474 -20.228  0.00  0.00    +0.003 C 
ATOM      9  C   UNL     1      34.372 -22.125 -18.957  0.00  0.00    +0.149 C 
ATOM     10  C   UNL     1      36.769 -18.632 -21.353  0.00  0.00    +0.003 C 
ATOM     11  C   UNL     1      33.163 -21.603 -19.408  0.00  0.00    +0.038 C 
BRANCH   6  14
ATOM     12  N   UNL     1      35.817 -17.027 -24.022  0.00  0.00    -0.343 N 
ATOM     13  N   UNL     1      35.284 -15.748 -22.139  0.00  0.00    -0.285 NA
ATOM     14  C   UNL     1      35.549 -16.934 -22.657  0.00  0.00    +0.117 C 
ATOM     15  H   UNL     1      35.804 -16.217 -24.581  0.00  0.00    +0.144 HD
ATOM     16  H   UNL     1      36.019 -17.901 -24.426  0.00  0.00    +0.144 HD
ATOM     17  H   UNL     1      35.277 -14.950 -22.717  0.00  0.00    +0.188 HD
ENDBRANCH   6  14
ENDBRANCH   1   9
BRANCH   1  19
ATOM     18  O   UNL     1      32.822 -22.694 -16.514  0.00  0.00    -0.244 OA
ATOM     19  C   UNL     1      33.958 -22.993 -16.850  0.00  0.00    +0.346 C 
BRANCH  19  20
ATOM     20  C   UNL     1      35.072 -23.164 -15.883  0.00  0.00    +0.076 C 
ATOM     21  C   UNL     1      36.180 -22.351 -15.990  0.00  0.00    +0.008 C 
ATOM     22  C   UNL     1      34.962 -24.132 -14.905  0.00  0.00    +0.008 C 
ATOM     23  C   UNL     1      37.138 -23.480 -14.082  0.00  0.00    +0.084 C 
ATOM     24  C   UNL     1      37.225 -22.511 -15.080  0.00  0.00    +0.019 C 
ATOM     25  C   UNL     1      36.007 -24.292 -13.994  0.00  0.00    +0.019 C 
BRANCH  23  26
ATOM     26  N   UNL     1      38.186 -23.643 -13.170  0.00  0.00    -0.214 NA
BRANCH  26  29
ATOM     27  N   UNL     1      38.082 -24.816 -11.153  0.00  0.00    -0.370 N 
ATOM     28  N   UNL     1      37.438 -22.627 -11.115  0.00  0.00    -0.370 N 
ATOM     29  C   UNL     1      37.911 -23.666 -11.887  0.00  0.00    +0.193 C 
ATOM     30  H   UNL     1      38.417 -25.633 -11.588  0.00  0.00    +0.159 HD
ATOM     31  H   UNL     1      37.873 -24.821 -10.190  0.00  0.00    +0.159 HD
ATOM     32  H   UNL     1      37.273 -21.747 -11.523  0.00  0.00    +0.159 HD
ATOM     33  H   UNL     1      37.268 -22.765 -10.155  0.00  0.00    +0.159 HD
ENDBRANCH  26  29
ENDBRANCH  23  26
ENDBRANCH  19  20
ENDBRANCH   1  19
TORSDOF 6
ENDMDL
MODEL 6
REMARK VINA RESULT:     -10.7      2.775      4.441
REMARK  Name = 4413
REMARK  6 active torsions:
REMARK  status: ('A' for Active; 'I' for Inactive)
REMARK    1  A    between atoms: O_1  and  C_9
REMARK    2  A    between atoms: O_1  and  C_19
REMARK    3  A    between atoms: C_6  and  C_14
REMARK    4  A    between atoms: C_19  and  C_20
REMARK    5  A    between atoms: C_23  and  N_26
REMARK    6  A    between atoms: N_26  and  C_29
REMARK                            x       y       z     vdW  Elec       q    Type
REMARK                         _______ _______ _______ _____ _____    ______ ____
ROOT
ATOM      1  O   UNL     1      35.250 -20.778 -20.672  0.00  0.00    -0.421 OA
ENDROOT
BRANCH   1   9
ATOM      2  C   UNL     1      34.709 -22.453 -16.892  0.00  0.00    +0.000 C 
ATOM      3  C   UNL     1      33.590 -22.213 -17.726  0.00  0.00    +0.003 C 
ATOM      4  C   UNL     1      34.509 -23.018 -15.622  0.00  0.00    +0.003 C 
ATOM      5  C   UNL     1      33.791 -21.648 -18.996  0.00  0.00    +0.038 C 
ATOM      6  C   UNL     1      33.226 -23.342 -15.181  0.00  0.00    +0.031 C 
ATOM      7  C   UNL     1      32.307 -22.546 -17.267  0.00  0.00    +0.000 C 
ATOM      8  C   UNL     1      35.993 -22.120 -17.352  0.00  0.00    +0.003 C 
ATOM      9  C   UNL     1      35.074 -21.323 -19.438  0.00  0.00    +0.149 C 
ATOM     10  C   UNL     1      32.126 -23.106 -16.001  0.00  0.00    +0.003 C 
ATOM     11  C   UNL     1      36.173 -21.559 -18.617  0.00  0.00    +0.038 C 
BRANCH   6  14
ATOM     12  N   UNL     1      32.692 -25.268 -13.707  0.00  0.00    -0.343 N 
ATOM     13  N   UNL     1      33.186 -23.178 -12.784  0.00  0.00    -0.285 NA
ATOM     14  C   UNL     1      33.036 -23.926 -13.863  0.00  0.00    +0.117 C 
ATOM     15  H   UNL     1      32.569 -25.642 -12.805  0.00  0.00    +0.144 HD
ATOM     16  H   UNL     1      32.573 -25.841 -14.498  0.00  0.00    +0.144 HD
ATOM     17  H   UNL     1      33.058 -23.572 -11.890  0.00  0.00    +0.188 HD
ENDBRANCH   6  14
ENDBRANCH   1   9
BRANCH   1  19
ATOM     18  O   UNL     1      36.928 -19.373 -19.872  0.00  0.00    -0.244 OA
ATOM     19  C   UNL     1      36.058 -19.639 -20.688  0.00  0.00    +0.346 C 
BRANCH  19  20
ATOM     20  C   UNL     1      35.740 -18.769 -21.849  0.00  0.00    +0.076 C 
ATOM     21  C   UNL     1      35.254 -19.348 -23.003  0.00  0.00    +0.008 C 
ATOM     22  C   UNL     1      35.937 -17.408 -21.735  0.00  0.00    +0.008 C 
ATOM     23  C   UNL     1      35.143 -17.152 -24.003  0.00  0.00    +0.084 C 
ATOM     24  C   UNL     1      34.953 -18.530 -24.092  0.00  0.00    +0.019 C 
ATOM     25  C   UNL     1      35.636 -16.590 -22.825  0.00  0.00    +0.019 C 
BRANCH  23  26
ATOM     26  N   UNL     1      34.843 -16.332 -25.095  0.00  0.00    -0.214 NA
BRANCH  26  29
ATOM     27  N   UNL     1      32.653 -16.068 -25.863  0.00  0.00    -0.370 N 
ATOM     28  N   UNL     1      33.425 -14.520 -24.375  0.00  0.00    -0.370 N 
ATOM     29  C   UNL     1      33.716 -15.660 -25.091  0.00  0.00    +0.193 C 
ATOM     30  H   UNL     1      32.731 -16.872 -26.424  0.00  0.00    +0.159 HD
ATOM     31  H   UNL     1      31.811 -15.555 -25.852  0.00  0.00    +0.159 HD
ATOM     32  H   UNL     1      34.105 -14.125 -23.782  0.00  0.00    +0.159 HD
ATOM     33  H   UNL     1      32.537 -14.101 -24.454  0.00  0.00    +0.159 HD
ENDBRANCH  26  29
ENDBRANCH  23  26
ENDBRANCH  19  20
ENDBRANCH   1  19
TORSDOF 6
ENDMDL
MODEL 7
REMARK VINA RESULT:     -10.7      4.120      6.139
REMARK  Name = 4413
REMARK  6 active torsions:
REMARK  status: ('A' for Active; 'I' for Inactive)
REMARK    1  A    between atoms: O_1  and  C_9
REMARK    2  A    between atoms: O_1  and  C_19
REMARK    3  A    between atoms: C_6  and  C_14
REMARK    4  A    between atoms: C_19  and  C_20
REMARK    5  A    between atoms: C_23  and  N_26
REMARK    6  A    between atoms: N_26  and  C_29
REMARK                            x       y       z     vdW  Elec       q    Type
REMARK                         _______ _______ _______ _____ _____    ______ ____
ROOT
ATOM      1  O   UNL     1      36.045 -18.795 -22.255  0.00  0.00    -0.421 OA
ENDROOT
BRANCH   1   9
ATOM      2  C   UNL     1      34.056 -21.055 -19.370  0.00  0.00    +0.000 C 
ATOM      3  C   UNL     1      35.469 -20.972 -19.353  0.00  0.00    +0.003 C 
ATOM      4  C   UNL     1      33.401 -21.821 -18.391  0.00  0.00    +0.003 C 
ATOM      5  C   UNL     1      36.123 -20.206 -20.332  0.00  0.00    +0.038 C 
ATOM      6  C   UNL     1      34.129 -22.493 -17.409  0.00  0.00    +0.031 C 
ATOM      7  C   UNL     1      36.185 -21.655 -18.358  0.00  0.00    +0.000 C 
ATOM      8  C   UNL     1      33.339 -20.372 -20.366  0.00  0.00    +0.003 C 
ATOM      9  C   UNL     1      35.395 -19.533 -21.314  0.00  0.00    +0.149 C 
ATOM     10  C   UNL     1      35.518 -22.411 -17.392  0.00  0.00    +0.003 C 
ATOM     11  C   UNL     1      34.006 -19.616 -21.330  0.00  0.00    +0.038 C 
BRANCH   6  14
ATOM     12  N   UNL     1      34.137 -24.004 -15.438  0.00  0.00    -0.343 N 
ATOM     13  N   UNL     1      32.115 -23.325 -16.395  0.00  0.00    -0.285 NA
ATOM     14  C   UNL     1      33.436 -23.282 -16.403  0.00  0.00    +0.117 C 
ATOM     15  H   UNL     1      33.647 -24.530 -14.766  0.00  0.00    +0.144 HD
ATOM     16  H   UNL     1      35.121 -23.987 -15.429  0.00  0.00    +0.144 HD
ATOM     17  H   UNL     1      31.645 -23.858 -15.714  0.00  0.00    +0.188 HD
ENDBRANCH   6  14
ENDBRANCH   1   9
BRANCH   1  19
ATOM     18  O   UNL     1      35.178 -19.677 -24.229  0.00  0.00    -0.244 OA
ATOM     19  C   UNL     1      35.393 -18.730 -23.487  0.00  0.00    +0.346 C 
BRANCH  19  20
ATOM     20  C   UNL     1      34.968 -17.341 -23.799  0.00  0.00    +0.076 C 
ATOM     21  C   UNL     1      35.508 -16.299 -23.075  0.00  0.00    +0.008 C 
ATOM     22  C   UNL     1      34.048 -17.137 -24.807  0.00  0.00    +0.008 C 
ATOM     23  C   UNL     1      34.182 -14.762 -24.384  0.00  0.00    +0.084 C 
ATOM     24  C   UNL     1      35.111 -14.996 -23.370  0.00  0.00    +0.019 C 
ATOM     25  C   UNL     1      33.650 -15.832 -25.102  0.00  0.00    +0.019 C 
BRANCH  23  26
ATOM     26  N   UNL     1      33.783 -13.455 -24.679  0.00  0.00    -0.214 NA
BRANCH  26  29
ATOM     27  N   UNL     1      34.669 -11.476 -23.809  0.00  0.00    -0.370 N 
ATOM     28  N   UNL     1      33.065 -12.528 -22.572  0.00  0.00    -0.370 N 
ATOM     29  C   UNL     1      33.816 -12.552 -23.727  0.00  0.00    +0.193 C 
ATOM     30  H   UNL     1      35.262 -11.376 -24.588  0.00  0.00    +0.159 HD
ATOM     31  H   UNL     1      34.685 -10.805 -23.088  0.00  0.00    +0.159 HD
ATOM     32  H   UNL     1      32.414 -13.244 -22.394  0.00  0.00    +0.159 HD
ATOM     33  H   UNL     1      33.178 -11.793 -21.926  0.00  0.00    +0.159 HD
ENDBRANCH  26  29
ENDBRANCH  23  26
ENDBRANCH  19  20
ENDBRANCH   1  19
TORSDOF 6
ENDMDL
MODEL 8
REMARK VINA RESULT:     -10.6      1.952      9.452
REMARK  Name = 4413
REMARK  6 active torsions:
REMARK  status: ('A' for Active; 'I' for Inactive)
REMARK    1  A    between atoms: O_1  and  C_9
REMARK    2  A    between atoms: O_1  and  C_19
REMARK    3  A    between atoms: C_6  and  C_14
REMARK    4  A    between atoms: C_19  and  C_20
REMARK    5  A    between atoms: C_23  and  N_26
REMARK    6  A    between atoms: N_26  and  C_29
REMARK                            x       y       z     vdW  Elec       q    Type
REMARK                         _______ _______ _______ _____ _____    ______ ____
ROOT
ATOM      1  O   UNL     1      35.729 -22.229 -18.088  0.00  0.00    -0.421 OA
ENDROOT
BRANCH   1   9
ATOM      2  C   UNL     1      34.862 -19.557 -21.169  0.00  0.00    +0.000 C 
ATOM      3  C   UNL     1      36.205 -19.775 -20.779  0.00  0.00    +0.003 C 
ATOM      4  C   UNL     1      34.587 -18.654 -22.209  0.00  0.00    +0.003 C 
ATOM      5  C   UNL     1      36.479 -20.679 -19.739  0.00  0.00    +0.038 C 
ATOM      6  C   UNL     1      35.622 -17.977 -22.855  0.00  0.00    +0.031 C 
ATOM      7  C   UNL     1      37.233 -19.085 -21.440  0.00  0.00    +0.000 C 
ATOM      8  C   UNL     1      33.833 -20.248 -20.508  0.00  0.00    +0.003 C 
ATOM      9  C   UNL     1      35.445 -21.357 -19.092  0.00  0.00    +0.149 C 
ATOM     10  C   UNL     1      36.942 -18.191 -22.471  0.00  0.00    +0.003 C 
ATOM     11  C   UNL     1      34.125 -21.142 -19.477  0.00  0.00    +0.038 C 
BRANCH   6  14
ATOM     12  N   UNL     1      35.714 -15.709 -23.863  0.00  0.00    -0.343 N 
ATOM     13  N   UNL     1      34.658 -17.460 -24.995  0.00  0.00    -0.285 NA
ATOM     14  C   UNL     1      35.321 -17.044 -23.930  0.00  0.00    +0.117 C 
ATOM     15  H   UNL     1      35.500 -15.096 -24.602  0.00  0.00    +0.144 HD
ATOM     16  H   UNL     1      36.206 -15.379 -23.076  0.00  0.00    +0.144 HD
ATOM     17  H   UNL     1      34.454 -16.830 -25.724  0.00  0.00    +0.188 HD
ENDBRANCH   6  14
ENDBRANCH   1   9
BRANCH   1  19
ATOM     18  O   UNL     1      37.193 -20.669 -17.168  0.00  0.00    -0.244 OA
ATOM     19  C   UNL     1      36.562 -21.713 -17.094  0.00  0.00    +0.346 C 
BRANCH  19  20
ATOM     20  C   UNL     1      36.587 -22.594 -15.900  0.00  0.00    +0.076 C 
ATOM     21  C   UNL     1      37.791 -23.126 -15.487  0.00  0.00    +0.008 C 
ATOM     22  C   UNL     1      35.404 -22.852 -15.238  0.00  0.00    +0.008 C 
ATOM     23  C   UNL     1      36.633 -24.228 -13.676  0.00  0.00    +0.084 C 
ATOM     24  C   UNL     1      37.814 -23.952 -14.364  0.00  0.00    +0.019 C 
ATOM     25  C   UNL     1      35.427 -23.679 -14.114  0.00  0.00    +0.019 C 
BRANCH  23  26
ATOM     26  N   UNL     1      36.655 -25.057 -12.551  0.00  0.00    -0.214 NA
BRANCH  26  29
ATOM     27  N   UNL     1      38.029 -24.024 -10.970  0.00  0.00    -0.370 N 
ATOM     28  N   UNL     1      35.847 -24.354 -10.392  0.00  0.00    -0.370 N 
ATOM     29  C   UNL     1      36.807 -24.514 -11.367  0.00  0.00    +0.193 C 
ATOM     30  H   UNL     1      38.802 -24.078 -11.577  0.00  0.00    +0.159 HD
ATOM     31  H   UNL     1      38.132 -23.618 -10.078  0.00  0.00    +0.159 HD
ATOM     32  H   UNL     1      34.927 -24.664 -10.552  0.00  0.00    +0.159 HD
ATOM     33  H   UNL     1      36.081 -23.928  -9.535  0.00  0.00    +0.159 HD
ENDBRANCH  26  29
ENDBRANCH  23  26
ENDBRANCH  19  20
ENDBRANCH   1  19
TORSDOF 6
ENDMDL
MODEL 9
REMARK VINA RESULT:     -10.6      2.870      9.141
REMARK  Name = 4413
REMARK  6 active torsions:
REMARK  status: ('A' for Active; 'I' for Inactive)
REMARK    1  A    between atoms: O_1  and  C_9
REMARK    2  A    between atoms: O_1  and  C_19
REMARK    3  A    between atoms: C_6  and  C_14
REMARK    4  A    between atoms: C_19  and  C_20
REMARK    5  A    between atoms: C_23  and  N_26
REMARK    6  A    between atoms: N_26  and  C_29
REMARK                            x       y       z     vdW  Elec       q    Type
REMARK                         _______ _______ _______ _____ _____    ______ ____
ROOT
ATOM      1  O   UNL     1      35.052 -22.763 -18.303  0.00  0.00    -0.421 OA
ENDROOT
BRANCH   1   9
ATOM      2  C   UNL     1      34.693 -19.573 -20.965  0.00  0.00    +0.000 C 
ATOM      3  C   UNL     1      35.975 -20.006 -20.548  0.00  0.00    +0.003 C 
ATOM      4  C   UNL     1      34.589 -18.497 -21.861  0.00  0.00    +0.003 C 
ATOM      5  C   UNL     1      36.078 -21.082 -19.651  0.00  0.00    +0.038 C 
ATOM      6  C   UNL     1      35.733 -17.858 -22.341  0.00  0.00    +0.031 C 
ATOM      7  C   UNL     1      37.114 -19.352 -21.041  0.00  0.00    +0.000 C 
ATOM      8  C   UNL     1      33.552 -20.228 -20.471  0.00  0.00    +0.003 C 
ATOM      9  C   UNL     1      34.934 -21.721 -19.170  0.00  0.00    +0.149 C 
ATOM     10  C   UNL     1      36.993 -18.284 -21.932  0.00  0.00    +0.003 C 
ATOM     11  C   UNL     1      33.675 -21.295 -19.580  0.00  0.00    +0.038 C 
BRANCH   6  14
ATOM     12  N   UNL     1      35.390 -16.957 -24.630  0.00  0.00    -0.343 N 
ATOM     13  N   UNL     1      35.706 -15.505 -22.825  0.00  0.00    -0.285 NA
ATOM     14  C   UNL     1      35.609 -16.746 -23.269  0.00  0.00    +0.117 C 
ATOM     15  H   UNL     1      35.309 -16.189 -25.239  0.00  0.00    +0.144 HD
ATOM     16  H   UNL     1      35.317 -17.874 -24.980  0.00  0.00    +0.144 HD
ATOM     17  H   UNL     1      35.622 -14.750 -23.453  0.00  0.00    +0.188 HD
ENDBRANCH   6  14
ENDBRANCH   1   9
BRANCH   1  19
ATOM     18  O   UNL     1      36.169 -21.812 -16.493  0.00  0.00    -0.244 OA
ATOM     19  C   UNL     1      35.199 -22.386 -16.967  0.00  0.00    +0.346 C 
BRANCH  19  20
ATOM     20  C   UNL     1      34.007 -22.762 -16.166  0.00  0.00    +0.076 C 
ATOM     21  C   UNL     1      32.774 -22.805 -16.785  0.00  0.00    +0.008 C 
ATOM     22  C   UNL     1      34.169 -23.058 -14.828  0.00  0.00    +0.008 C 
ATOM     23  C   UNL     1      31.792 -23.466 -14.679  0.00  0.00    +0.084 C 
ATOM     24  C   UNL     1      31.655 -23.161 -16.033  0.00  0.00    +0.019 C 
ATOM     25  C   UNL     1      33.049 -23.414 -14.076  0.00  0.00    +0.019 C 
BRANCH  23  26
ATOM     26  N   UNL     1      30.670 -23.820 -13.925  0.00  0.00    -0.214 NA
BRANCH  26  29
ATOM     27  N   UNL     1      29.778 -25.934 -14.367  0.00  0.00    -0.370 N 
ATOM     28  N   UNL     1      28.659 -24.136 -15.217  0.00  0.00    -0.370 N 
ATOM     29  C   UNL     1      29.742 -24.564 -14.480  0.00  0.00    +0.193 C 
ATOM     30  H   UNL     1      30.504 -26.367 -13.863  0.00  0.00    +0.159 HD
ATOM     31  H   UNL     1      29.076 -26.482 -14.788  0.00  0.00    +0.159 HD
ATOM     32  H   UNL     1      28.519 -23.174 -15.372  0.00  0.00    +0.159 HD
ATOM     33  H   UNL     1      28.024 -24.792 -15.587  0.00  0.00    +0.159 HD
ENDBRANCH  26  29
ENDBRANCH  23  26
ENDBRANCH  19  20
ENDBRANCH   1  19
TORSDOF 6
ENDMDL
