MODEL 1
REMARK VINA RESULT:     -13.0      0.000      0.000
REMARK  Name = 71351
REMARK  4 active torsions:
REMARK  status: ('A' for Active; 'I' for Inactive)
REMARK    1  A    between atoms: N_1  and  C_18
REMARK    2  A    between atoms: C_2  and  C_11
REMARK    3  A    between atoms: C_18  and  C_19
REMARK    4  A    between atoms: C_19  and  C_23
REMARK                            x       y       z     vdW  Elec       q    Type
REMARK                         _______ _______ _______ _____ _____    ______ ____
ROOT
ATOM      1  N   UNL     1      36.102 -19.509 -20.142  0.00  0.00    +0.387 N 
ATOM      2  C   UNL     1      35.523 -18.360 -22.778  0.00  0.00    +0.039 C 
ATOM      3  C   UNL     1      36.723 -17.911 -21.928  0.00  0.00    -0.017 C 
ATOM      4  C   UNL     1      34.425 -18.935 -21.869  0.00  0.00    -0.017 C 
ATOM      5  C   UNL     1      37.196 -19.033 -20.999  0.00  0.00    -0.077 C 
ATOM      6  C   UNL     1      34.983 -20.020 -20.943  0.00  0.00    -0.077 C 
ATOM      7  H   UNL     1      35.762 -18.716 -19.596  0.00  0.00    -0.080 HD
ENDROOT
BRANCH   2  11
ATOM      8  F   UNL     1      33.839 -11.918 -23.720  0.00  0.00    -0.204 F 
ATOM      9  O   UNL     1      34.274 -16.363 -25.505  0.00  0.00    -0.354 OA
ATOM     10  N   UNL     1      34.702 -17.563 -24.950  0.00  0.00    -0.081 NA
ATOM     11  C   UNL     1      35.012 -17.268 -23.690  0.00  0.00    +0.100 A 
ATOM     12  C   UNL     1      34.811 -15.915 -23.376  0.00  0.00    +0.054 A 
ATOM     13  C   UNL     1      34.341 -15.381 -24.564  0.00  0.00    +0.179 A 
ATOM     14  C   UNL     1      34.959 -15.076 -22.263  0.00  0.00    +0.007 C 
ATOM     15  C   UNL     1      33.997 -14.045 -24.741  0.00  0.00    +0.070 C 
ATOM     16  C   UNL     1      34.622 -13.722 -22.405  0.00  0.00    +0.030 C 
ATOM     17  C   UNL     1      34.151 -13.218 -23.623  0.00  0.00    +0.143 C 
ENDBRANCH   2  11
BRANCH   1  18
ATOM     18  C   UNL     1      36.585 -20.539 -19.222  0.00  0.00    -0.076 C 
BRANCH  18  19
ATOM     19  C   UNL     1      35.742 -21.798 -19.365  0.00  0.00    -0.007 C 
BRANCH  19  23
ATOM     20  O   UNL     1      33.049 -22.372 -19.023  0.00  0.00    -0.274 OA
ATOM     21  N   UNL     1      33.214 -22.836 -16.738  0.00  0.00    -0.211 N 
ATOM     22  N   UNL     1      35.343 -22.734 -15.690  0.00  0.00    -0.395 NA
ATOM     23  C   UNL     1      35.192 -22.227 -18.036  0.00  0.00    +0.123 C 
ATOM     24  C   UNL     1      35.893 -22.377 -16.895  0.00  0.00    +0.097 C 
ATOM     25  C   UNL     1      33.717 -22.481 -17.994  0.00  0.00    +0.241 C 
ATOM     26  C   UNL     1      34.063 -22.947 -15.630  0.00  0.00    +0.188 C 
ATOM     27  C   UNL     1      37.386 -22.189 -16.823  0.00  0.00    +0.062 C 
ATOM     28  C   UNL     1      33.435 -23.337 -14.318  0.00  0.00    +0.023 C 
ATOM     29  C   UNL     1      31.851 -23.080 -16.612  0.00  0.00    +0.074 C 
ATOM     30  C   UNL     1      32.113 -23.556 -14.275  0.00  0.00    +0.001 C 
ATOM     31  C   UNL     1      31.296 -23.426 -15.447  0.00  0.00    +0.016 C 
ATOM     32  C   UNL     1      34.320 -23.463 -13.116  0.00  0.00    +0.035 C 
ENDBRANCH  19  23
ENDBRANCH  18  19
ENDBRANCH   1  18
TORSDOF 4
ENDMDL
MODEL 2
REMARK VINA RESULT:     -12.6      1.056      2.017
REMARK  Name = 71351
REMARK  4 active torsions:
REMARK  status: ('A' for Active; 'I' for Inactive)
REMARK    1  A    between atoms: N_1  and  C_18
REMARK    2  A    between atoms: C_2  and  C_11
REMARK    3  A    between atoms: C_18  and  C_19
REMARK    4  A    between atoms: C_19  and  C_23
REMARK                            x       y       z     vdW  Elec       q    Type
REMARK                         _______ _______ _______ _____ _____    ______ ____
ROOT
ATOM      1  N   UNL     1      35.948 -19.416 -20.289  0.00  0.00    +0.387 N 
ATOM      2  C   UNL     1      35.685 -17.991 -22.840  0.00  0.00    +0.039 C 
ATOM      3  C   UNL     1      36.468 -17.414 -21.649  0.00  0.00    -0.017 C 
ATOM      4  C   UNL     1      34.624 -18.984 -22.335  0.00  0.00    -0.017 C 
ATOM      5  C   UNL     1      37.021 -18.528 -20.756  0.00  0.00    -0.077 C 
ATOM      6  C   UNL     1      35.245 -20.040 -21.418  0.00  0.00    -0.077 C 
ATOM      7  H   UNL     1      35.273 -18.850 -19.773  0.00  0.00    -0.080 HD
ENDROOT
BRANCH   2  11
ATOM      8  F   UNL     1      33.506 -11.679 -23.635  0.00  0.00    -0.204 F 
ATOM      9  O   UNL     1      34.320 -16.023 -25.532  0.00  0.00    -0.354 OA
ATOM     10  N   UNL     1      34.834 -17.201 -25.003  0.00  0.00    -0.081 NA
ATOM     11  C   UNL     1      35.102 -16.918 -23.730  0.00  0.00    +0.100 A 
ATOM     12  C   UNL     1      34.789 -15.595 -23.384  0.00  0.00    +0.054 A 
ATOM     13  C   UNL     1      34.295 -15.066 -24.564  0.00  0.00    +0.179 A 
ATOM     14  C   UNL     1      34.853 -14.778 -22.245  0.00  0.00    +0.007 C 
ATOM     15  C   UNL     1      33.848 -13.757 -24.711  0.00  0.00    +0.070 C 
ATOM     16  C   UNL     1      34.411 -13.452 -22.357  0.00  0.00    +0.030 C 
ATOM     17  C   UNL     1      33.919 -12.953 -23.568  0.00  0.00    +0.143 C 
ENDBRANCH   2  11
BRANCH   1  18
ATOM     18  C   UNL     1      36.485 -20.439 -19.391  0.00  0.00    -0.076 C 
BRANCH  18  19
ATOM     19  C   UNL     1      35.786 -21.768 -19.644  0.00  0.00    -0.007 C 
BRANCH  19  23
ATOM     20  O   UNL     1      36.400 -22.693 -17.102  0.00  0.00    -0.274 OA
ATOM     21  N   UNL     1      34.184 -22.802 -16.368  0.00  0.00    -0.211 N 
ATOM     22  N   UNL     1      32.447 -22.109 -17.833  0.00  0.00    -0.395 NA
ATOM     23  C   UNL     1      34.719 -22.014 -18.618  0.00  0.00    +0.123 C 
ATOM     24  C   UNL     1      33.395 -21.833 -18.787  0.00  0.00    +0.097 C 
ATOM     25  C   UNL     1      35.195 -22.535 -17.297  0.00  0.00    +0.241 C 
ATOM     26  C   UNL     1      32.839 -22.573 -16.685  0.00  0.00    +0.188 C 
ATOM     27  C   UNL     1      32.801 -21.277 -20.055  0.00  0.00    +0.062 C 
ATOM     28  C   UNL     1      31.819 -22.886 -15.623  0.00  0.00    +0.023 C 
ATOM     29  C   UNL     1      34.541 -23.298 -15.120  0.00  0.00    +0.074 C 
ATOM     30  C   UNL     1      32.241 -23.362 -14.442  0.00  0.00    +0.001 C 
ATOM     31  C   UNL     1      33.635 -23.575 -14.178  0.00  0.00    +0.016 C 
ATOM     32  C   UNL     1      30.373 -22.652 -15.935  0.00  0.00    +0.035 C 
ENDBRANCH  19  23
ENDBRANCH  18  19
ENDBRANCH   1  18
TORSDOF 4
ENDMDL
MODEL 3
REMARK VINA RESULT:     -12.5      3.414     10.337
REMARK  Name = 71351
REMARK  4 active torsions:
REMARK  status: ('A' for Active; 'I' for Inactive)
REMARK    1  A    between atoms: N_1  and  C_18
REMARK    2  A    between atoms: C_2  and  C_11
REMARK    3  A    between atoms: C_18  and  C_19
REMARK    4  A    between atoms: C_19  and  C_23
REMARK                            x       y       z     vdW  Elec       q    Type
REMARK                         _______ _______ _______ _____ _____    ______ ____
ROOT
ATOM      1  N   UNL     1      34.514 -20.091 -20.386  0.00  0.00    +0.387 N 
ATOM      2  C   UNL     1      34.307 -22.242 -18.402  0.00  0.00    +0.039 C 
ATOM      3  C   UNL     1      33.134 -21.301 -18.725  0.00  0.00    -0.017 C 
ATOM      4  C   UNL     1      35.639 -21.548 -18.730  0.00  0.00    -0.017 C 
ATOM      5  C   UNL     1      33.230 -20.766 -20.156  0.00  0.00    -0.077 C 
ATOM      6  C   UNL     1      35.642 -21.004 -20.162  0.00  0.00    -0.077 C 
ATOM      7  H   UNL     1      34.591 -19.325 -19.715  0.00  0.00    -0.080 HD
ENDROOT
BRANCH   2  11
ATOM      8  F   UNL     1      30.714 -23.990 -12.992  0.00  0.00    -0.204 F 
ATOM      9  O   UNL     1      35.007 -23.535 -15.112  0.00  0.00    -0.354 OA
ATOM     10  N   UNL     1      35.394 -23.093 -16.371  0.00  0.00    -0.081 NA
ATOM     11  C   UNL     1      34.259 -22.770 -16.986  0.00  0.00    +0.100 A 
ATOM     12  C   UNL     1      33.123 -22.979 -16.188  0.00  0.00    +0.054 A 
ATOM     13  C   UNL     1      33.652 -23.467 -15.006  0.00  0.00    +0.179 A 
ATOM     14  C   UNL     1      31.734 -22.824 -16.301  0.00  0.00    +0.007 C 
ATOM     15  C   UNL     1      32.893 -23.824 -13.896  0.00  0.00    +0.070 C 
ATOM     16  C   UNL     1      30.938 -23.175 -15.202  0.00  0.00    +0.030 C 
ATOM     17  C   UNL     1      31.509 -23.666 -14.022  0.00  0.00    +0.143 C 
ENDBRANCH   2  11
BRANCH   1  18
ATOM     18  C   UNL     1      34.565 -19.536 -21.739  0.00  0.00    -0.076 C 
BRANCH  18  19
ATOM     19  C   UNL     1      35.688 -18.513 -21.836  0.00  0.00    -0.007 C 
BRANCH  19  23
ATOM     20  O   UNL     1      35.322 -16.087 -20.542  0.00  0.00    -0.274 OA
ATOM     21  N   UNL     1      34.588 -14.936 -22.440  0.00  0.00    -0.211 N 
ATOM     22  N   UNL     1      34.501 -16.078 -24.521  0.00  0.00    -0.395 NA
ATOM     23  C   UNL     1      35.233 -17.289 -22.575  0.00  0.00    +0.123 C 
ATOM     24  C   UNL     1      34.954 -17.211 -23.891  0.00  0.00    +0.097 C 
ATOM     25  C   UNL     1      35.056 -16.055 -21.744  0.00  0.00    +0.241 C 
ATOM     26  C   UNL     1      34.330 -15.002 -23.814  0.00  0.00    +0.188 C 
ATOM     27  C   UNL     1      35.131 -18.372 -24.834  0.00  0.00    +0.062 C 
ATOM     28  C   UNL     1      33.831 -13.747 -24.482  0.00  0.00    +0.023 C 
ATOM     29  C   UNL     1      34.388 -13.753 -21.738  0.00  0.00    +0.074 C 
ATOM     30  C   UNL     1      33.663 -12.644 -23.738  0.00  0.00    +0.001 C 
ATOM     31  C   UNL     1      33.947 -12.641 -22.332  0.00  0.00    +0.016 C 
ATOM     32  C   UNL     1      33.545 -13.789 -25.952  0.00  0.00    +0.035 C 
ENDBRANCH  19  23
ENDBRANCH  18  19
ENDBRANCH   1  18
TORSDOF 4
ENDMDL
MODEL 4
REMARK VINA RESULT:     -12.4      4.218     10.573
REMARK  Name = 71351
REMARK  4 active torsions:
REMARK  status: ('A' for Active; 'I' for Inactive)
REMARK    1  A    between atoms: N_1  and  C_18
REMARK    2  A    between atoms: C_2  and  C_11
REMARK    3  A    between atoms: C_18  and  C_19
REMARK    4  A    between atoms: C_19  and  C_23
REMARK                            x       y       z     vdW  Elec       q    Type
REMARK                         _______ _______ _______ _____ _____    ______ ____
ROOT
ATOM      1  N   UNL     1      35.362 -15.224 -23.398  0.00  0.00    +0.387 N 
ATOM      2  C   UNL     1      35.015 -17.701 -21.866  0.00  0.00    +0.039 C 
ATOM      3  C   UNL     1      35.330 -16.353 -21.196  0.00  0.00    -0.017 C 
ATOM      4  C   UNL     1      35.520 -17.693 -23.318  0.00  0.00    -0.017 C 
ATOM      5  C   UNL     1      34.814 -15.182 -22.036  0.00  0.00    -0.077 C 
ATOM      6  C   UNL     1      34.996 -16.473 -24.080  0.00  0.00    -0.077 C 
ATOM      7  H   UNL     1      36.380 -15.190 -23.329  0.00  0.00    -0.080 HD
ENDROOT
BRANCH   2  11
ATOM      8  F   UNL     1      33.794 -23.299 -18.344  0.00  0.00    -0.204 F 
ATOM      9  O   UNL     1      36.983 -20.184 -20.149  0.00  0.00    -0.354 OA
ATOM     10  N   UNL     1      36.845 -19.025 -20.903  0.00  0.00    -0.081 NA
ATOM     11  C   UNL     1      35.533 -18.881 -21.075  0.00  0.00    +0.100 A 
ATOM     12  C   UNL     1      34.784 -19.899 -20.466  0.00  0.00    +0.054 A 
ATOM     13  C   UNL     1      35.752 -20.704 -19.891  0.00  0.00    +0.179 A 
ATOM     14  C   UNL     1      33.433 -20.249 -20.323  0.00  0.00    +0.007 C 
ATOM     15  C   UNL     1      35.481 -21.859 -19.164  0.00  0.00    +0.070 C 
ATOM     16  C   UNL     1      33.123 -21.408 -19.597  0.00  0.00    +0.030 C 
ATOM     17  C   UNL     1      34.130 -22.197 -19.030  0.00  0.00    +0.143 C 
ENDBRANCH   2  11
BRANCH   1  18
ATOM     18  C   UNL     1      34.905 -14.067 -24.169  0.00  0.00    -0.076 C 
BRANCH  18  19
ATOM     19  C   UNL     1      33.441 -13.787 -23.862  0.00  0.00    -0.007 C 
BRANCH  19  23
ATOM     20  O   UNL     1      32.318 -13.289 -21.375  0.00  0.00    -0.274 OA
ATOM     21  N   UNL     1      32.420 -10.961 -21.551  0.00  0.00    -0.211 N 
ATOM     22  N   UNL     1      33.381  -9.991 -23.494  0.00  0.00    -0.395 NA
ATOM     23  C   UNL     1      33.262 -12.389 -23.346  0.00  0.00    +0.123 C 
ATOM     24  C   UNL     1      33.599 -11.253 -23.987  0.00  0.00    +0.097 C 
ATOM     25  C   UNL     1      32.620 -12.271 -21.997  0.00  0.00    +0.241 C 
ATOM     26  C   UNL     1      32.815  -9.868 -22.332  0.00  0.00    +0.188 C 
ATOM     27  C   UNL     1      34.285 -11.246 -25.329  0.00  0.00    +0.062 C 
ATOM     28  C   UNL     1      32.562  -8.494 -21.771  0.00  0.00    +0.023 C 
ATOM     29  C   UNL     1      31.821 -10.765 -20.312  0.00  0.00    +0.074 C 
ATOM     30  C   UNL     1      31.980  -8.385 -20.568  0.00  0.00    +0.001 C 
ATOM     31  C   UNL     1      31.598  -9.545 -19.815  0.00  0.00    +0.016 C 
ATOM     32  C   UNL     1      32.974  -7.306 -22.585  0.00  0.00    +0.035 C 
ENDBRANCH  19  23
ENDBRANCH  18  19
ENDBRANCH   1  18
TORSDOF 4
ENDMDL
MODEL 5
REMARK VINA RESULT:     -11.8      3.442     10.325
REMARK  Name = 71351
REMARK  4 active torsions:
REMARK  status: ('A' for Active; 'I' for Inactive)
REMARK    1  A    between atoms: N_1  and  C_18
REMARK    2  A    between atoms: C_2  and  C_11
REMARK    3  A    between atoms: C_18  and  C_19
REMARK    4  A    between atoms: C_19  and  C_23
REMARK                            x       y       z     vdW  Elec       q    Type
REMARK                         _______ _______ _______ _____ _____    ______ ____
ROOT
ATOM      1  N   UNL     1      34.462 -19.996 -20.501  0.00  0.00    +0.387 N 
ATOM      2  C   UNL     1      34.337 -22.153 -18.516  0.00  0.00    +0.039 C 
ATOM      3  C   UNL     1      33.129 -21.256 -18.838  0.00  0.00    -0.017 C 
ATOM      4  C   UNL     1      35.641 -21.410 -18.846  0.00  0.00    -0.017 C 
ATOM      5  C   UNL     1      33.204 -20.719 -20.269  0.00  0.00    -0.077 C 
ATOM      6  C   UNL     1      35.623 -20.868 -20.278  0.00  0.00    -0.077 C 
ATOM      7  H   UNL     1      34.511 -19.228 -19.831  0.00  0.00    -0.080 HD
ENDROOT
BRANCH   2  11
ATOM      8  F   UNL     1      37.549 -23.422 -12.746  0.00  0.00    -0.204 F 
ATOM      9  O   UNL     1      33.483 -23.559 -15.310  0.00  0.00    -0.354 OA
ATOM     10  N   UNL     1      33.172 -23.164 -16.606  0.00  0.00    -0.081 NA
ATOM     11  C   UNL     1      34.310 -22.682 -17.100  0.00  0.00    +0.100 A 
ATOM     12  C   UNL     1      35.373 -22.736 -16.186  0.00  0.00    +0.054 A 
ATOM     13  C   UNL     1      34.796 -23.301 -15.062  0.00  0.00    +0.179 A 
ATOM     14  C   UNL     1      36.731 -22.388 -16.153  0.00  0.00    +0.007 C 
ATOM     15  C   UNL     1      35.476 -23.558 -13.875  0.00  0.00    +0.070 C 
ATOM     16  C   UNL     1      37.448 -22.632 -14.973  0.00  0.00    +0.030 C 
ATOM     17  C   UNL     1      36.830 -23.205 -13.856  0.00  0.00    +0.143 C 
ENDBRANCH   2  11
BRANCH   1  18
ATOM     18  C   UNL     1      34.491 -19.441 -21.854  0.00  0.00    -0.076 C 
BRANCH  18  19
ATOM     19  C   UNL     1      35.629 -18.438 -21.977  0.00  0.00    -0.007 C 
BRANCH  19  23
ATOM     20  O   UNL     1      35.304 -15.989 -20.717  0.00  0.00    -0.274 OA
ATOM     21  N   UNL     1      34.577 -14.855 -22.627  0.00  0.00    -0.211 N 
ATOM     22  N   UNL     1      34.463 -16.025 -24.690  0.00  0.00    -0.395 NA
ATOM     23  C   UNL     1      35.188 -17.218 -22.732  0.00  0.00    +0.123 C 
ATOM     24  C   UNL     1      34.902 -17.155 -24.047  0.00  0.00    +0.097 C 
ATOM     25  C   UNL     1      35.033 -15.971 -21.918  0.00  0.00    +0.241 C 
ATOM     26  C   UNL     1      34.310 -14.937 -23.999  0.00  0.00    +0.188 C 
ATOM     27  C   UNL     1      35.058 -18.332 -24.974  0.00  0.00    +0.062 C 
ATOM     28  C   UNL     1      33.826 -13.685 -24.682  0.00  0.00    +0.023 C 
ATOM     29  C   UNL     1      34.398 -13.659 -21.941  0.00  0.00    +0.074 C 
ATOM     30  C   UNL     1      33.678 -12.569 -23.953  0.00  0.00    +0.001 C 
ATOM     31  C   UNL     1      33.969 -12.549 -22.549  0.00  0.00    +0.016 C 
ATOM     32  C   UNL     1      33.532 -13.744 -26.149  0.00  0.00    +0.035 C 
ENDBRANCH  19  23
ENDBRANCH  18  19
ENDBRANCH   1  18
TORSDOF 4
ENDMDL
MODEL 6
REMARK VINA RESULT:     -11.6      5.815      9.987
REMARK  Name = 71351
REMARK  4 active torsions:
REMARK  status: ('A' for Active; 'I' for Inactive)
REMARK    1  A    between atoms: N_1  and  C_18
REMARK    2  A    between atoms: C_2  and  C_11
REMARK    3  A    between atoms: C_18  and  C_19
REMARK    4  A    between atoms: C_19  and  C_23
REMARK                            x       y       z     vdW  Elec       q    Type
REMARK                         _______ _______ _______ _____ _____    ______ ____
ROOT
ATOM      1  N   UNL     1      34.399 -11.082 -23.679  0.00  0.00    +0.387 N 
ATOM      2  C   UNL     1      33.208  -8.408 -23.486  0.00  0.00    +0.039 C 
ATOM      3  C   UNL     1      34.672  -8.631 -23.899  0.00  0.00    -0.017 C 
ATOM      4  C   UNL     1      32.718  -9.593 -22.637  0.00  0.00    -0.017 C 
ATOM      5  C   UNL     1      34.859 -10.000 -24.559  0.00  0.00    -0.077 C 
ATOM      6  C   UNL     1      32.977 -10.926 -23.345  0.00  0.00    -0.077 C 
ATOM      7  H   UNL     1      34.934 -11.031 -22.812  0.00  0.00    -0.080 HD
ENDROOT
BRANCH   2  11
ATOM      8  F   UNL     1      31.811  -1.844 -23.923  0.00  0.00    -0.204 F 
ATOM      9  O   UNL     1      32.834  -5.661 -21.183  0.00  0.00    -0.354 OA
ATOM     10  N   UNL     1      33.085  -6.996 -21.481  0.00  0.00    -0.081 NA
ATOM     11  C   UNL     1      32.990  -7.075 -22.806  0.00  0.00    +0.100 A 
ATOM     12  C   UNL     1      32.684  -5.846 -23.410  0.00  0.00    +0.054 A 
ATOM     13  C   UNL     1      32.595  -4.978 -22.336  0.00  0.00    +0.179 A 
ATOM     14  C   UNL     1      32.473  -5.351 -24.706  0.00  0.00    +0.007 C 
ATOM     15  C   UNL     1      32.305  -3.622 -22.445  0.00  0.00    +0.070 C 
ATOM     16  C   UNL     1      32.178  -3.988 -24.853  0.00  0.00    +0.030 C 
ATOM     17  C   UNL     1      32.095  -3.142 -23.742  0.00  0.00    +0.143 C 
ENDBRANCH   2  11
BRANCH   1  18
ATOM     18  C   UNL     1      34.638 -12.385 -24.301  0.00  0.00    -0.076 C 
BRANCH  18  19
ATOM     19  C   UNL     1      33.565 -13.371 -23.865  0.00  0.00    -0.007 C 
BRANCH  19  23
ATOM     20  O   UNL     1      33.657 -15.600 -25.515  0.00  0.00    -0.274 OA
ATOM     21  N   UNL     1      34.674 -16.995 -23.939  0.00  0.00    -0.211 N 
ATOM     22  N   UNL     1      35.250 -16.109 -21.813  0.00  0.00    -0.395 NA
ATOM     23  C   UNL     1      34.180 -14.662 -23.409  0.00  0.00    +0.123 C 
ATOM     24  C   UNL     1      34.733 -14.899 -22.204  0.00  0.00    +0.097 C 
ATOM     25  C   UNL     1      34.138 -15.788 -24.397  0.00  0.00    +0.241 C 
ATOM     26  C   UNL     1      35.212 -17.100 -22.651  0.00  0.00    +0.188 C 
ATOM     27  C   UNL     1      34.868 -13.837 -21.144  0.00  0.00    +0.062 C 
ATOM     28  C   UNL     1      35.770 -18.439 -22.244  0.00  0.00    +0.023 C 
ATOM     29  C   UNL     1      34.665 -18.093 -24.793  0.00  0.00    +0.074 C 
ATOM     30  C   UNL     1      35.725 -19.450 -23.124  0.00  0.00    +0.001 C 
ATOM     31  C   UNL     1      35.160 -19.279 -24.431  0.00  0.00    +0.016 C 
ATOM     32  C   UNL     1      36.351 -18.579 -20.871  0.00  0.00    +0.035 C 
ENDBRANCH  19  23
ENDBRANCH  18  19
ENDBRANCH   1  18
TORSDOF 4
ENDMDL
MODEL 7
REMARK VINA RESULT:     -11.6      4.769     11.662
REMARK  Name = 71351
REMARK  4 active torsions:
REMARK  status: ('A' for Active; 'I' for Inactive)
REMARK    1  A    between atoms: N_1  and  C_18
REMARK    2  A    between atoms: C_2  and  C_11
REMARK    3  A    between atoms: C_18  and  C_19
REMARK    4  A    between atoms: C_19  and  C_23
REMARK                            x       y       z     vdW  Elec       q    Type
REMARK                         _______ _______ _______ _____ _____    ______ ____
ROOT
ATOM      1  N   UNL     1      34.871 -14.086 -23.345  0.00  0.00    +0.387 N 
ATOM      2  C   UNL     1      35.115 -16.800 -22.256  0.00  0.00    +0.039 C 
ATOM      3  C   UNL     1      34.997 -15.557 -21.358  0.00  0.00    -0.017 C 
ATOM      4  C   UNL     1      35.699 -16.403 -23.622  0.00  0.00    -0.017 C 
ATOM      5  C   UNL     1      34.238 -14.431 -22.065  0.00  0.00    -0.077 C 
ATOM      6  C   UNL     1      34.913 -15.246 -24.246  0.00  0.00    -0.077 C 
ATOM      7  H   UNL     1      35.832 -13.801 -23.155  0.00  0.00    -0.080 HD
ENDROOT
BRANCH   2  11
ATOM      8  F   UNL     1      35.108 -22.597 -18.848  0.00  0.00    -0.204 F 
ATOM      9  O   UNL     1      37.599 -19.058 -20.945  0.00  0.00    -0.354 OA
ATOM     10  N   UNL     1      37.213 -17.906 -21.621  0.00  0.00    -0.081 NA
ATOM     11  C   UNL     1      35.882 -17.924 -21.599  0.00  0.00    +0.100 A 
ATOM     12  C   UNL     1      35.359 -19.045 -20.937  0.00  0.00    +0.054 A 
ATOM     13  C   UNL     1      36.491 -19.735 -20.539  0.00  0.00    +0.179 A 
ATOM     14  C   UNL     1      34.096 -19.567 -20.620  0.00  0.00    +0.007 C 
ATOM     15  C   UNL     1      36.471 -20.935 -19.834  0.00  0.00    +0.070 C 
ATOM     16  C   UNL     1      34.038 -20.774 -19.910  0.00  0.00    +0.030 C 
ATOM     17  C   UNL     1      35.205 -21.444 -19.526  0.00  0.00    +0.143 C 
ENDBRANCH   2  11
BRANCH   1  18
ATOM     18  C   UNL     1      34.167 -12.971 -23.979  0.00  0.00    -0.076 C 
BRANCH  18  19
ATOM     19  C   UNL     1      33.056 -12.474 -23.066  0.00  0.00    -0.007 C 
BRANCH  19  23
ATOM     20  O   UNL     1      34.921 -10.948 -24.440  0.00  0.00    -0.274 OA
ATOM     21  N   UNL     1      34.245  -8.905 -23.528  0.00  0.00    -0.211 N 
ATOM     22  N   UNL     1      32.413  -8.864 -22.018  0.00  0.00    -0.395 NA
ATOM     23  C   UNL     1      33.108 -10.981 -22.924  0.00  0.00    +0.123 C 
ATOM     24  C   UNL     1      32.305 -10.226 -22.150  0.00  0.00    +0.097 C 
ATOM     25  C   UNL     1      34.182 -10.290 -23.707  0.00  0.00    +0.241 C 
ATOM     26  C   UNL     1      33.345  -8.249 -22.680  0.00  0.00    +0.188 C 
ATOM     27  C   UNL     1      31.167 -10.802 -21.348  0.00  0.00    +0.062 C 
ATOM     28  C   UNL     1      33.486  -6.755 -22.550  0.00  0.00    +0.023 C 
ATOM     29  C   UNL     1      35.221  -8.190 -24.213  0.00  0.00    +0.074 C 
ATOM     30  C   UNL     1      34.452  -6.135 -23.243  0.00  0.00    +0.001 C 
ATOM     31  C   UNL     1      35.344  -6.865 -24.097  0.00  0.00    +0.016 C 
ATOM     32  C   UNL     1      32.537  -6.027 -21.648  0.00  0.00    +0.035 C 
ENDBRANCH  19  23
ENDBRANCH  18  19
ENDBRANCH   1  18
TORSDOF 4
ENDMDL
MODEL 8
REMARK VINA RESULT:     -11.5      6.035     10.250
REMARK  Name = 71351
REMARK  4 active torsions:
REMARK  status: ('A' for Active; 'I' for Inactive)
REMARK    1  A    between atoms: N_1  and  C_18
REMARK    2  A    between atoms: C_2  and  C_11
REMARK    3  A    between atoms: C_18  and  C_19
REMARK    4  A    between atoms: C_19  and  C_23
REMARK                            x       y       z     vdW  Elec       q    Type
REMARK                         _______ _______ _______ _____ _____    ______ ____
ROOT
ATOM      1  N   UNL     1      32.937 -11.188 -22.327  0.00  0.00    +0.387 N 
ATOM      2  C   UNL     1      31.984  -8.424 -22.569  0.00  0.00    +0.039 C 
ATOM      3  C   UNL     1      33.303  -8.900 -23.200  0.00  0.00    -0.017 C 
ATOM      4  C   UNL     1      31.625  -9.319 -21.372  0.00  0.00    -0.017 C 
ATOM      5  C   UNL     1      33.255 -10.396 -23.523  0.00  0.00    -0.077 C 
ATOM      6  C   UNL     1      31.638 -10.799 -21.763  0.00  0.00    -0.077 C 
ATOM      7  H   UNL     1      33.654 -11.000 -21.625  0.00  0.00    -0.080 HD
ENDROOT
BRANCH   2  11
ATOM      8  F   UNL     1      32.206  -1.993 -24.524  0.00  0.00    -0.204 F 
ATOM      9  O   UNL     1      31.995  -5.204 -20.950  0.00  0.00    -0.354 OA
ATOM     10  N   UNL     1      31.963  -6.594 -20.932  0.00  0.00    -0.081 NA
ATOM     11  C   UNL     1      32.005  -6.955 -22.212  0.00  0.00    +0.100 A 
ATOM     12  C   UNL     1      32.064  -5.862 -23.090  0.00  0.00    +0.054 A 
ATOM     13  C   UNL     1      32.055  -4.771 -22.239  0.00  0.00    +0.179 A 
ATOM     14  C   UNL     1      32.123  -5.646 -24.475  0.00  0.00    +0.007 C 
ATOM     15  C   UNL     1      32.102  -3.446 -22.661  0.00  0.00    +0.070 C 
ATOM     16  C   UNL     1      32.170  -4.322 -24.936  0.00  0.00    +0.030 C 
ATOM     17  C   UNL     1      32.159  -3.244 -24.044  0.00  0.00    +0.143 C 
ENDBRANCH   2  11
BRANCH   1  18
ATOM     18  C   UNL     1      32.953 -12.617 -22.641  0.00  0.00    -0.076 C 
BRANCH  18  19
ATOM     19  C   UNL     1      34.231 -12.969 -23.389  0.00  0.00    -0.007 C 
BRANCH  19  23
ATOM     20  O   UNL     1      35.175 -14.501 -21.278  0.00  0.00    -0.274 OA
ATOM     21  N   UNL     1      35.115 -16.530 -22.436  0.00  0.00    -0.211 N 
ATOM     22  N   UNL     1      34.311 -16.560 -24.671  0.00  0.00    -0.395 NA
ATOM     23  C   UNL     1      34.389 -14.456 -23.506  0.00  0.00    +0.123 C 
ATOM     24  C   UNL     1      34.114 -15.204 -24.592  0.00  0.00    +0.097 C 
ATOM     25  C   UNL     1      34.931 -15.151 -22.294  0.00  0.00    +0.241 C 
ATOM     26  C   UNL     1      34.792 -17.177 -23.635  0.00  0.00    +0.188 C 
ATOM     27  C   UNL     1      33.528 -14.625 -25.854  0.00  0.00    +0.062 C 
ATOM     28  C   UNL     1      35.020 -18.665 -23.696  0.00  0.00    +0.023 C 
ATOM     29  C   UNL     1      35.624 -17.247 -21.359  0.00  0.00    +0.074 C 
ATOM     30  C   UNL     1      35.514 -19.287 -22.616  0.00  0.00    +0.001 C 
ATOM     31  C   UNL     1      35.825 -18.566 -21.416  0.00  0.00    +0.016 C 
ATOM     32  C   UNL     1      34.683 -19.384 -24.967  0.00  0.00    +0.035 C 
ENDBRANCH  19  23
ENDBRANCH  18  19
ENDBRANCH   1  18
TORSDOF 4
ENDMDL
MODEL 9
REMARK VINA RESULT:     -11.5      2.326      3.692
REMARK  Name = 71351
REMARK  4 active torsions:
REMARK  status: ('A' for Active; 'I' for Inactive)
REMARK    1  A    between atoms: N_1  and  C_18
REMARK    2  A    between atoms: C_2  and  C_11
REMARK    3  A    between atoms: C_18  and  C_19
REMARK    4  A    between atoms: C_19  and  C_23
REMARK                            x       y       z     vdW  Elec       q    Type
REMARK                         _______ _______ _______ _____ _____    ______ ____
ROOT
ATOM      1  N   UNL     1      34.915 -17.628 -22.299  0.00  0.00    +0.387 N 
ATOM      2  C   UNL     1      34.943 -14.751 -22.871  0.00  0.00    +0.039 C 
ATOM      3  C   UNL     1      34.874 -15.307 -21.439  0.00  0.00    -0.017 C 
ATOM      4  C   UNL     1      34.379 -15.783 -23.860  0.00  0.00    -0.017 C 
ATOM      5  C   UNL     1      35.526 -16.689 -21.349  0.00  0.00    -0.077 C 
ATOM      6  C   UNL     1      35.050 -17.148 -23.681  0.00  0.00    -0.077 C 
ATOM      7  H   UNL     1      33.919 -17.691 -22.084  0.00  0.00    -0.080 HD
ENDROOT
BRANCH   2  11
ATOM      8  F   UNL     1      30.809 -10.054 -20.405  0.00  0.00    -0.204 F 
ATOM      9  O   UNL     1      33.802 -11.487 -23.887  0.00  0.00    -0.354 OA
ATOM     10  N   UNL     1      34.551 -12.644 -24.069  0.00  0.00    -0.081 NA
ATOM     11  C   UNL     1      34.285 -13.396 -23.004  0.00  0.00    +0.100 A 
ATOM     12  C   UNL     1      33.387 -12.790 -22.112  0.00  0.00    +0.054 A 
ATOM     13  C   UNL     1      33.109 -11.577 -22.718  0.00  0.00    +0.179 A 
ATOM     14  C   UNL     1      32.776 -13.095 -20.887  0.00  0.00    +0.007 C 
ATOM     15  C   UNL     1      32.250 -10.616 -22.194  0.00  0.00    +0.070 C 
ATOM     16  C   UNL     1      31.904 -12.150 -20.328  0.00  0.00    +0.030 C 
ATOM     17  C   UNL     1      31.649 -10.933 -20.971  0.00  0.00    +0.143 C 
ENDBRANCH   2  11
BRANCH   1  18
ATOM     18  C   UNL     1      35.510 -18.957 -22.159  0.00  0.00    -0.076 C 
BRANCH  18  19
ATOM     19  C   UNL     1      34.495 -19.917 -21.554  0.00  0.00    -0.007 C 
BRANCH  19  23
ATOM     20  O   UNL     1      32.911 -21.523 -19.939  0.00  0.00    -0.274 OA
ATOM     21  N   UNL     1      34.548 -21.878 -18.310  0.00  0.00    -0.211 N 
ATOM     22  N   UNL     1      36.704 -20.929 -18.614  0.00  0.00    -0.395 NA
ATOM     23  C   UNL     1      35.026 -20.528 -20.290  0.00  0.00    +0.123 C 
ATOM     24  C   UNL     1      36.271 -20.383 -19.797  0.00  0.00    +0.097 C 
ATOM     25  C   UNL     1      34.051 -21.353 -19.507  0.00  0.00    +0.241 C 
ATOM     26  C   UNL     1      35.869 -21.637 -17.915  0.00  0.00    +0.188 C 
ATOM     27  C   UNL     1      37.349 -19.612 -20.513  0.00  0.00    +0.062 C 
ATOM     28  C   UNL     1      36.320 -22.244 -16.612  0.00  0.00    +0.023 C 
ATOM     29  C   UNL     1      33.703 -22.648 -17.519  0.00  0.00    +0.074 C 
ATOM     30  C   UNL     1      35.446 -22.975 -15.905  0.00  0.00    +0.001 C 
ATOM     31  C   UNL     1      34.104 -23.186 -16.365  0.00  0.00    +0.016 C 
ATOM     32  C   UNL     1      37.729 -22.002 -16.165  0.00  0.00    +0.035 C 
ENDBRANCH  19  23
ENDBRANCH  18  19
ENDBRANCH   1  18
TORSDOF 4
ENDMDL
