MODEL 1
REMARK VINA RESULT:     -12.4      0.000      0.000
REMARK  Name = 59473233
REMARK  3 active torsions:
REMARK  status: ('A' for Active; 'I' for Inactive)
REMARK    1  A    between atoms: N_1  and  C_25
REMARK    2  A    between atoms: C_7  and  C_14
REMARK    3  A    between atoms: C_22  and  N_29
REMARK                            x       y       z     vdW  Elec       q    Type
REMARK                         _______ _______ _______ _____ _____    ______ ____
ROOT
ATOM      1  N   UNL     1      36.989 -22.702 -15.910  0.00  0.00    -0.286 N 
ATOM      2  N   UNL     1      35.547 -23.550 -12.609  0.00  0.00    -0.260 N 
ATOM      3  N   UNL     1      34.812 -23.250 -15.261  0.00  0.00    -0.387 NA
ATOM      4  N   UNL     1      37.676 -23.053 -13.049  0.00  0.00    -0.224 NA
ATOM      5  C   UNL     1      36.076 -23.051 -14.942  0.00  0.00    +0.216 C 
ATOM      6  C   UNL     1      36.475 -23.207 -13.557  0.00  0.00    +0.180 C 
ATOM      7  C   UNL     1      33.895 -23.604 -14.272  0.00  0.00    +0.131 C 
ATOM      8  C   UNL     1      34.230 -23.751 -12.970  0.00  0.00    +0.156 C 
ATOM      9  C   UNL     1      36.199 -23.619 -11.410  0.00  0.00    +0.088 C 
ATOM     10  C   UNL     1      37.510 -23.309 -11.707  0.00  0.00    +0.117 C 
ATOM     11  H   UNL     1      37.918 -22.995 -15.767  0.00  0.00    +0.155 HD
ENDROOT
BRANCH   7  14
ATOM     12  N   UNL     1      29.765 -22.502 -16.856  0.00  0.00    -0.236 N 
ATOM     13  N   UNL     1      28.533 -23.031 -16.940  0.00  0.00    -0.180 NA
ATOM     14  C   UNL     1      32.490 -23.801 -14.693  0.00  0.00    +0.028 C 
ATOM     15  C   UNL     1      30.598 -23.155 -15.989  0.00  0.00    +0.067 C 
ATOM     16  C   UNL     1      31.926 -22.924 -15.626  0.00  0.00    +0.018 C 
ATOM     17  C   UNL     1      29.840 -24.197 -15.467  0.00  0.00    +0.035 C 
ATOM     18  C   UNL     1      31.751 -24.855 -14.152  0.00  0.00    +0.002 C 
ATOM     19  C   UNL     1      30.419 -25.069 -14.530  0.00  0.00    +0.003 C 
ATOM     20  C   UNL     1      28.582 -24.062 -16.094  0.00  0.00    +0.119 C 
ATOM     21  H   UNL     1      30.043 -21.712 -17.373  0.00  0.00    +0.174 HD
ENDBRANCH   7  14
BRANCH   1  25
ATOM     22  C   UNL     1      36.226 -20.532 -19.402  0.00  0.00    +0.048 C 
ATOM     23  C   UNL     1      37.322 -20.205 -18.603  0.00  0.00    +0.016 C 
ATOM     24  C   UNL     1      35.385 -21.582 -19.035  0.00  0.00    +0.016 C 
ATOM     25  C   UNL     1      36.734 -21.978 -17.072  0.00  0.00    +0.050 C 
ATOM     26  C   UNL     1      37.576 -20.929 -17.437  0.00  0.00    +0.016 C 
ATOM     27  C   UNL     1      35.638 -22.305 -17.871  0.00  0.00    +0.016 C 
BRANCH  22  29
ATOM     28  O   UNL     1      35.432 -18.123 -22.755  0.00  0.00    -0.350 OA
ATOM     29  N   UNL     1      35.972 -19.806 -20.570  0.00  0.00    -0.303 N 
ATOM     30  C   UNL     1      36.939 -18.775 -20.971  0.00  0.00    +0.123 C 
ATOM     31  C   UNL     1      34.588 -19.562 -20.994  0.00  0.00    +0.123 C 
ATOM     32  C   UNL     1      36.783 -18.472 -22.456  0.00  0.00    +0.164 C 
ATOM     33  C   UNL     1      34.557 -19.216 -22.478  0.00  0.00    +0.164 C 
ENDBRANCH  22  29
ENDBRANCH   1  25
TORSDOF 3
ENDMDL
MODEL 2
REMARK VINA RESULT:     -10.0      2.561      7.118
REMARK  Name = 59473233
REMARK  3 active torsions:
REMARK  status: ('A' for Active; 'I' for Inactive)
REMARK    1  A    between atoms: N_1  and  C_25
REMARK    2  A    between atoms: C_7  and  C_14
REMARK    3  A    between atoms: C_22  and  N_29
REMARK                            x       y       z     vdW  Elec       q    Type
REMARK                         _______ _______ _______ _____ _____    ______ ____
ROOT
ATOM      1  N   UNL     1      34.098 -23.782 -13.039  0.00  0.00    -0.286 N 
ATOM      2  N   UNL     1      37.637 -24.510 -13.841  0.00  0.00    -0.260 N 
ATOM      3  N   UNL     1      35.521 -22.941 -14.690  0.00  0.00    -0.387 NA
ATOM      4  N   UNL     1      36.425 -25.416 -12.203  0.00  0.00    -0.224 NA
ATOM      5  C   UNL     1      35.325 -23.740 -13.659  0.00  0.00    +0.216 C 
ATOM      6  C   UNL     1      36.426 -24.565 -13.203  0.00  0.00    +0.180 C 
ATOM      7  C   UNL     1      36.769 -22.905 -15.312  0.00  0.00    +0.131 C 
ATOM      8  C   UNL     1      37.815 -23.666 -14.918  0.00  0.00    +0.156 C 
ATOM      9  C   UNL     1      38.470 -25.388 -13.205  0.00  0.00    +0.088 C 
ATOM     10  C   UNL     1      37.700 -25.933 -12.199  0.00  0.00    +0.117 C 
ATOM     11  H   UNL     1      34.098 -23.996 -12.078  0.00  0.00    +0.155 HD
ENDROOT
BRANCH   7  14
ATOM     12  N   UNL     1      35.639 -21.164 -19.856  0.00  0.00    -0.236 N 
ATOM     13  N   UNL     1      36.105 -20.170 -20.630  0.00  0.00    -0.180 NA
ATOM     14  C   UNL     1      36.920 -21.996 -16.470  0.00  0.00    +0.028 C 
ATOM     15  C   UNL     1      36.272 -21.277 -18.647  0.00  0.00    +0.067 C 
ATOM     16  C   UNL     1      36.087 -22.161 -17.582  0.00  0.00    +0.018 C 
ATOM     17  C   UNL     1      37.228 -20.268 -18.639  0.00  0.00    +0.035 C 
ATOM     18  C   UNL     1      37.890 -20.993 -16.436  0.00  0.00    +0.002 C 
ATOM     19  C   UNL     1      38.058 -20.116 -17.515  0.00  0.00    +0.003 C 
ATOM     20  C   UNL     1      37.072 -19.628 -19.887  0.00  0.00    +0.119 C 
ATOM     21  H   UNL     1      34.907 -21.759 -20.135  0.00  0.00    +0.174 HD
ENDBRANCH   7  14
BRANCH   1  25
ATOM     22  C   UNL     1      30.374 -23.088 -14.808  0.00  0.00    +0.048 C 
ATOM     23  C   UNL     1      30.473 -23.927 -13.698  0.00  0.00    +0.016 C 
ATOM     24  C   UNL     1      31.517 -22.482 -15.328  0.00  0.00    +0.016 C 
ATOM     25  C   UNL     1      32.859 -23.552 -13.629  0.00  0.00    +0.050 C 
ATOM     26  C   UNL     1      31.716 -24.159 -13.107  0.00  0.00    +0.016 C 
ATOM     27  C   UNL     1      32.760 -22.714 -14.739  0.00  0.00    +0.016 C 
BRANCH  22  29
ATOM     28  O   UNL     1      26.738 -22.162 -16.704  0.00  0.00    -0.350 OA
ATOM     29  N   UNL     1      29.128 -22.856 -15.399  0.00  0.00    -0.303 N 
ATOM     30  C   UNL     1      29.026 -22.949 -16.862  0.00  0.00    +0.123 C 
ATOM     31  C   UNL     1      28.177 -21.936 -14.765  0.00  0.00    +0.123 C 
ATOM     32  C   UNL     1      27.573 -23.175 -17.263  0.00  0.00    +0.164 C 
ATOM     33  C   UNL     1      26.769 -22.215 -15.279  0.00  0.00    +0.164 C 
ENDBRANCH  22  29
ENDBRANCH   1  25
TORSDOF 3
ENDMDL
