MODEL 1
REMARK VINA RESULT:     -12.1      0.000      0.000
REMARK  Name = 9823454
REMARK  7 active torsions:
REMARK  status: ('A' for Active; 'I' for Inactive)
REMARK    1  A    between atoms: C_1  and  C_4
REMARK    2  A    between atoms: C_1  and  N_8
REMARK    3  A    between atoms: C_1  and  C_23
REMARK    4  A    between atoms: N_3  and  O_6
REMARK    5  A    between atoms: N_8  and  S_10
REMARK    6  A    between atoms: S_10  and  C_13
REMARK    7  A    between atoms: C_23  and  C_24
REMARK                            x       y       z     vdW  Elec       q    Type
REMARK                         _______ _______ _______ _____ _____    ______ ____
ROOT
ATOM      1  C   UNL     1      34.777 -23.991 -13.176  0.00  0.00    +0.158 C 
ENDROOT
BRANCH   1   4
ATOM      2  O   UNL     1      35.359 -24.182 -10.838  0.00  0.00    -0.272 OA
ATOM      3  N   UNL     1      36.488 -25.482 -12.376  0.00  0.00    -0.196 N 
ATOM      4  C   UNL     1      35.555 -24.549 -11.996  0.00  0.00    +0.260 C 
ATOM      5  H   UNL     1      36.611 -25.746 -13.317  0.00  0.00    +0.182 HD
BRANCH   3   6
ATOM      6  O   UNL     1      37.255 -26.037 -11.343  0.00  0.00    -0.295 OA
ATOM      7  H   UNL     1      37.147 -25.505 -10.539  0.00  0.00    +0.241 HD
ENDBRANCH   3   6
ENDBRANCH   1   4
BRANCH   1   8
ATOM      8  N   UNL     1      35.671 -22.989 -13.805  0.00  0.00    -0.172 NA
ATOM      9  H   UNL     1      35.082 -22.209 -14.096  0.00  0.00    +0.149 HD
BRANCH   8  10
ATOM     10  S   UNL     1      36.614 -23.422 -15.149  0.00  0.00    +0.061 S 
ATOM     11  O   UNL     1      36.611 -24.865 -15.296  0.00  0.00    -0.153 OA
ATOM     12  O   UNL     1      37.868 -22.696 -15.093  0.00  0.00    -0.153 OA
BRANCH  10  13
ATOM     13  C   UNL     1      35.681 -22.737 -16.484  0.00  0.00    +0.122 C 
ATOM     14  C   UNL     1      36.333 -21.989 -17.450  0.00  0.00    +0.020 C 
ATOM     15  C   UNL     1      35.606 -21.437 -18.518  0.00  0.00    +0.001 C 
ATOM     16  C   UNL     1      34.320 -22.961 -16.541  0.00  0.00    +0.020 C 
ATOM     17  C   UNL     1      34.209 -21.656 -18.590  0.00  0.00    +0.000 C 
ATOM     18  C   UNL     1      33.582 -22.421 -17.595  0.00  0.00    +0.001 C 
ATOM     19  C   UNL     1      36.234 -20.672 -19.514  0.00  0.00    +0.000 C 
ATOM     20  C   UNL     1      33.482 -21.104 -19.658  0.00  0.00    +0.000 C 
ATOM     21  C   UNL     1      35.496 -20.131 -20.567  0.00  0.00    +0.000 C 
ATOM     22  C   UNL     1      34.124 -20.347 -20.639  0.00  0.00    +0.000 C 
ENDBRANCH  10  13
ENDBRANCH   8  10
ENDBRANCH   1   8
BRANCH   1  23
ATOM     23  C   UNL     1      33.477 -23.313 -12.715  0.00  0.00    +0.053 C 
BRANCH  23  24
ATOM     24  C   UNL     1      32.289 -23.692 -13.534  0.00  0.00    -0.020 C 
ATOM     25  C   UNL     1      31.625 -22.726 -14.292  0.00  0.00    -0.004 C 
ATOM     26  C   UNL     1      30.506 -23.068 -15.068  0.00  0.00    -0.000 C 
ATOM     27  C   UNL     1      31.843 -25.011 -13.542  0.00  0.00    -0.004 C 
ATOM     28  C   UNL     1      30.053 -24.409 -15.076  0.00  0.00    -0.000 C 
ATOM     29  C   UNL     1      30.733 -25.368 -14.308  0.00  0.00    -0.000 C 
ATOM     30  C   UNL     1      29.827 -22.108 -15.835  0.00  0.00    -0.000 C 
ATOM     31  C   UNL     1      28.934 -24.751 -15.852  0.00  0.00    -0.000 C 
ATOM     32  C   UNL     1      28.716 -22.466 -16.601  0.00  0.00    -0.000 C 
ATOM     33  C   UNL     1      28.270 -23.784 -16.608  0.00  0.00    -0.000 C 
ENDBRANCH  23  24
ENDBRANCH   1  23
TORSDOF 7
ENDMDL
MODEL 2
REMARK VINA RESULT:     -11.7      1.531      6.078
REMARK  Name = 9823454
REMARK  7 active torsions:
REMARK  status: ('A' for Active; 'I' for Inactive)
REMARK    1  A    between atoms: C_1  and  C_4
REMARK    2  A    between atoms: C_1  and  N_8
REMARK    3  A    between atoms: C_1  and  C_23
REMARK    4  A    between atoms: N_3  and  O_6
REMARK    5  A    between atoms: N_8  and  S_10
REMARK    6  A    between atoms: S_10  and  C_13
REMARK    7  A    between atoms: C_23  and  C_24
REMARK                            x       y       z     vdW  Elec       q    Type
REMARK                         _______ _______ _______ _____ _____    ______ ____
ROOT
ATOM      1  C   UNL     1      36.066 -22.291 -15.380  0.00  0.00    +0.158 C 
ENDROOT
BRANCH   1   4
ATOM      2  O   UNL     1      37.749 -22.587 -13.671  0.00  0.00    -0.272 OA
ATOM      3  N   UNL     1      38.069 -23.577 -15.731  0.00  0.00    -0.196 N 
ATOM      4  C   UNL     1      37.374 -22.824 -14.817  0.00  0.00    +0.260 C 
ATOM      5  H   UNL     1      37.729 -23.742 -16.641  0.00  0.00    +0.182 HD
BRANCH   3   6
ATOM      6  O   UNL     1      39.294 -24.098 -15.290  0.00  0.00    -0.295 OA
ATOM      7  H   UNL     1      39.214 -24.368 -14.362  0.00  0.00    +0.241 HD
ENDBRANCH   3   6
ENDBRANCH   1   4
BRANCH   1   8
ATOM      8  N   UNL     1      35.073 -22.440 -14.290  0.00  0.00    -0.172 NA
ATOM      9  H   UNL     1      35.425 -21.906 -13.495  0.00  0.00    +0.149 HD
BRANCH   8  10
ATOM     10  S   UNL     1      34.682 -23.987 -13.708  0.00  0.00    +0.061 S 
ATOM     11  O   UNL     1      34.806 -24.005 -12.263  0.00  0.00    -0.153 OA
ATOM     12  O   UNL     1      35.372 -24.976 -14.513  0.00  0.00    -0.153 OA
BRANCH  10  13
ATOM     13  C   UNL     1      32.965 -24.103 -14.108  0.00  0.00    +0.122 C 
ATOM     14  C   UNL     1      32.425 -23.226 -15.034  0.00  0.00    +0.020 C 
ATOM     15  C   UNL     1      31.062 -23.305 -15.363  0.00  0.00    +0.001 C 
ATOM     16  C   UNL     1      32.192 -25.067 -13.491  0.00  0.00    +0.020 C 
ATOM     17  C   UNL     1      30.256 -24.287 -14.739  0.00  0.00    +0.000 C 
ATOM     18  C   UNL     1      30.836 -25.160 -13.806  0.00  0.00    +0.001 C 
ATOM     19  C   UNL     1      30.482 -22.431 -16.297  0.00  0.00    +0.000 C 
ATOM     20  C   UNL     1      28.892 -24.365 -15.067  0.00  0.00    +0.000 C 
ATOM     21  C   UNL     1      29.126 -22.524 -16.611  0.00  0.00    +0.000 C 
ATOM     22  C   UNL     1      28.333 -23.489 -15.998  0.00  0.00    +0.000 C 
ENDBRANCH  10  13
ENDBRANCH   8  10
ENDBRANCH   1   8
BRANCH   1  23
ATOM     23  C   UNL     1      35.617 -23.101 -16.608  0.00  0.00    +0.053 C 
BRANCH  23  24
ATOM     24  C   UNL     1      35.204 -22.248 -17.760  0.00  0.00    -0.020 C 
ATOM     25  C   UNL     1      36.159 -21.506 -18.457  0.00  0.00    -0.004 C 
ATOM     26  C   UNL     1      35.785 -20.699 -19.544  0.00  0.00    -0.000 C 
ATOM     27  C   UNL     1      33.867 -22.193 -18.140  0.00  0.00    -0.004 C 
ATOM     28  C   UNL     1      34.424 -20.644 -19.930  0.00  0.00    -0.000 C 
ATOM     29  C   UNL     1      33.478 -21.397 -19.217  0.00  0.00    -0.000 C 
ATOM     30  C   UNL     1      36.733 -19.946 -20.256  0.00  0.00    -0.000 C 
ATOM     31  C   UNL     1      34.051 -19.837 -21.017  0.00  0.00    -0.000 C 
ATOM     32  C   UNL     1      36.344 -19.149 -21.334  0.00  0.00    -0.000 C 
ATOM     33  C   UNL     1      35.006 -19.094 -21.712  0.00  0.00    -0.000 C 
ENDBRANCH  23  24
ENDBRANCH   1  23
TORSDOF 7
ENDMDL
MODEL 3
REMARK VINA RESULT:     -11.4      0.772      1.569
REMARK  Name = 9823454
REMARK  7 active torsions:
REMARK  status: ('A' for Active; 'I' for Inactive)
REMARK    1  A    between atoms: C_1  and  C_4
REMARK    2  A    between atoms: C_1  and  N_8
REMARK    3  A    between atoms: C_1  and  C_23
REMARK    4  A    between atoms: N_3  and  O_6
REMARK    5  A    between atoms: N_8  and  S_10
REMARK    6  A    between atoms: S_10  and  C_13
REMARK    7  A    between atoms: C_23  and  C_24
REMARK                            x       y       z     vdW  Elec       q    Type
REMARK                         _______ _______ _______ _____ _____    ______ ____
ROOT
ATOM      1  C   UNL     1      34.944 -24.038 -13.108  0.00  0.00    +0.158 C 
ENDROOT
BRANCH   1   4
ATOM      2  O   UNL     1      36.523 -25.511 -12.023  0.00  0.00    -0.272 OA
ATOM      3  N   UNL     1      35.594 -23.783 -10.805  0.00  0.00    -0.196 N 
ATOM      4  C   UNL     1      35.779 -24.535 -11.939  0.00  0.00    +0.260 C 
ATOM      5  H   UNL     1      34.986 -23.008 -10.784  0.00  0.00    +0.182 HD
BRANCH   3   6
ATOM      6  O   UNL     1      36.324 -24.186  -9.678  0.00  0.00    -0.295 OA
ATOM      7  H   UNL     1      35.747 -24.175  -8.899  0.00  0.00    +0.241 HD
ENDBRANCH   3   6
ENDBRANCH   1   4
BRANCH   1   8
ATOM      8  N   UNL     1      35.796 -23.054 -13.817  0.00  0.00    -0.172 NA
ATOM      9  H   UNL     1      35.168 -22.406 -14.291  0.00  0.00    +0.149 HD
BRANCH   8  10
ATOM     10  S   UNL     1      36.919 -23.587 -14.974  0.00  0.00    +0.061 S 
ATOM     11  O   UNL     1      36.710 -24.998 -15.235  0.00  0.00    -0.153 OA
ATOM     12  O   UNL     1      38.235 -23.099 -14.606  0.00  0.00    -0.153 OA
BRANCH  10  13
ATOM     13  C   UNL     1      36.419 -22.687 -16.409  0.00  0.00    +0.122 C 
ATOM     14  C   UNL     1      35.092 -22.725 -16.803  0.00  0.00    +0.020 C 
ATOM     15  C   UNL     1      34.678 -22.015 -17.942  0.00  0.00    +0.001 C 
ATOM     16  C   UNL     1      37.360 -21.961 -17.113  0.00  0.00    +0.020 C 
ATOM     17  C   UNL     1      35.630 -21.267 -18.674  0.00  0.00    +0.000 C 
ATOM     18  C   UNL     1      36.966 -21.250 -18.247  0.00  0.00    +0.001 C 
ATOM     19  C   UNL     1      33.340 -22.033 -18.370  0.00  0.00    +0.000 C 
ATOM     20  C   UNL     1      35.216 -20.558 -19.814  0.00  0.00    +0.000 C 
ATOM     21  C   UNL     1      32.946 -21.322 -19.504  0.00  0.00    +0.000 C 
ATOM     22  C   UNL     1      33.882 -20.586 -20.224  0.00  0.00    +0.000 C 
ENDBRANCH  10  13
ENDBRANCH   8  10
ENDBRANCH   1   8
BRANCH   1  23
ATOM     23  C   UNL     1      33.655 -23.355 -12.620  0.00  0.00    +0.053 C 
BRANCH  23  24
ATOM     24  C   UNL     1      32.455 -23.707 -13.433  0.00  0.00    -0.020 C 
ATOM     25  C   UNL     1      31.841 -22.738 -14.227  0.00  0.00    -0.004 C 
ATOM     26  C   UNL     1      30.710 -23.053 -14.999  0.00  0.00    -0.000 C 
ATOM     27  C   UNL     1      31.948 -25.002 -13.399  0.00  0.00    -0.004 C 
ATOM     28  C   UNL     1      30.195 -24.371 -14.964  0.00  0.00    -0.000 C 
ATOM     29  C   UNL     1      30.826 -25.334 -14.159  0.00  0.00    -0.000 C 
ATOM     30  C   UNL     1      30.080 -22.090 -15.802  0.00  0.00    -0.000 C 
ATOM     31  C   UNL     1      29.065 -24.687 -15.735  0.00  0.00    -0.000 C 
ATOM     32  C   UNL     1      28.958 -22.422 -16.563  0.00  0.00    -0.000 C 
ATOM     33  C   UNL     1      28.451 -23.717 -16.528  0.00  0.00    -0.000 C 
ENDBRANCH  23  24
ENDBRANCH   1  23
TORSDOF 7
ENDMDL
MODEL 4
REMARK VINA RESULT:     -10.7      1.994      3.269
REMARK  Name = 9823454
REMARK  7 active torsions:
REMARK  status: ('A' for Active; 'I' for Inactive)
REMARK    1  A    between atoms: C_1  and  C_4
REMARK    2  A    between atoms: C_1  and  N_8
REMARK    3  A    between atoms: C_1  and  C_23
REMARK    4  A    between atoms: N_3  and  O_6
REMARK    5  A    between atoms: N_8  and  S_10
REMARK    6  A    between atoms: S_10  and  C_13
REMARK    7  A    between atoms: C_23  and  C_24
REMARK                            x       y       z     vdW  Elec       q    Type
REMARK                         _______ _______ _______ _____ _____    ______ ____
ROOT
ATOM      1  C   UNL     1      34.654 -24.059 -15.669  0.00  0.00    +0.158 C 
ENDROOT
BRANCH   1   4
ATOM      2  O   UNL     1      36.853 -24.974 -15.262  0.00  0.00    -0.272 OA
ATOM      3  N   UNL     1      36.514 -22.712 -14.950  0.00  0.00    -0.196 N 
ATOM      4  C   UNL     1      36.121 -23.986 -15.280  0.00  0.00    +0.260 C 
ATOM      5  H   UNL     1      35.892 -21.949 -14.980  0.00  0.00    +0.182 HD
BRANCH   3   6
ATOM      6  O   UNL     1      37.855 -22.564 -14.570  0.00  0.00    -0.295 OA
ATOM      7  H   UNL     1      38.421 -22.615 -15.355  0.00  0.00    +0.241 HD
ENDBRANCH   3   6
ENDBRANCH   1   4
BRANCH   1   8
ATOM      8  N   UNL     1      34.354 -22.770 -16.337  0.00  0.00    -0.172 NA
ATOM      9  H   UNL     1      33.724 -22.258 -15.721  0.00  0.00    +0.149 HD
BRANCH   8  10
ATOM     10  S   UNL     1      33.647 -22.762 -17.880  0.00  0.00    +0.061 S 
ATOM     11  O   UNL     1      32.345 -22.124 -17.812  0.00  0.00    -0.153 OA
ATOM     12  O   UNL     1      33.782 -24.084 -18.463  0.00  0.00    -0.153 OA
BRANCH  10  13
ATOM     13  C   UNL     1      34.732 -21.691 -18.774  0.00  0.00    +0.122 C 
ATOM     14  C   UNL     1      34.227 -20.935 -19.818  0.00  0.00    +0.020 C 
ATOM     15  C   UNL     1      35.077 -20.080 -20.538  0.00  0.00    +0.001 C 
ATOM     16  C   UNL     1      36.064 -21.629 -18.414  0.00  0.00    +0.020 C 
ATOM     17  C   UNL     1      36.445 -20.003 -20.183  0.00  0.00    +0.000 C 
ATOM     18  C   UNL     1      36.922 -20.784 -19.118  0.00  0.00    +0.001 C 
ATOM     19  C   UNL     1      34.599 -19.299 -21.603  0.00  0.00    +0.000 C 
ATOM     20  C   UNL     1      37.295 -19.149 -20.904  0.00  0.00    +0.000 C 
ATOM     21  C   UNL     1      35.458 -18.455 -22.309  0.00  0.00    +0.000 C 
ATOM     22  C   UNL     1      36.802 -18.380 -21.959  0.00  0.00    +0.000 C 
ENDBRANCH  10  13
ENDBRANCH   8  10
ENDBRANCH   1   8
BRANCH   1  23
ATOM     23  C   UNL     1      33.757 -24.225 -14.431  0.00  0.00    +0.053 C 
BRANCH  23  24
ATOM     24  C   UNL     1      32.392 -23.651 -14.607  0.00  0.00    -0.020 C 
ATOM     25  C   UNL     1      31.478 -24.273 -15.459  0.00  0.00    -0.004 C 
ATOM     26  C   UNL     1      30.189 -23.746 -15.635  0.00  0.00    -0.000 C 
ATOM     27  C   UNL     1      32.030 -22.496 -13.922  0.00  0.00    -0.004 C 
ATOM     28  C   UNL     1      29.821 -22.570 -14.938  0.00  0.00    -0.000 C 
ATOM     29  C   UNL     1      30.753 -21.958 -14.085  0.00  0.00    -0.000 C 
ATOM     30  C   UNL     1      29.257 -24.359 -16.489  0.00  0.00    -0.000 C 
ATOM     31  C   UNL     1      28.531 -22.042 -15.114  0.00  0.00    -0.000 C 
ATOM     32  C   UNL     1      27.980 -23.821 -16.652  0.00  0.00    -0.000 C 
ATOM     33  C   UNL     1      27.619 -22.665 -15.967  0.00  0.00    -0.000 C 
ENDBRANCH  23  24
ENDBRANCH   1  23
TORSDOF 7
ENDMDL
MODEL 5
REMARK VINA RESULT:     -10.7      7.114     10.967
REMARK  Name = 9823454
REMARK  7 active torsions:
REMARK  status: ('A' for Active; 'I' for Inactive)
REMARK    1  A    between atoms: C_1  and  C_4
REMARK    2  A    between atoms: C_1  and  N_8
REMARK    3  A    between atoms: C_1  and  C_23
REMARK    4  A    between atoms: N_3  and  O_6
REMARK    5  A    between atoms: N_8  and  S_10
REMARK    6  A    between atoms: S_10  and  C_13
REMARK    7  A    between atoms: C_23  and  C_24
REMARK                            x       y       z     vdW  Elec       q    Type
REMARK                         _______ _______ _______ _____ _____    ______ ____
ROOT
ATOM      1  C   UNL     1      35.081 -16.778 -24.437  0.00  0.00    +0.158 C 
ENDROOT
BRANCH   1   4
ATOM      2  O   UNL     1      33.196 -16.030 -25.752  0.00  0.00    -0.272 OA
ATOM      3  N   UNL     1      33.196 -18.189 -24.934  0.00  0.00    -0.196 N 
ATOM      4  C   UNL     1      33.732 -16.938 -25.119  0.00  0.00    +0.260 C 
ATOM      5  H   UNL     1      33.661 -18.887 -24.418  0.00  0.00    +0.182 HD
BRANCH   3   6
ATOM      6  O   UNL     1      31.945 -18.412 -25.526  0.00  0.00    -0.295 OA
ATOM      7  H   UNL     1      32.029 -19.090 -26.214  0.00  0.00    +0.241 HD
ENDBRANCH   3   6
ENDBRANCH   1   4
BRANCH   1   8
ATOM      8  N   UNL     1      34.937 -17.429 -23.112  0.00  0.00    -0.172 NA
ATOM      9  H   UNL     1      34.977 -16.688 -22.413  0.00  0.00    +0.149 HD
BRANCH   8  10
ATOM     10  S   UNL     1      36.047 -18.620 -22.630  0.00  0.00    +0.061 S 
ATOM     11  O   UNL     1      37.162 -17.992 -21.946  0.00  0.00    -0.153 OA
ATOM     12  O   UNL     1      36.287 -19.513 -23.748  0.00  0.00    -0.153 OA
BRANCH  10  13
ATOM     13  C   UNL     1      35.114 -19.527 -21.435  0.00  0.00    +0.122 C 
ATOM     14  C   UNL     1      35.783 -20.285 -20.489  0.00  0.00    +0.020 C 
ATOM     15  C   UNL     1      35.056 -21.012 -19.533  0.00  0.00    +0.001 C 
ATOM     16  C   UNL     1      33.735 -19.462 -21.467  0.00  0.00    +0.020 C 
ATOM     17  C   UNL     1      33.641 -20.958 -19.551  0.00  0.00    +0.000 C 
ATOM     18  C   UNL     1      32.997 -20.178 -20.523  0.00  0.00    +0.001 C 
ATOM     19  C   UNL     1      35.701 -21.792 -18.560  0.00  0.00    +0.000 C 
ATOM     20  C   UNL     1      32.914 -21.686 -18.595  0.00  0.00    +0.000 C 
ATOM     21  C   UNL     1      34.963 -22.509 -17.617  0.00  0.00    +0.000 C 
ATOM     22  C   UNL     1      33.573 -22.455 -17.634  0.00  0.00    +0.000 C 
ENDBRANCH  10  13
ENDBRANCH   8  10
ENDBRANCH   1   8
BRANCH   1  23
ATOM     23  C   UNL     1      35.438 -15.294 -24.252  0.00  0.00    +0.053 C 
BRANCH  23  24
ATOM     24  C   UNL     1      34.720 -14.649 -23.115  0.00  0.00    -0.020 C 
ATOM     25  C   UNL     1      33.862 -13.574 -23.350  0.00  0.00    -0.004 C 
ATOM     26  C   UNL     1      33.179 -12.957 -22.290  0.00  0.00    -0.000 C 
ATOM     27  C   UNL     1      34.906 -15.120 -21.819  0.00  0.00    -0.004 C 
ATOM     28  C   UNL     1      33.369 -13.437 -20.972  0.00  0.00    -0.000 C 
ATOM     29  C   UNL     1      34.235 -14.519 -20.754  0.00  0.00    -0.000 C 
ATOM     30  C   UNL     1      32.312 -11.874 -22.510  0.00  0.00    -0.000 C 
ATOM     31  C   UNL     1      32.685 -12.819 -19.912  0.00  0.00    -0.000 C 
ATOM     32  C   UNL     1      31.641 -11.273 -21.444  0.00  0.00    -0.000 C 
ATOM     33  C   UNL     1      31.828 -11.744 -20.148  0.00  0.00    -0.000 C 
ENDBRANCH  23  24
ENDBRANCH   1  23
TORSDOF 7
ENDMDL
MODEL 6
REMARK VINA RESULT:     -10.6      1.190      1.526
REMARK  Name = 9823454
REMARK  7 active torsions:
REMARK  status: ('A' for Active; 'I' for Inactive)
REMARK    1  A    between atoms: C_1  and  C_4
REMARK    2  A    between atoms: C_1  and  N_8
REMARK    3  A    between atoms: C_1  and  C_23
REMARK    4  A    between atoms: N_3  and  O_6
REMARK    5  A    between atoms: N_8  and  S_10
REMARK    6  A    between atoms: S_10  and  C_13
REMARK    7  A    between atoms: C_23  and  C_24
REMARK                            x       y       z     vdW  Elec       q    Type
REMARK                         _______ _______ _______ _____ _____    ______ ____
ROOT
ATOM      1  C   UNL     1      35.613 -24.947 -14.466  0.00  0.00    +0.158 C 
ENDROOT
BRANCH   1   4
ATOM      2  O   UNL     1      37.822 -25.769 -13.936  0.00  0.00    -0.272 OA
ATOM      3  N   UNL     1      36.330 -25.396 -12.214  0.00  0.00    -0.196 N 
ATOM      4  C   UNL     1      36.717 -25.413 -13.532  0.00  0.00    +0.260 C 
ATOM      5  H   UNL     1      35.432 -25.102 -11.936  0.00  0.00    +0.182 HD
BRANCH   3   6
ATOM      6  O   UNL     1      37.293 -25.823 -11.289  0.00  0.00    -0.295 OA
ATOM      7  H   UNL     1      38.124 -26.012 -11.751  0.00  0.00    +0.241 HD
ENDBRANCH   3   6
ENDBRANCH   1   4
BRANCH   1   8
ATOM      8  N   UNL     1      36.304 -24.398 -15.657  0.00  0.00    -0.172 NA
ATOM      9  H   UNL     1      37.106 -25.001 -15.837  0.00  0.00    +0.149 HD
BRANCH   8  10
ATOM     10  S   UNL     1      36.884 -22.802 -15.637  0.00  0.00    +0.061 S 
ATOM     11  O   UNL     1      38.321 -22.808 -15.836  0.00  0.00    -0.153 OA
ATOM     12  O   UNL     1      36.308 -22.110 -14.500  0.00  0.00    -0.153 OA
BRANCH  10  13
ATOM     13  C   UNL     1      36.136 -22.123 -17.087  0.00  0.00    +0.122 C 
ATOM     14  C   UNL     1      36.887 -21.309 -17.917  0.00  0.00    +0.020 C 
ATOM     15  C   UNL     1      36.307 -20.761 -19.073  0.00  0.00    +0.001 C 
ATOM     16  C   UNL     1      34.816 -22.419 -17.366  0.00  0.00    +0.020 C 
ATOM     17  C   UNL     1      34.955 -21.053 -19.374  0.00  0.00    +0.000 C 
ATOM     18  C   UNL     1      34.224 -21.884 -18.511  0.00  0.00    +0.001 C 
ATOM     19  C   UNL     1      37.039 -19.930 -19.936  0.00  0.00    +0.000 C 
ATOM     20  C   UNL     1      34.375 -20.505 -20.529  0.00  0.00    +0.000 C 
ATOM     21  C   UNL     1      36.447 -19.394 -21.081  0.00  0.00    +0.000 C 
ATOM     22  C   UNL     1      35.118 -19.681 -21.376  0.00  0.00    +0.000 C 
ENDBRANCH  10  13
ENDBRANCH   8  10
ENDBRANCH   1   8
BRANCH   1  23
ATOM     23  C   UNL     1      34.754 -23.852 -13.811  0.00  0.00    +0.053 C 
BRANCH  23  24
ATOM     24  C   UNL     1      33.295 -24.003 -14.082  0.00  0.00    -0.020 C 
ATOM     25  C   UNL     1      32.674 -23.196 -15.036  0.00  0.00    -0.004 C 
ATOM     26  C   UNL     1      31.301 -23.326 -15.302  0.00  0.00    -0.000 C 
ATOM     27  C   UNL     1      32.553 -24.949 -13.381  0.00  0.00    -0.004 C 
ATOM     28  C   UNL     1      30.548 -24.289 -14.589  0.00  0.00    -0.000 C 
ATOM     29  C   UNL     1      31.189 -25.093 -13.633  0.00  0.00    -0.000 C 
ATOM     30  C   UNL     1      30.661 -22.522 -16.258  0.00  0.00    -0.000 C 
ATOM     31  C   UNL     1      29.175 -24.420 -14.855  0.00  0.00    -0.000 C 
ATOM     32  C   UNL     1      29.296 -22.666 -16.509  0.00  0.00    -0.000 C 
ATOM     33  C   UNL     1      28.555 -23.612 -15.808  0.00  0.00    -0.000 C 
ENDBRANCH  23  24
ENDBRANCH   1  23
TORSDOF 7
ENDMDL
MODEL 7
REMARK VINA RESULT:     -10.6      2.229      3.485
REMARK  Name = 9823454
REMARK  7 active torsions:
REMARK  status: ('A' for Active; 'I' for Inactive)
REMARK    1  A    between atoms: C_1  and  C_4
REMARK    2  A    between atoms: C_1  and  N_8
REMARK    3  A    between atoms: C_1  and  C_23
REMARK    4  A    between atoms: N_3  and  O_6
REMARK    5  A    between atoms: N_8  and  S_10
REMARK    6  A    between atoms: S_10  and  C_13
REMARK    7  A    between atoms: C_23  and  C_24
REMARK                            x       y       z     vdW  Elec       q    Type
REMARK                         _______ _______ _______ _____ _____    ______ ____
ROOT
ATOM      1  C   UNL     1      35.504 -22.874 -16.106  0.00  0.00    +0.158 C 
ENDROOT
BRANCH   1   4
ATOM      2  O   UNL     1      37.675 -21.817 -16.217  0.00  0.00    -0.272 OA
ATOM      3  N   UNL     1      37.519 -23.956 -15.362  0.00  0.00    -0.196 N 
ATOM      4  C   UNL     1      37.009 -22.804 -15.907  0.00  0.00    +0.260 C 
ATOM      5  H   UNL     1      36.947 -24.723 -15.129  0.00  0.00    +0.182 HD
BRANCH   3   6
ATOM      6  O   UNL     1      38.906 -23.974 -15.156  0.00  0.00    -0.295 OA
ATOM      7  H   UNL     1      39.329 -23.338 -15.754  0.00  0.00    +0.241 HD
ENDBRANCH   3   6
ENDBRANCH   1   4
BRANCH   1   8
ATOM      8  N   UNL     1      35.198 -21.899 -17.181  0.00  0.00    -0.172 NA
ATOM      9  H   UNL     1      34.871 -21.048 -16.723  0.00  0.00    +0.149 HD
BRANCH   8  10
ATOM     10  S   UNL     1      34.054 -22.286 -18.374  0.00  0.00    +0.061 S 
ATOM     11  O   UNL     1      32.719 -22.052 -17.857  0.00  0.00    -0.153 OA
ATOM     12  O   UNL     1      34.398 -23.573 -18.950  0.00  0.00    -0.153 OA
BRANCH  10  13
ATOM     13  C   UNL     1      34.384 -21.064 -19.606  0.00  0.00    +0.122 C 
ATOM     14  C   UNL     1      35.692 -20.672 -19.837  0.00  0.00    +0.020 C 
ATOM     15  C   UNL     1      35.971 -19.702 -20.813  0.00  0.00    +0.001 C 
ATOM     16  C   UNL     1      33.332 -20.523 -20.318  0.00  0.00    +0.020 C 
ATOM     17  C   UNL     1      34.904 -19.136 -21.551  0.00  0.00    +0.000 C 
ATOM     18  C   UNL     1      33.591 -19.557 -21.291  0.00  0.00    +0.001 C 
ATOM     19  C   UNL     1      37.285 -19.280 -21.072  0.00  0.00    +0.000 C 
ATOM     20  C   UNL     1      35.183 -18.164 -22.526  0.00  0.00    +0.000 C 
ATOM     21  C   UNL     1      37.544 -18.314 -22.045  0.00  0.00    +0.000 C 
ATOM     22  C   UNL     1      36.496 -17.758 -22.770  0.00  0.00    +0.000 C 
ENDBRANCH  10  13
ENDBRANCH   8  10
ENDBRANCH   1   8
BRANCH   1  23
ATOM     23  C   UNL     1      34.753 -22.485 -14.821  0.00  0.00    +0.053 C 
BRANCH  23  24
ATOM     24  C   UNL     1      33.466 -23.218 -14.643  0.00  0.00    -0.020 C 
ATOM     25  C   UNL     1      32.289 -22.704 -15.187  0.00  0.00    -0.004 C 
ATOM     26  C   UNL     1      31.069 -23.382 -15.028  0.00  0.00    -0.000 C 
ATOM     27  C   UNL     1      33.441 -24.415 -13.935  0.00  0.00    -0.004 C 
ATOM     28  C   UNL     1      31.044 -24.600 -14.307  0.00  0.00    -0.000 C 
ATOM     29  C   UNL     1      32.239 -25.103 -13.767  0.00  0.00    -0.000 C 
ATOM     30  C   UNL     1      29.876 -22.878 -15.567  0.00  0.00    -0.000 C 
ATOM     31  C   UNL     1      29.825 -25.278 -14.147  0.00  0.00    -0.000 C 
ATOM     32  C   UNL     1      28.672 -23.565 -15.400  0.00  0.00    -0.000 C 
ATOM     33  C   UNL     1      28.648 -24.762 -14.690  0.00  0.00    -0.000 C 
ENDBRANCH  23  24
ENDBRANCH   1  23
TORSDOF 7
ENDMDL
MODEL 8
REMARK VINA RESULT:     -10.5      1.432      5.594
REMARK  Name = 9823454
REMARK  7 active torsions:
REMARK  status: ('A' for Active; 'I' for Inactive)
REMARK    1  A    between atoms: C_1  and  C_4
REMARK    2  A    between atoms: C_1  and  N_8
REMARK    3  A    between atoms: C_1  and  C_23
REMARK    4  A    between atoms: N_3  and  O_6
REMARK    5  A    between atoms: N_8  and  S_10
REMARK    6  A    between atoms: S_10  and  C_13
REMARK    7  A    between atoms: C_23  and  C_24
REMARK                            x       y       z     vdW  Elec       q    Type
REMARK                         _______ _______ _______ _____ _____    ______ ____
ROOT
ATOM      1  C   UNL     1      36.505 -22.511 -14.346  0.00  0.00    +0.158 C 
ENDROOT
BRANCH   1   4
ATOM      2  O   UNL     1      37.351 -22.593 -12.083  0.00  0.00    -0.272 OA
ATOM      3  N   UNL     1      38.063 -24.185 -13.596  0.00  0.00    -0.196 N 
ATOM      4  C   UNL     1      37.338 -23.084 -13.211  0.00  0.00    +0.260 C 
ATOM      5  H   UNL     1      38.021 -24.545 -14.511  0.00  0.00    +0.182 HD
BRANCH   3   6
ATOM      6  O   UNL     1      38.866 -24.767 -12.605  0.00  0.00    -0.295 OA
ATOM      7  H   UNL     1      38.316 -25.316 -12.025  0.00  0.00    +0.241 HD
ENDBRANCH   3   6
ENDBRANCH   1   4
BRANCH   1   8
ATOM      8  N   UNL     1      35.093 -22.749 -13.963  0.00  0.00    -0.172 NA
ATOM      9  H   UNL     1      34.901 -22.154 -13.157  0.00  0.00    +0.149 HD
BRANCH   8  10
ATOM     10  S   UNL     1      34.580 -24.315 -13.551  0.00  0.00    +0.061 S 
ATOM     11  O   UNL     1      34.677 -24.492 -12.115  0.00  0.00    -0.153 OA
ATOM     12  O   UNL     1      35.213 -25.264 -14.448  0.00  0.00    -0.153 OA
BRANCH  10  13
ATOM     13  C   UNL     1      32.867 -24.262 -13.980  0.00  0.00    +0.122 C 
ATOM     14  C   UNL     1      32.445 -23.397 -14.974  0.00  0.00    +0.020 C 
ATOM     15  C   UNL     1      31.087 -23.342 -15.326  0.00  0.00    +0.001 C 
ATOM     16  C   UNL     1      31.980 -25.086 -13.315  0.00  0.00    +0.020 C 
ATOM     17  C   UNL     1      30.164 -24.180 -14.655  0.00  0.00    +0.000 C 
ATOM     18  C   UNL     1      30.627 -25.046 -13.652  0.00  0.00    +0.001 C 
ATOM     19  C   UNL     1      30.624 -22.476 -16.330  0.00  0.00    +0.000 C 
ATOM     20  C   UNL     1      28.805 -24.125 -15.006  0.00  0.00    +0.000 C 
ATOM     21  C   UNL     1      29.270 -22.435 -16.666  0.00  0.00    +0.000 C 
ATOM     22  C   UNL     1      28.364 -23.258 -16.006  0.00  0.00    +0.000 C 
ENDBRANCH  10  13
ENDBRANCH   8  10
ENDBRANCH   1   8
BRANCH   1  23
ATOM     23  C   UNL     1      36.812 -23.222 -15.674  0.00  0.00    +0.053 C 
BRANCH  23  24
ATOM     24  C   UNL     1      36.395 -22.440 -16.874  0.00  0.00    -0.020 C 
ATOM     25  C   UNL     1      35.058 -22.430 -17.272  0.00  0.00    -0.004 C 
ATOM     26  C   UNL     1      34.650 -21.698 -18.399  0.00  0.00    -0.000 C 
ATOM     27  C   UNL     1      37.342 -21.719 -17.596  0.00  0.00    -0.004 C 
ATOM     28  C   UNL     1      35.613 -20.965 -19.133  0.00  0.00    -0.000 C 
ATOM     29  C   UNL     1      36.954 -20.986 -18.718  0.00  0.00    -0.000 C 
ATOM     30  C   UNL     1      33.309 -21.678 -18.813  0.00  0.00    -0.000 C 
ATOM     31  C   UNL     1      35.206 -20.233 -20.260  0.00  0.00    -0.000 C 
ATOM     32  C   UNL     1      32.922 -20.945 -19.936  0.00  0.00    -0.000 C 
ATOM     33  C   UNL     1      33.868 -20.225 -20.658  0.00  0.00    -0.000 C 
ENDBRANCH  23  24
ENDBRANCH   1  23
TORSDOF 7
ENDMDL
MODEL 9
REMARK VINA RESULT:     -10.0      8.999     12.318
REMARK  Name = 9823454
REMARK  7 active torsions:
REMARK  status: ('A' for Active; 'I' for Inactive)
REMARK    1  A    between atoms: C_1  and  C_4
REMARK    2  A    between atoms: C_1  and  N_8
REMARK    3  A    between atoms: C_1  and  C_23
REMARK    4  A    between atoms: N_3  and  O_6
REMARK    5  A    between atoms: N_8  and  S_10
REMARK    6  A    between atoms: S_10  and  C_13
REMARK    7  A    between atoms: C_23  and  C_24
REMARK                            x       y       z     vdW  Elec       q    Type
REMARK                         _______ _______ _______ _____ _____    ______ ____
ROOT
ATOM      1  C   UNL     1      34.706 -16.013 -23.306  0.00  0.00    +0.158 C 
ENDROOT
BRANCH   1   4
ATOM      2  O   UNL     1      34.329 -17.293 -25.321  0.00  0.00    -0.272 OA
ATOM      3  N   UNL     1      33.375 -15.199 -25.138  0.00  0.00    -0.196 N 
ATOM      4  C   UNL     1      34.126 -16.257 -24.689  0.00  0.00    +0.260 C 
ATOM      5  H   UNL     1      33.239 -14.387 -24.597  0.00  0.00    +0.182 HD
BRANCH   3   6
ATOM      6  O   UNL     1      32.813 -15.344 -26.414  0.00  0.00    -0.295 OA
ATOM      7  H   UNL     1      32.840 -14.493 -26.877  0.00  0.00    +0.241 HD
ENDBRANCH   3   6
ENDBRANCH   1   4
BRANCH   1   8
ATOM      8  N   UNL     1      34.873 -14.543 -23.198  0.00  0.00    -0.172 NA
ATOM      9  H   UNL     1      35.876 -14.361 -23.184  0.00  0.00    +0.149 HD
BRANCH   8  10
ATOM     10  S   UNL     1      34.203 -13.711 -21.879  0.00  0.00    +0.061 S 
ATOM     11  O   UNL     1      35.224 -13.503 -20.870  0.00  0.00    -0.153 OA
ATOM     12  O   UNL     1      32.943 -14.336 -21.524  0.00  0.00    -0.153 OA
BRANCH  10  13
ATOM     13  C   UNL     1      33.817 -12.143 -22.595  0.00  0.00    +0.122 C 
ATOM     14  C   UNL     1      32.921 -11.307 -21.950  0.00  0.00    +0.020 C 
ATOM     15  C   UNL     1      32.603 -10.057 -22.506  0.00  0.00    +0.001 C 
ATOM     16  C   UNL     1      34.416 -11.779 -23.785  0.00  0.00    +0.020 C 
ATOM     17  C   UNL     1      33.208  -9.669 -23.725  0.00  0.00    +0.000 C 
ATOM     18  C   UNL     1      34.113 -10.540 -24.351  0.00  0.00    +0.001 C 
ATOM     19  C   UNL     1      31.698  -9.185 -21.879  0.00  0.00    +0.000 C 
ATOM     20  C   UNL     1      32.890  -8.419 -24.282  0.00  0.00    +0.000 C 
ATOM     21  C   UNL     1      31.394  -7.947 -22.447  0.00  0.00    +0.000 C 
ATOM     22  C   UNL     1      31.989  -7.565 -23.645  0.00  0.00    +0.000 C 
ENDBRANCH  10  13
ENDBRANCH   8  10
ENDBRANCH   1   8
BRANCH   1  23
ATOM     23  C   UNL     1      36.069 -16.705 -23.143  0.00  0.00    +0.053 C 
BRANCH  23  24
ATOM     24  C   UNL     1      36.042 -17.847 -22.184  0.00  0.00    -0.020 C 
ATOM     25  C   UNL     1      34.825 -18.423 -21.818  0.00  0.00    -0.004 C 
ATOM     26  C   UNL     1      34.783 -19.499 -20.916  0.00  0.00    -0.000 C 
ATOM     27  C   UNL     1      37.231 -18.338 -21.654  0.00  0.00    -0.004 C 
ATOM     28  C   UNL     1      35.993 -19.997 -20.377  0.00  0.00    -0.000 C 
ATOM     29  C   UNL     1      37.209 -19.405 -20.757  0.00  0.00    -0.000 C 
ATOM     30  C   UNL     1      33.567 -20.089 -20.537  0.00  0.00    -0.000 C 
ATOM     31  C   UNL     1      35.952 -21.072 -19.475  0.00  0.00    -0.000 C 
ATOM     32  C   UNL     1      33.544 -21.158 -19.639  0.00  0.00    -0.000 C 
ATOM     33  C   UNL     1      34.734 -21.647 -19.109  0.00  0.00    -0.000 C 
ENDBRANCH  23  24
ENDBRANCH   1  23
TORSDOF 7
ENDMDL
