MODEL 1
REMARK VINA RESULT:     -11.6      0.000      0.000
REMARK  Name = 448903
REMARK  11 active torsions:
REMARK  status: ('A' for Active; 'I' for Inactive)
REMARK    1  A    between atoms: N_1  and  C_22
REMARK    2  A    between atoms: C_8  and  N_11
REMARK    3  A    between atoms: C_12  and  C_14
REMARK    4  A    between atoms: C_14  and  C_15
REMARK    5  A    between atoms: C_15  and  C_16
REMARK    6  A    between atoms: C_22  and  C_23
REMARK    7  A    between atoms: C_23  and  C_24
REMARK    8  A    between atoms: C_24  and  N_25
REMARK    9  A    between atoms: C_24  and  C_35
REMARK   10  A    between atoms: C_29  and  C_32
REMARK   11  A    between atoms: C_35  and  O_36
REMARK                            x       y       z     vdW  Elec       q    Type
REMARK                         _______ _______ _______ _____ _____    ______ ____
ROOT
ATOM      1  N   UNL     1      32.366 -24.853 -14.274  0.00  0.00    -0.286 N 
ATOM      2  C   UNL     1      31.752 -24.138 -15.278  0.00  0.00    +0.053 C 
ATOM      3  C   UNL     1      30.375 -24.226 -15.060  0.00  0.00    +0.015 C 
ATOM      4  C   UNL     1      31.429 -25.386 -13.432  0.00  0.00    +0.065 C 
ATOM      5  C   UNL     1      30.187 -25.016 -13.892  0.00  0.00    +0.017 C 
ATOM      6  C   UNL     1      32.304 -23.428 -16.350  0.00  0.00    +0.029 C 
ATOM      7  C   UNL     1      29.504 -23.574 -15.957  0.00  0.00    +0.003 C 
ATOM      8  C   UNL     1      31.420 -22.789 -17.226  0.00  0.00    +0.052 C 
ATOM      9  C   UNL     1      30.042 -22.860 -17.033  0.00  0.00    +0.015 C 
ENDROOT
BRANCH   8  11
ATOM     10  O   UNL     1      33.682 -23.426 -19.102  0.00  0.00    -0.275 OA
ATOM     11  N   UNL     1      31.929 -22.069 -18.308  0.00  0.00    -0.284 N 
ATOM     12  C   UNL     1      32.982 -22.419 -19.163  0.00  0.00    +0.226 C 
ATOM     13  H   UNL     1      31.494 -21.206 -18.493  0.00  0.00    +0.155 HD
BRANCH  12  14
ATOM     14  C   UNL     1      33.241 -21.366 -20.229  0.00  0.00    +0.090 C 
BRANCH  14  15
ATOM     15  C   UNL     1      34.710 -20.943 -20.259  0.00  0.00    +0.036 C 
BRANCH  15  16
ATOM     16  C   UNL     1      35.024 -19.948 -21.350  0.00  0.00    -0.022 C 
ATOM     17  C   UNL     1      36.258 -19.298 -21.368  0.00  0.00    -0.004 C 
ATOM     18  C   UNL     1      34.079 -19.679 -22.341  0.00  0.00    -0.004 C 
ATOM     19  C   UNL     1      36.547 -18.378 -22.376  0.00  0.00    -0.000 C 
ATOM     20  C   UNL     1      34.369 -18.759 -23.349  0.00  0.00    -0.000 C 
ATOM     21  C   UNL     1      35.603 -18.109 -23.366  0.00  0.00    -0.000 C 
ENDBRANCH  15  16
ENDBRANCH  14  15
ENDBRANCH  12  14
ENDBRANCH   8  11
BRANCH   1  22
ATOM     22  C   UNL     1      33.795 -25.024 -14.118  0.00  0.00    +0.097 C 
BRANCH  22  23
ATOM     23  C   UNL     1      34.405 -24.222 -12.961  0.00  0.00    +0.040 C 
BRANCH  23  24
ATOM     24  C   UNL     1      35.706 -24.809 -12.369  0.00  0.00    +0.091 C 
BRANCH  24  25
ATOM     25  N   UNL     1      36.855 -24.740 -13.288  0.00  0.00    -0.246 NA
ATOM     26  N   UNL     1      38.331 -24.064 -14.803  0.00  0.00    -0.251 NA
ATOM     27  C   UNL     1      37.818 -25.701 -13.470  0.00  0.00    +0.125 C 
ATOM     28  C   UNL     1      37.193 -23.767 -14.104  0.00  0.00    +0.201 C 
ATOM     29  C   UNL     1      38.744 -25.304 -14.406  0.00  0.00    +0.124 C 
BRANCH  29  32
ATOM     30  O   UNL     1      40.251 -25.990 -16.093  0.00  0.00    -0.269 OA
ATOM     31  N   UNL     1      40.688 -26.679 -13.965  0.00  0.00    -0.324 N 
ATOM     32  C   UNL     1      39.896 -25.988 -14.890  0.00  0.00    +0.257 C 
ATOM     33  H   UNL     1      41.491 -27.162 -14.269  0.00  0.00    +0.145 HD
ATOM     34  H   UNL     1      40.443 -26.683 -13.012  0.00  0.00    +0.145 HD
ENDBRANCH  29  32
ENDBRANCH  24  25
BRANCH  24  35
ATOM     35  C   UNL     1      36.047 -24.131 -11.032  0.00  0.00    +0.153 C 
BRANCH  35  36
ATOM     36  O   UNL     1      35.267 -24.707  -9.990  0.00  0.00    -0.381 OA
ATOM     37  H   UNL     1      35.584 -24.383  -9.132  0.00  0.00    +0.210 HD
ENDBRANCH  35  36
ENDBRANCH  24  35
ENDBRANCH  23  24
ENDBRANCH  22  23
ENDBRANCH   1  22
TORSDOF 11
ENDMDL
MODEL 2
REMARK VINA RESULT:     -11.3      3.358      7.220
REMARK  Name = 448903
REMARK  11 active torsions:
REMARK  status: ('A' for Active; 'I' for Inactive)
REMARK    1  A    between atoms: N_1  and  C_22
REMARK    2  A    between atoms: C_8  and  N_11
REMARK    3  A    between atoms: C_12  and  C_14
REMARK    4  A    between atoms: C_14  and  C_15
REMARK    5  A    between atoms: C_15  and  C_16
REMARK    6  A    between atoms: C_22  and  C_23
REMARK    7  A    between atoms: C_23  and  C_24
REMARK    8  A    between atoms: C_24  and  N_25
REMARK    9  A    between atoms: C_24  and  C_35
REMARK   10  A    between atoms: C_29  and  C_32
REMARK   11  A    between atoms: C_35  and  O_36
REMARK                            x       y       z     vdW  Elec       q    Type
REMARK                         _______ _______ _______ _____ _____    ______ ____
ROOT
ATOM      1  N   UNL     1      33.855 -23.462 -16.288  0.00  0.00    -0.286 N 
ATOM      2  C   UNL     1      34.564 -22.802 -17.266  0.00  0.00    +0.053 C 
ATOM      3  C   UNL     1      35.894 -22.746 -16.841  0.00  0.00    +0.015 C 
ATOM      4  C   UNL     1      34.687 -23.825 -15.264  0.00  0.00    +0.065 C 
ATOM      5  C   UNL     1      35.956 -23.396 -15.577  0.00  0.00    +0.017 C 
ATOM      6  C   UNL     1      34.136 -22.255 -18.481  0.00  0.00    +0.029 C 
ATOM      7  C   UNL     1      36.844 -22.113 -17.668  0.00  0.00    +0.003 C 
ATOM      8  C   UNL     1      35.097 -21.633 -19.285  0.00  0.00    +0.052 C 
ATOM      9  C   UNL     1      36.430 -21.563 -18.886  0.00  0.00    +0.015 C 
ENDROOT
BRANCH   8  11
ATOM     10  O   UNL     1      36.242 -19.316 -20.821  0.00  0.00    -0.275 OA
ATOM     11  N   UNL     1      34.711 -21.076 -20.505  0.00  0.00    -0.284 N 
ATOM     12  C   UNL     1      35.290 -20.000 -21.187  0.00  0.00    +0.226 C 
ATOM     13  H   UNL     1      33.933 -21.493 -20.942  0.00  0.00    +0.155 HD
BRANCH  12  14
ATOM     14  C   UNL     1      34.580 -19.689 -22.495  0.00  0.00    +0.090 C 
BRANCH  14  15
ATOM     15  C   UNL     1      35.440 -18.816 -23.411  0.00  0.00    +0.036 C 
BRANCH  15  16
ATOM     16  C   UNL     1      34.944 -17.394 -23.520  0.00  0.00    -0.022 C 
ATOM     17  C   UNL     1      34.502 -16.901 -24.747  0.00  0.00    -0.004 C 
ATOM     18  C   UNL     1      34.929 -16.573 -22.392  0.00  0.00    -0.004 C 
ATOM     19  C   UNL     1      34.044 -15.587 -24.847  0.00  0.00    -0.000 C 
ATOM     20  C   UNL     1      34.472 -15.259 -22.492  0.00  0.00    -0.000 C 
ATOM     21  C   UNL     1      34.029 -14.766 -23.720  0.00  0.00    -0.000 C 
ENDBRANCH  15  16
ENDBRANCH  14  15
ENDBRANCH  12  14
ENDBRANCH   8  11
BRANCH   1  22
ATOM     22  C   UNL     1      32.435 -23.740 -16.323  0.00  0.00    +0.097 C 
BRANCH  22  23
ATOM     23  C   UNL     1      31.639 -23.106 -15.175  0.00  0.00    +0.040 C 
BRANCH  23  24
ATOM     24  C   UNL     1      30.401 -23.909 -14.713  0.00  0.00    +0.091 C 
BRANCH  24  25
ATOM     25  N   UNL     1      29.272 -23.844 -15.655  0.00  0.00    -0.246 NA
ATOM     26  N   UNL     1      27.767 -24.338 -17.212  0.00  0.00    -0.251 NA
ATOM     27  C   UNL     1      28.418 -22.785 -15.839  0.00  0.00    +0.125 C 
ATOM     28  C   UNL     1      28.853 -24.762 -16.496  0.00  0.00    +0.201 C 
ATOM     29  C   UNL     1      27.476 -23.068 -16.800  0.00  0.00    +0.124 C 
BRANCH  29  32
ATOM     30  O   UNL     1      25.569 -21.691 -16.560  0.00  0.00    -0.269 OA
ATOM     31  N   UNL     1      26.316 -22.074 -18.679  0.00  0.00    -0.324 N 
ATOM     32  C   UNL     1      26.412 -22.261 -17.295  0.00  0.00    +0.257 C 
ATOM     33  H   UNL     1      25.592 -21.521 -19.053  0.00  0.00    +0.145 HD
ATOM     34  H   UNL     1      26.973 -22.496 -19.280  0.00  0.00    +0.145 HD
ENDBRANCH  29  32
ENDBRANCH  24  25
BRANCH  24  35
ATOM     35  C   UNL     1      30.780 -25.371 -14.428  0.00  0.00    +0.153 C 
BRANCH  35  36
ATOM     36  O   UNL     1      31.710 -25.425 -13.353  0.00  0.00    -0.381 OA
ATOM     37  H   UNL     1      31.601 -24.642 -12.791  0.00  0.00    +0.210 HD
ENDBRANCH  35  36
ENDBRANCH  24  35
ENDBRANCH  23  24
ENDBRANCH  22  23
ENDBRANCH   1  22
TORSDOF 11
ENDMDL
MODEL 3
REMARK VINA RESULT:     -11.2      2.778      6.699
REMARK  Name = 448903
REMARK  11 active torsions:
REMARK  status: ('A' for Active; 'I' for Inactive)
REMARK    1  A    between atoms: N_1  and  C_22
REMARK    2  A    between atoms: C_8  and  N_11
REMARK    3  A    between atoms: C_12  and  C_14
REMARK    4  A    between atoms: C_14  and  C_15
REMARK    5  A    between atoms: C_15  and  C_16
REMARK    6  A    between atoms: C_22  and  C_23
REMARK    7  A    between atoms: C_23  and  C_24
REMARK    8  A    between atoms: C_24  and  N_25
REMARK    9  A    between atoms: C_24  and  C_35
REMARK   10  A    between atoms: C_29  and  C_32
REMARK   11  A    between atoms: C_35  and  O_36
REMARK                            x       y       z     vdW  Elec       q    Type
REMARK                         _______ _______ _______ _____ _____    ______ ____
ROOT
ATOM      1  N   UNL     1      34.771 -24.279 -14.799  0.00  0.00    -0.286 N 
ATOM      2  C   UNL     1      35.381 -23.519 -15.771  0.00  0.00    +0.053 C 
ATOM      3  C   UNL     1      36.748 -23.506 -15.484  0.00  0.00    +0.015 C 
ATOM      4  C   UNL     1      35.702 -24.747 -13.911  0.00  0.00    +0.065 C 
ATOM      5  C   UNL     1      36.935 -24.286 -14.308  0.00  0.00    +0.017 C 
ATOM      6  C   UNL     1      34.833 -22.848 -16.871  0.00  0.00    +0.029 C 
ATOM      7  C   UNL     1      37.613 -22.789 -16.335  0.00  0.00    +0.003 C 
ATOM      8  C   UNL     1      35.711 -22.144 -17.701  0.00  0.00    +0.052 C 
ATOM      9  C   UNL     1      37.079 -22.114 -17.439  0.00  0.00    +0.015 C 
ENDROOT
BRANCH   8  11
ATOM     10  O   UNL     1      33.322 -22.731 -19.430  0.00  0.00    -0.275 OA
ATOM     11  N   UNL     1      35.206 -21.463 -18.810  0.00  0.00    -0.284 N 
ATOM     12  C   UNL     1      34.075 -21.772 -19.576  0.00  0.00    +0.226 C 
ATOM     13  H   UNL     1      35.709 -20.663 -19.089  0.00  0.00    +0.155 HD
BRANCH  12  14
ATOM     14  C   UNL     1      33.851 -20.784 -20.709  0.00  0.00    +0.090 C 
BRANCH  14  15
ATOM     15  C   UNL     1      35.160 -20.137 -21.161  0.00  0.00    +0.036 C 
BRANCH  15  16
ATOM     16  C   UNL     1      34.968 -19.062 -22.204  0.00  0.00    -0.022 C 
ATOM     17  C   UNL     1      35.234 -17.730 -21.890  0.00  0.00    -0.004 C 
ATOM     18  C   UNL     1      34.525 -19.403 -23.483  0.00  0.00    -0.004 C 
ATOM     19  C   UNL     1      35.056 -16.737 -22.854  0.00  0.00    -0.000 C 
ATOM     20  C   UNL     1      34.347 -18.410 -24.446  0.00  0.00    -0.000 C 
ATOM     21  C   UNL     1      34.612 -17.077 -24.132  0.00  0.00    -0.000 C 
ENDBRANCH  15  16
ENDBRANCH  14  15
ENDBRANCH  12  14
ENDBRANCH   8  11
BRANCH   1  22
ATOM     22  C   UNL     1      33.352 -24.554 -14.714  0.00  0.00    +0.097 C 
BRANCH  22  23
ATOM     23  C   UNL     1      32.467 -23.301 -14.668  0.00  0.00    +0.040 C 
BRANCH  23  24
ATOM     24  C   UNL     1      30.996 -23.551 -14.268  0.00  0.00    +0.091 C 
BRANCH  24  25
ATOM     25  N   UNL     1      30.030 -23.190 -15.319  0.00  0.00    -0.246 NA
ATOM     26  N   UNL     1      29.097 -22.683 -17.270  0.00  0.00    -0.251 NA
ATOM     27  C   UNL     1      28.686 -22.966 -15.156  0.00  0.00    +0.125 C 
ATOM     28  C   UNL     1      30.245 -23.012 -16.604  0.00  0.00    +0.201 C 
ATOM     29  C   UNL     1      28.086 -22.650 -16.352  0.00  0.00    +0.124 C 
BRANCH  29  32
ATOM     30  O   UNL     1      25.810 -22.379 -15.771  0.00  0.00    -0.269 OA
ATOM     31  N   UNL     1      26.387 -21.971 -17.939  0.00  0.00    -0.324 N 
ATOM     32  C   UNL     1      26.722 -22.347 -16.632  0.00  0.00    +0.257 C 
ATOM     33  H   UNL     1      25.453 -21.755 -18.164  0.00  0.00    +0.145 HD
ATOM     34  H   UNL     1      27.085 -21.922 -18.632  0.00  0.00    +0.145 HD
ENDBRANCH  29  32
ENDBRANCH  24  25
BRANCH  24  35
ATOM     35  C   UNL     1      30.794 -25.012 -13.833  0.00  0.00    +0.153 C 
BRANCH  35  36
ATOM     36  O   UNL     1      30.088 -25.052 -12.598  0.00  0.00    -0.381 OA
ATOM     37  H   UNL     1      30.553 -25.636 -11.978  0.00  0.00    +0.210 HD
ENDBRANCH  35  36
ENDBRANCH  24  35
ENDBRANCH  23  24
ENDBRANCH  22  23
ENDBRANCH   1  22
TORSDOF 11
ENDMDL
MODEL 4
REMARK VINA RESULT:     -10.9      1.958      2.743
REMARK  Name = 448903
REMARK  11 active torsions:
REMARK  status: ('A' for Active; 'I' for Inactive)
REMARK    1  A    between atoms: N_1  and  C_22
REMARK    2  A    between atoms: C_8  and  N_11
REMARK    3  A    between atoms: C_12  and  C_14
REMARK    4  A    between atoms: C_14  and  C_15
REMARK    5  A    between atoms: C_15  and  C_16
REMARK    6  A    between atoms: C_22  and  C_23
REMARK    7  A    between atoms: C_23  and  C_24
REMARK    8  A    between atoms: C_24  and  N_25
REMARK    9  A    between atoms: C_24  and  C_35
REMARK   10  A    between atoms: C_29  and  C_32
REMARK   11  A    between atoms: C_35  and  O_36
REMARK                            x       y       z     vdW  Elec       q    Type
REMARK                         _______ _______ _______ _____ _____    ______ ____
ROOT
ATOM      1  N   UNL     1      33.040 -24.518 -14.594  0.00  0.00    -0.286 N 
ATOM      2  C   UNL     1      32.695 -23.851 -15.748  0.00  0.00    +0.053 C 
ATOM      3  C   UNL     1      31.316 -23.629 -15.696  0.00  0.00    +0.015 C 
ATOM      4  C   UNL     1      31.933 -24.723 -13.817  0.00  0.00    +0.065 C 
ATOM      5  C   UNL     1      30.850 -24.184 -14.472  0.00  0.00    +0.017 C 
ATOM      6  C   UNL     1      33.488 -23.432 -16.822  0.00  0.00    +0.029 C 
ATOM      7  C   UNL     1      30.698 -22.956 -16.769  0.00  0.00    +0.003 C 
ATOM      8  C   UNL     1      32.851 -22.765 -17.874  0.00  0.00    +0.052 C 
ATOM      9  C   UNL     1      31.478 -22.530 -17.849  0.00  0.00    +0.015 C 
ENDROOT
BRANCH   8  11
ATOM     10  O   UNL     1      32.280 -20.633 -19.915  0.00  0.00    -0.275 OA
ATOM     11  N   UNL     1      33.606 -22.329 -18.964  0.00  0.00    -0.284 N 
ATOM     12  C   UNL     1      33.299 -21.317 -19.882  0.00  0.00    +0.226 C 
ATOM     13  H   UNL     1      34.464 -22.793 -19.107  0.00  0.00    +0.155 HD
BRANCH  12  14
ATOM     14  C   UNL     1      34.380 -21.137 -20.935  0.00  0.00    +0.090 C 
BRANCH  14  15
ATOM     15  C   UNL     1      35.042 -19.762 -20.836  0.00  0.00    +0.036 C 
BRANCH  15  16
ATOM     16  C   UNL     1      34.894 -18.935 -22.090  0.00  0.00    -0.022 C 
ATOM     17  C   UNL     1      34.416 -19.522 -23.260  0.00  0.00    -0.004 C 
ATOM     18  C   UNL     1      35.235 -17.582 -22.077  0.00  0.00    -0.004 C 
ATOM     19  C   UNL     1      34.279 -18.757 -24.419  0.00  0.00    -0.000 C 
ATOM     20  C   UNL     1      35.098 -16.817 -23.235  0.00  0.00    -0.000 C 
ATOM     21  C   UNL     1      34.620 -17.405 -24.407  0.00  0.00    -0.000 C 
ENDBRANCH  15  16
ENDBRANCH  14  15
ENDBRANCH  12  14
ENDBRANCH   8  11
BRANCH   1  22
ATOM     22  C   UNL     1      34.376 -24.947 -14.239  0.00  0.00    +0.097 C 
BRANCH  22  23
ATOM     23  C   UNL     1      34.909 -24.340 -12.935  0.00  0.00    +0.040 C 
BRANCH  23  24
ATOM     24  C   UNL     1      36.427 -24.049 -12.918  0.00  0.00    +0.091 C 
BRANCH  24  25
ATOM     25  N   UNL     1      36.959 -23.623 -14.223  0.00  0.00    -0.246 NA
ATOM     26  N   UNL     1      38.201 -23.425 -16.053  0.00  0.00    -0.251 NA
ATOM     27  C   UNL     1      36.432 -22.664 -15.050  0.00  0.00    +0.125 C 
ATOM     28  C   UNL     1      38.024 -24.063 -14.856  0.00  0.00    +0.201 C 
ATOM     29  C   UNL     1      37.185 -22.523 -16.192  0.00  0.00    +0.124 C 
BRANCH  29  32
ATOM     30  O   UNL     1      36.387 -21.978 -18.349  0.00  0.00    -0.269 OA
ATOM     31  N   UNL     1      37.501 -20.348 -17.209  0.00  0.00    -0.324 N 
ATOM     32  C   UNL     1      36.996 -21.651 -17.302  0.00  0.00    +0.257 C 
ATOM     33  H   UNL     1      37.387 -19.722 -17.960  0.00  0.00    +0.145 HD
ATOM     34  H   UNL     1      37.970 -20.059 -16.393  0.00  0.00    +0.145 HD
ENDBRANCH  29  32
ENDBRANCH  24  25
BRANCH  24  35
ATOM     35  C   UNL     1      36.767 -23.012 -11.835  0.00  0.00    +0.153 C 
BRANCH  35  36
ATOM     36  O   UNL     1      38.141 -22.653 -11.929  0.00  0.00    -0.381 OA
ATOM     37  H   UNL     1      38.291 -22.163 -12.753  0.00  0.00    +0.210 HD
ENDBRANCH  35  36
ENDBRANCH  24  35
ENDBRANCH  23  24
ENDBRANCH  22  23
ENDBRANCH   1  22
TORSDOF 11
ENDMDL
MODEL 5
REMARK VINA RESULT:     -10.8      3.755      7.635
REMARK  Name = 448903
REMARK  11 active torsions:
REMARK  status: ('A' for Active; 'I' for Inactive)
REMARK    1  A    between atoms: N_1  and  C_22
REMARK    2  A    between atoms: C_8  and  N_11
REMARK    3  A    between atoms: C_12  and  C_14
REMARK    4  A    between atoms: C_14  and  C_15
REMARK    5  A    between atoms: C_15  and  C_16
REMARK    6  A    between atoms: C_22  and  C_23
REMARK    7  A    between atoms: C_23  and  C_24
REMARK    8  A    between atoms: C_24  and  N_25
REMARK    9  A    between atoms: C_24  and  C_35
REMARK   10  A    between atoms: C_29  and  C_32
REMARK   11  A    between atoms: C_35  and  O_36
REMARK                            x       y       z     vdW  Elec       q    Type
REMARK                         _______ _______ _______ _____ _____    ______ ____
ROOT
ATOM      1  N   UNL     1      34.489 -22.066 -18.883  0.00  0.00    -0.286 N 
ATOM      2  C   UNL     1      34.975 -21.139 -19.778  0.00  0.00    +0.053 C 
ATOM      3  C   UNL     1      36.332 -20.965 -19.491  0.00  0.00    +0.015 C 
ATOM      4  C   UNL     1      35.488 -22.482 -18.045  0.00  0.00    +0.065 C 
ATOM      5  C   UNL     1      36.640 -21.819 -18.396  0.00  0.00    +0.017 C 
ATOM      6  C   UNL     1      34.326 -20.450 -20.808  0.00  0.00    +0.029 C 
ATOM      7  C   UNL     1      37.078 -20.057 -20.270  0.00  0.00    +0.003 C 
ATOM      8  C   UNL     1      35.087 -19.555 -21.567  0.00  0.00    +0.052 C 
ATOM      9  C   UNL     1      36.442 -19.361 -21.304  0.00  0.00    +0.015 C 
ENDROOT
BRANCH   8  11
ATOM     10  O   UNL     1      34.909 -20.169 -24.505  0.00  0.00    -0.275 OA
ATOM     11  N   UNL     1      34.478 -18.848 -22.605  0.00  0.00    -0.284 N 
ATOM     12  C   UNL     1      34.412 -19.187 -23.962  0.00  0.00    +0.226 C 
ATOM     13  H   UNL     1      34.039 -18.004 -22.351  0.00  0.00    +0.155 HD
BRANCH  12  14
ATOM     14  C   UNL     1      33.657 -18.155 -24.784  0.00  0.00    +0.090 C 
BRANCH  14  15
ATOM     15  C   UNL     1      34.542 -16.960 -25.141  0.00  0.00    +0.036 C 
BRANCH  15  16
ATOM     16  C   UNL     1      34.163 -15.695 -24.410  0.00  0.00    -0.022 C 
ATOM     17  C   UNL     1      34.604 -15.485 -23.104  0.00  0.00    -0.004 C 
ATOM     18  C   UNL     1      33.372 -14.735 -25.041  0.00  0.00    -0.004 C 
ATOM     19  C   UNL     1      34.254 -14.316 -22.428  0.00  0.00    -0.000 C 
ATOM     20  C   UNL     1      33.021 -13.566 -24.365  0.00  0.00    -0.000 C 
ATOM     21  C   UNL     1      33.462 -13.357 -23.058  0.00  0.00    -0.000 C 
ENDBRANCH  15  16
ENDBRANCH  14  15
ENDBRANCH  12  14
ENDBRANCH   8  11
BRANCH   1  22
ATOM     22  C   UNL     1      33.124 -22.541 -18.824  0.00  0.00    +0.097 C 
BRANCH  22  23
ATOM     23  C   UNL     1      32.882 -23.645 -17.785  0.00  0.00    +0.040 C 
BRANCH  23  24
ATOM     24  C   UNL     1      32.406 -23.150 -16.401  0.00  0.00    +0.091 C 
BRANCH  24  25
ATOM     25  N   UNL     1      30.967 -23.356 -16.165  0.00  0.00    -0.246 NA
ATOM     26  N   UNL     1      29.021 -23.996 -15.308  0.00  0.00    -0.251 NA
ATOM     27  C   UNL     1      29.934 -22.873 -16.928  0.00  0.00    +0.125 C 
ATOM     28  C   UNL     1      30.384 -24.027 -15.198  0.00  0.00    +0.201 C 
ATOM     29  C   UNL     1      28.717 -23.257 -16.417  0.00  0.00    +0.124 C 
BRANCH  29  32
ATOM     30  O   UNL     1      26.997 -23.279 -18.039  0.00  0.00    -0.269 OA
ATOM     31  N   UNL     1      26.508 -22.348 -16.017  0.00  0.00    -0.324 N 
ATOM     32  C   UNL     1      27.403 -22.976 -16.891  0.00  0.00    +0.257 C 
ATOM     33  H   UNL     1      25.593 -22.141 -16.314  0.00  0.00    +0.145 HD
ATOM     34  H   UNL     1      26.794 -22.113 -15.104  0.00  0.00    +0.145 HD
ENDBRANCH  29  32
ENDBRANCH  24  25
BRANCH  24  35
ATOM     35  C   UNL     1      33.233 -23.801 -15.280  0.00  0.00    +0.153 C 
BRANCH  35  36
ATOM     36  O   UNL     1      34.201 -22.875 -14.798  0.00  0.00    -0.381 OA
ATOM     37  H   UNL     1      34.672 -23.263 -14.044  0.00  0.00    +0.210 HD
ENDBRANCH  35  36
ENDBRANCH  24  35
ENDBRANCH  23  24
ENDBRANCH  22  23
ENDBRANCH   1  22
TORSDOF 11
ENDMDL
MODEL 6
REMARK VINA RESULT:     -10.6     10.293     15.238
REMARK  Name = 448903
REMARK  11 active torsions:
REMARK  status: ('A' for Active; 'I' for Inactive)
REMARK    1  A    between atoms: N_1  and  C_22
REMARK    2  A    between atoms: C_8  and  N_11
REMARK    3  A    between atoms: C_12  and  C_14
REMARK    4  A    between atoms: C_14  and  C_15
REMARK    5  A    between atoms: C_15  and  C_16
REMARK    6  A    between atoms: C_22  and  C_23
REMARK    7  A    between atoms: C_23  and  C_24
REMARK    8  A    between atoms: C_24  and  N_25
REMARK    9  A    between atoms: C_24  and  C_35
REMARK   10  A    between atoms: C_29  and  C_32
REMARK   11  A    between atoms: C_35  and  O_36
REMARK                            x       y       z     vdW  Elec       q    Type
REMARK                         _______ _______ _______ _____ _____    ______ ____
ROOT
ATOM      1  N   UNL     1      31.607  -9.192 -21.440  0.00  0.00    -0.286 N 
ATOM      2  C   UNL     1      31.737 -10.562 -21.488  0.00  0.00    +0.053 C 
ATOM      3  C   UNL     1      31.557 -11.036 -20.187  0.00  0.00    +0.015 C 
ATOM      4  C   UNL     1      31.350  -8.786 -20.158  0.00  0.00    +0.065 C 
ATOM      5  C   UNL     1      31.313  -9.905 -19.359  0.00  0.00    +0.017 C 
ATOM      6  C   UNL     1      31.999 -11.407 -22.572  0.00  0.00    +0.029 C 
ATOM      7  C   UNL     1      31.642 -12.424 -19.954  0.00  0.00    +0.003 C 
ATOM      8  C   UNL     1      32.077 -12.780 -22.317  0.00  0.00    +0.052 C 
ATOM      9  C   UNL     1      31.901 -13.282 -21.029  0.00  0.00    +0.015 C 
ENDROOT
BRANCH   8  11
ATOM     10  O   UNL     1      34.685 -13.700 -23.497  0.00  0.00    -0.275 OA
ATOM     11  N   UNL     1      32.335 -13.658 -23.370  0.00  0.00    -0.284 N 
ATOM     12  C   UNL     1      33.575 -14.066 -23.875  0.00  0.00    +0.226 C 
ATOM     13  H   UNL     1      31.543 -14.039 -23.816  0.00  0.00    +0.155 HD
BRANCH  12  14
ATOM     14  C   UNL     1      33.441 -15.038 -25.036  0.00  0.00    +0.090 C 
BRANCH  14  15
ATOM     15  C   UNL     1      34.675 -15.932 -25.170  0.00  0.00    +0.036 C 
BRANCH  15  16
ATOM     16  C   UNL     1      34.650 -17.128 -24.250  0.00  0.00    -0.022 C 
ATOM     17  C   UNL     1      35.253 -17.057 -22.995  0.00  0.00    -0.004 C 
ATOM     18  C   UNL     1      34.022 -18.306 -24.656  0.00  0.00    -0.004 C 
ATOM     19  C   UNL     1      35.230 -18.163 -22.145  0.00  0.00    -0.000 C 
ATOM     20  C   UNL     1      33.999 -19.412 -23.806  0.00  0.00    -0.000 C 
ATOM     21  C   UNL     1      34.603 -19.341 -22.551  0.00  0.00    -0.000 C 
ENDBRANCH  15  16
ENDBRANCH  14  15
ENDBRANCH  12  14
ENDBRANCH   8  11
BRANCH   1  22
ATOM     22  C   UNL     1      31.721  -8.296 -22.571  0.00  0.00    +0.097 C 
BRANCH  22  23
ATOM     23  C   UNL     1      33.156  -7.849 -22.880  0.00  0.00    +0.040 C 
BRANCH  23  24
ATOM     24  C   UNL     1      33.493  -7.716 -24.383  0.00  0.00    +0.091 C 
BRANCH  24  25
ATOM     25  N   UNL     1      33.873  -8.989 -25.016  0.00  0.00    -0.246 NA
ATOM     26  N   UNL     1      34.926 -10.871 -25.549  0.00  0.00    -0.251 NA
ATOM     27  C   UNL     1      33.208  -9.631 -26.031  0.00  0.00    +0.125 C 
ATOM     28  C   UNL     1      34.902  -9.762 -24.749  0.00  0.00    +0.201 C 
ATOM     29  C   UNL     1      33.842 -10.801 -26.379  0.00  0.00    +0.124 C 
BRANCH  29  32
ATOM     30  O   UNL     1      34.297 -12.608 -27.834  0.00  0.00    -0.269 OA
ATOM     31  N   UNL     1      32.174 -11.778 -27.837  0.00  0.00    -0.324 N 
ATOM     32  C   UNL     1      33.494 -11.762 -27.370  0.00  0.00    +0.257 C 
ATOM     33  H   UNL     1      31.902 -12.431 -28.522  0.00  0.00    +0.145 HD
ATOM     34  H   UNL     1      31.518 -11.136 -27.480  0.00  0.00    +0.145 HD
ENDBRANCH  29  32
ENDBRANCH  24  25
BRANCH  24  35
ATOM     35  C   UNL     1      32.326  -7.065 -25.143  0.00  0.00    +0.153 C 
BRANCH  35  36
ATOM     36  O   UNL     1      32.662  -5.725 -25.483  0.00  0.00    -0.381 OA
ATOM     37  H   UNL     1      33.465  -5.462 -25.006  0.00  0.00    +0.210 HD
ENDBRANCH  35  36
ENDBRANCH  24  35
ENDBRANCH  23  24
ENDBRANCH  22  23
ENDBRANCH   1  22
TORSDOF 11
ENDMDL
MODEL 7
REMARK VINA RESULT:     -10.5      8.916     15.325
REMARK  Name = 448903
REMARK  11 active torsions:
REMARK  status: ('A' for Active; 'I' for Inactive)
REMARK    1  A    between atoms: N_1  and  C_22
REMARK    2  A    between atoms: C_8  and  N_11
REMARK    3  A    between atoms: C_12  and  C_14
REMARK    4  A    between atoms: C_14  and  C_15
REMARK    5  A    between atoms: C_15  and  C_16
REMARK    6  A    between atoms: C_22  and  C_23
REMARK    7  A    between atoms: C_23  and  C_24
REMARK    8  A    between atoms: C_24  and  N_25
REMARK    9  A    between atoms: C_24  and  C_35
REMARK   10  A    between atoms: C_29  and  C_32
REMARK   11  A    between atoms: C_35  and  O_36
REMARK                            x       y       z     vdW  Elec       q    Type
REMARK                         _______ _______ _______ _____ _____    ______ ____
ROOT
ATOM      1  N   UNL     1      34.102 -10.457 -25.080  0.00  0.00    -0.286 N 
ATOM      2  C   UNL     1      33.940 -11.824 -25.031  0.00  0.00    +0.053 C 
ATOM      3  C   UNL     1      33.418 -12.219 -26.265  0.00  0.00    +0.015 C 
ATOM      4  C   UNL     1      33.703  -9.977 -26.298  0.00  0.00    +0.065 C 
ATOM      5  C   UNL     1      33.274 -11.043 -27.054  0.00  0.00    +0.017 C 
ATOM      6  C   UNL     1      34.213 -12.730 -24.001  0.00  0.00    +0.029 C 
ATOM      7  C   UNL     1      33.154 -13.586 -26.483  0.00  0.00    +0.003 C 
ATOM      8  C   UNL     1      33.944 -14.081 -24.240  0.00  0.00    +0.052 C 
ATOM      9  C   UNL     1      33.423 -14.504 -25.462  0.00  0.00    +0.015 C 
ENDROOT
BRANCH   8  11
ATOM     10  O   UNL     1      35.285 -16.768 -24.383  0.00  0.00    -0.275 OA
ATOM     11  N   UNL     1      34.203 -15.019 -23.239  0.00  0.00    -0.284 N 
ATOM     12  C   UNL     1      34.847 -16.257 -23.357  0.00  0.00    +0.226 C 
ATOM     13  H   UNL     1      33.893 -14.780 -22.335  0.00  0.00    +0.155 HD
BRANCH  12  14
ATOM     14  C   UNL     1      34.938 -16.995 -22.031  0.00  0.00    +0.090 C 
BRANCH  14  15
ATOM     15  C   UNL     1      35.720 -18.302 -22.165  0.00  0.00    +0.036 C 
BRANCH  15  16
ATOM     16  C   UNL     1      35.147 -19.429 -21.340  0.00  0.00    -0.022 C 
ATOM     17  C   UNL     1      33.770 -19.648 -21.319  0.00  0.00    -0.004 C 
ATOM     18  C   UNL     1      35.996 -20.253 -20.600  0.00  0.00    -0.004 C 
ATOM     19  C   UNL     1      33.241 -20.690 -20.557  0.00  0.00    -0.000 C 
ATOM     20  C   UNL     1      35.466 -21.295 -19.838  0.00  0.00    -0.000 C 
ATOM     21  C   UNL     1      34.089 -21.513 -19.817  0.00  0.00    -0.000 C 
ENDBRANCH  15  16
ENDBRANCH  14  15
ENDBRANCH  12  14
ENDBRANCH   8  11
BRANCH   1  22
ATOM     22  C   UNL     1      34.618  -9.633 -24.008  0.00  0.00    +0.097 C 
BRANCH  22  23
ATOM     23  C   UNL     1      34.485  -8.124 -24.251  0.00  0.00    +0.040 C 
BRANCH  23  24
ATOM     24  C   UNL     1      33.171  -7.490 -23.740  0.00  0.00    +0.091 C 
BRANCH  24  25
ATOM     25  N   UNL     1      32.720  -8.031 -22.447  0.00  0.00    -0.246 NA
ATOM     26  N   UNL     1      32.402  -8.368 -20.275  0.00  0.00    -0.251 NA
ATOM     27  C   UNL     1      31.885  -9.103 -22.253  0.00  0.00    +0.125 C 
ATOM     28  C   UNL     1      33.013  -7.611 -21.237  0.00  0.00    +0.201 C 
ATOM     29  C   UNL     1      31.673  -9.332 -20.914  0.00  0.00    +0.124 C 
BRANCH  29  32
ATOM     30  O   UNL     1      30.540 -10.284 -19.071  0.00  0.00    -0.269 OA
ATOM     31  N   UNL     1      30.443 -11.413 -21.049  0.00  0.00    -0.324 N 
ATOM     32  C   UNL     1      30.882 -10.330 -20.277  0.00  0.00    +0.257 C 
ATOM     33  H   UNL     1      29.894 -12.119 -20.638  0.00  0.00    +0.145 HD
ATOM     34  H   UNL     1      30.683 -11.467 -22.002  0.00  0.00    +0.145 HD
ENDBRANCH  29  32
ENDBRANCH  24  25
BRANCH  24  35
ATOM     35  C   UNL     1      33.301  -5.960 -23.667  0.00  0.00    +0.153 C 
BRANCH  35  36
ATOM     36  O   UNL     1      34.115  -5.496 -24.738  0.00  0.00    -0.381 OA
ATOM     37  H   UNL     1      34.958  -5.975 -24.735  0.00  0.00    +0.210 HD
ENDBRANCH  35  36
ENDBRANCH  24  35
ENDBRANCH  23  24
ENDBRANCH  22  23
ENDBRANCH   1  22
TORSDOF 11
ENDMDL
MODEL 8
REMARK VINA RESULT:     -10.4      3.708     10.366
REMARK  Name = 448903
REMARK  11 active torsions:
REMARK  status: ('A' for Active; 'I' for Inactive)
REMARK    1  A    between atoms: N_1  and  C_22
REMARK    2  A    between atoms: C_8  and  N_11
REMARK    3  A    between atoms: C_12  and  C_14
REMARK    4  A    between atoms: C_14  and  C_15
REMARK    5  A    between atoms: C_15  and  C_16
REMARK    6  A    between atoms: C_22  and  C_23
REMARK    7  A    between atoms: C_23  and  C_24
REMARK    8  A    between atoms: C_24  and  N_25
REMARK    9  A    between atoms: C_24  and  C_35
REMARK   10  A    between atoms: C_29  and  C_32
REMARK   11  A    between atoms: C_35  and  O_36
REMARK                            x       y       z     vdW  Elec       q    Type
REMARK                         _______ _______ _______ _____ _____    ______ ____
ROOT
ATOM      1  N   UNL     1      34.313 -21.743 -19.310  0.00  0.00    -0.286 N 
ATOM      2  C   UNL     1      34.600 -22.437 -18.155  0.00  0.00    +0.053 C 
ATOM      3  C   UNL     1      33.381 -22.849 -17.611  0.00  0.00    +0.015 C 
ATOM      4  C   UNL     1      32.960 -21.705 -19.514  0.00  0.00    +0.065 C 
ATOM      5  C   UNL     1      32.356 -22.380 -18.480  0.00  0.00    +0.017 C 
ATOM      6  C   UNL     1      35.831 -22.727 -17.558  0.00  0.00    +0.029 C 
ATOM      7  C   UNL     1      33.390 -23.588 -16.411  0.00  0.00    +0.003 C 
ATOM      8  C   UNL     1      35.815 -23.461 -16.368  0.00  0.00    +0.052 C 
ATOM      9  C   UNL     1      34.614 -23.886 -15.802  0.00  0.00    +0.015 C 
ENDROOT
BRANCH   8  11
ATOM     10  O   UNL     1      37.041 -26.127 -15.712  0.00  0.00    -0.275 OA
ATOM     11  N   UNL     1      37.022 -23.774 -15.740  0.00  0.00    -0.284 N 
ATOM     12  C   UNL     1      37.555 -25.040 -15.469  0.00  0.00    +0.226 C 
ATOM     13  H   UNL     1      37.567 -23.007 -15.450  0.00  0.00    +0.155 HD
BRANCH  12  14
ATOM     14  C   UNL     1      38.901 -24.967 -14.765  0.00  0.00    +0.090 C 
BRANCH  14  15
ATOM     15  C   UNL     1      38.815 -25.475 -13.326  0.00  0.00    +0.036 C 
BRANCH  15  16
ATOM     16  C   UNL     1      37.666 -24.879 -12.549  0.00  0.00    -0.022 C 
ATOM     17  C   UNL     1      37.736 -23.559 -12.105  0.00  0.00    -0.004 C 
ATOM     18  C   UNL     1      36.535 -25.648 -12.275  0.00  0.00    -0.004 C 
ATOM     19  C   UNL     1      36.675 -23.007 -11.386  0.00  0.00    -0.000 C 
ATOM     20  C   UNL     1      35.474 -25.097 -11.557  0.00  0.00    -0.000 C 
ATOM     21  C   UNL     1      35.544 -23.776 -11.112  0.00  0.00    -0.000 C 
ENDBRANCH  15  16
ENDBRANCH  14  15
ENDBRANCH  12  14
ENDBRANCH   8  11
BRANCH   1  22
ATOM     22  C   UNL     1      35.288 -21.138 -20.191  0.00  0.00    +0.097 C 
BRANCH  22  23
ATOM     23  C   UNL     1      34.723 -20.036 -21.098  0.00  0.00    +0.040 C 
BRANCH  23  24
ATOM     24  C   UNL     1      35.707 -19.489 -22.157  0.00  0.00    +0.091 C 
BRANCH  24  25
ATOM     25  N   UNL     1      35.053 -18.707 -23.219  0.00  0.00    -0.246 NA
ATOM     26  N   UNL     1      33.924 -18.111 -25.037  0.00  0.00    -0.251 NA
ATOM     27  C   UNL     1      35.002 -17.339 -23.317  0.00  0.00    +0.125 C 
ATOM     28  C   UNL     1      34.394 -19.142 -24.270  0.00  0.00    +0.201 C 
ATOM     29  C   UNL     1      34.308 -16.945 -24.437  0.00  0.00    +0.124 C 
BRANCH  29  32
ATOM     30  O   UNL     1      33.664 -15.382 -26.090  0.00  0.00    -0.269 OA
ATOM     31  N   UNL     1      34.117 -14.570 -24.009  0.00  0.00    -0.324 N 
ATOM     32  C   UNL     1      34.020 -15.634 -24.913  0.00  0.00    +0.257 C 
ATOM     33  H   UNL     1      33.924 -13.651 -24.307  0.00  0.00    +0.145 HD
ATOM     34  H   UNL     1      34.378 -14.739 -23.074  0.00  0.00    +0.145 HD
ENDBRANCH  29  32
ENDBRANCH  24  25
BRANCH  24  35
ATOM     35  C   UNL     1      36.818 -18.663 -21.488  0.00  0.00    +0.153 C 
BRANCH  35  36
ATOM     36  O   UNL     1      37.987 -18.687 -22.299  0.00  0.00    -0.381 OA
ATOM     37  H   UNL     1      38.734 -18.318 -21.801  0.00  0.00    +0.210 HD
ENDBRANCH  35  36
ENDBRANCH  24  35
ENDBRANCH  23  24
ENDBRANCH  22  23
ENDBRANCH   1  22
TORSDOF 11
ENDMDL
MODEL 9
REMARK VINA RESULT:     -10.4      8.917     14.506
REMARK  Name = 448903
REMARK  11 active torsions:
REMARK  status: ('A' for Active; 'I' for Inactive)
REMARK    1  A    between atoms: N_1  and  C_22
REMARK    2  A    between atoms: C_8  and  N_11
REMARK    3  A    between atoms: C_12  and  C_14
REMARK    4  A    between atoms: C_14  and  C_15
REMARK    5  A    between atoms: C_15  and  C_16
REMARK    6  A    between atoms: C_22  and  C_23
REMARK    7  A    between atoms: C_23  and  C_24
REMARK    8  A    between atoms: C_24  and  N_25
REMARK    9  A    between atoms: C_24  and  C_35
REMARK   10  A    between atoms: C_29  and  C_32
REMARK   11  A    between atoms: C_35  and  O_36
REMARK                            x       y       z     vdW  Elec       q    Type
REMARK                         _______ _______ _______ _____ _____    ______ ____
ROOT
ATOM      1  N   UNL     1      33.805 -12.462 -26.431  0.00  0.00    -0.286 N 
ATOM      2  C   UNL     1      34.145 -11.218 -25.948  0.00  0.00    +0.053 C 
ATOM      3  C   UNL     1      34.993 -10.630 -26.889  0.00  0.00    +0.015 C 
ATOM      4  C   UNL     1      34.405 -12.679 -27.642  0.00  0.00    +0.065 C 
ATOM      5  C   UNL     1      35.147 -11.563 -27.953  0.00  0.00    +0.017 C 
ATOM      6  C   UNL     1      33.772 -10.577 -24.762  0.00  0.00    +0.029 C 
ATOM      7  C   UNL     1      35.494  -9.337 -26.636  0.00  0.00    +0.003 C 
ATOM      8  C   UNL     1      34.281  -9.294 -24.533  0.00  0.00    +0.052 C 
ATOM      9  C   UNL     1      35.128  -8.683 -25.455  0.00  0.00    +0.015 C 
ENDROOT
BRANCH   8  11
ATOM     10  O   UNL     1      32.356  -7.028 -24.089  0.00  0.00    -0.275 OA
ATOM     11  N   UNL     1      33.932  -8.618 -23.363  0.00  0.00    -0.284 N 
ATOM     12  C   UNL     1      33.014  -7.572 -23.207  0.00  0.00    +0.226 C 
ATOM     13  H   UNL     1      34.390  -8.914 -22.542  0.00  0.00    +0.155 HD
BRANCH  12  14
ATOM     14  C   UNL     1      32.910  -7.097 -21.767  0.00  0.00    +0.090 C 
BRANCH  14  15
ATOM     15  C   UNL     1      31.582  -7.509 -21.130  0.00  0.00    +0.036 C 
BRANCH  15  16
ATOM     16  C   UNL     1      31.463  -8.997 -20.904  0.00  0.00    -0.022 C 
ATOM     17  C   UNL     1      31.744  -9.537 -19.650  0.00  0.00    -0.004 C 
ATOM     18  C   UNL     1      31.070  -9.831 -21.951  0.00  0.00    -0.004 C 
ATOM     19  C   UNL     1      31.634 -10.912 -19.442  0.00  0.00    -0.000 C 
ATOM     20  C   UNL     1      30.960 -11.206 -21.743  0.00  0.00    -0.000 C 
ATOM     21  C   UNL     1      31.242 -11.746 -20.488  0.00  0.00    -0.000 C 
ENDBRANCH  15  16
ENDBRANCH  14  15
ENDBRANCH  12  14
ENDBRANCH   8  11
BRANCH   1  22
ATOM     22  C   UNL     1      32.939 -13.414 -25.768  0.00  0.00    +0.097 C 
BRANCH  22  23
ATOM     23  C   UNL     1      33.597 -14.769 -25.475  0.00  0.00    +0.040 C 
BRANCH  23  24
ATOM     24  C   UNL     1      33.679 -15.149 -23.980  0.00  0.00    +0.091 C 
BRANCH  24  25
ATOM     25  N   UNL     1      34.397 -16.411 -23.731  0.00  0.00    -0.246 NA
ATOM     26  N   UNL     1      35.198 -18.474 -23.908  0.00  0.00    -0.251 NA
ATOM     27  C   UNL     1      35.210 -16.694 -22.663  0.00  0.00    +0.125 C 
ATOM     28  C   UNL     1      34.411 -17.503 -24.462  0.00  0.00    +0.201 C 
ATOM     29  C   UNL     1      35.719 -17.969 -22.751  0.00  0.00    +0.124 C 
BRANCH  29  32
ATOM     30  O   UNL     1      36.216 -19.244 -20.823  0.00  0.00    -0.269 OA
ATOM     31  N   UNL     1      37.957 -18.707 -22.193  0.00  0.00    -0.324 N 
ATOM     32  C   UNL     1      36.596 -18.660 -21.866  0.00  0.00    +0.257 C 
ATOM     33  H   UNL     1      38.589 -19.177 -21.603  0.00  0.00    +0.145 HD
ATOM     34  H   UNL     1      38.282 -18.271 -23.014  0.00  0.00    +0.145 HD
ENDBRANCH  29  32
ENDBRANCH  24  25
BRANCH  24  35
ATOM     35  C   UNL     1      34.305 -14.006 -23.164  0.00  0.00    +0.153 C 
BRANCH  35  36
ATOM     36  O   UNL     1      33.507 -13.742 -22.016  0.00  0.00    -0.381 OA
ATOM     37  H   UNL     1      33.559 -14.495 -21.406  0.00  0.00    +0.210 HD
ENDBRANCH  35  36
ENDBRANCH  24  35
ENDBRANCH  23  24
ENDBRANCH  22  23
ENDBRANCH   1  22
TORSDOF 11
ENDMDL
