MODEL 1
REMARK VINA RESULT:     -11.2      0.000      0.000
REMARK  Name = 4565
REMARK  4 active torsions:
REMARK  status: ('A' for Active; 'I' for Inactive)
REMARK    1  A    between atoms: N_5  and  C_15
REMARK    2  A    between atoms: C_6  and  O_21
REMARK    3  A    between atoms: O_21  and  C_22
REMARK    4  A    between atoms: C_22  and  C_23
REMARK                            x       y       z     vdW  Elec       q    Type
REMARK                         _______ _______ _______ _____ _____    ______ ____
ROOT
ATOM      1  N   UNL     1      32.586 -23.547 -16.058  0.00  0.00    -0.293 NA
ATOM      2  N   UNL     1      29.191 -22.809 -17.264  0.00  0.00    -0.266 NA
ATOM      3  N   UNL     1      30.814 -24.187 -14.507  0.00  0.00    -0.316 NA
ATOM      4  N   UNL     1      28.575 -23.694 -15.313  0.00  0.00    -0.296 N 
ATOM      5  N   UNL     1      33.070 -24.542 -13.994  0.00  0.00    -0.238 N 
ATOM      6  C   UNL     1      31.690 -23.080 -16.954  0.00  0.00    +0.288 C 
ATOM      7  C   UNL     1      30.350 -23.163 -16.635  0.00  0.00    +0.215 C 
ATOM      8  C   UNL     1      29.942 -23.710 -15.426  0.00  0.00    +0.196 C 
ATOM      9  C   UNL     1      32.099 -24.065 -14.904  0.00  0.00    +0.207 C 
ATOM     10  C   UNL     1      28.155 -23.147 -16.434  0.00  0.00    +0.164 C 
ATOM     11  H   UNL     1      29.113 -22.388 -18.151  0.00  0.00    +0.126 HD
ATOM     12  H   UNL     1      28.030 -24.020 -14.561  0.00  0.00    +0.150 HD
ATOM     13  H   UNL     1      32.688 -24.913 -13.165  0.00  0.00    +0.166 HD
ENDROOT
BRANCH   5  15
ATOM     14 CL   UNL     1      37.555 -23.091 -11.969  0.00  0.00    -0.082 Cl
ATOM     15  C   UNL     1      34.474 -24.590 -14.040  0.00  0.00    +0.059 C 
ATOM     16  C   UNL     1      35.232 -23.897 -13.092  0.00  0.00    +0.027 C 
ATOM     17  C   UNL     1      35.119 -25.332 -15.033  0.00  0.00    +0.015 C 
ATOM     18  C   UNL     1      36.625 -23.946 -13.138  0.00  0.00    +0.059 C 
ATOM     19  C   UNL     1      36.512 -25.381 -15.078  0.00  0.00    +0.002 C 
ATOM     20  C   UNL     1      37.265 -24.688 -14.131  0.00  0.00    +0.011 C 
ENDBRANCH   5  15
BRANCH   6  21
ATOM     21  O   UNL     1      32.149 -22.549 -18.134  0.00  0.00    -0.453 OA
BRANCH  21  22
ATOM     22  C   UNL     1      33.457 -22.911 -18.538  0.00  0.00    +0.208 C 
BRANCH  22  23
ATOM     23  C   UNL     1      33.824 -22.098 -19.777  0.00  0.00    +0.044 C 
ATOM     24  C   UNL     1      32.795 -20.985 -20.020  0.00  0.00    +0.004 C 
ATOM     25  C   UNL     1      35.238 -21.516 -19.644  0.00  0.00    +0.004 C 
ATOM     26  C   UNL     1      33.170 -20.125 -21.225  0.00  0.00    +0.000 C 
ATOM     27  C   UNL     1      35.608 -20.654 -20.849  0.00  0.00    +0.000 C 
ATOM     28  C   UNL     1      34.578 -19.554 -21.092  0.00  0.00    +0.000 C 
ENDBRANCH  22  23
ENDBRANCH  21  22
ENDBRANCH   6  21
TORSDOF 4
ENDMDL
MODEL 2
REMARK VINA RESULT:     -11.0      1.469      1.847
REMARK  Name = 4565
REMARK  4 active torsions:
REMARK  status: ('A' for Active; 'I' for Inactive)
REMARK    1  A    between atoms: N_5  and  C_15
REMARK    2  A    between atoms: C_6  and  O_21
REMARK    3  A    between atoms: O_21  and  C_22
REMARK    4  A    between atoms: C_22  and  C_23
REMARK                            x       y       z     vdW  Elec       q    Type
REMARK                         _______ _______ _______ _____ _____    ______ ____
ROOT
ATOM      1  N   UNL     1      33.210 -24.015 -15.009  0.00  0.00    -0.293 NA
ATOM      2  N   UNL     1      29.768 -24.124 -16.299  0.00  0.00    -0.266 NA
ATOM      3  N   UNL     1      31.635 -25.180 -13.553  0.00  0.00    -0.316 NA
ATOM      4  N   UNL     1      29.364 -25.245 -14.415  0.00  0.00    -0.296 N 
ATOM      5  N   UNL     1      33.893 -24.961 -12.978  0.00  0.00    -0.238 N 
ATOM      6  C   UNL     1      32.243 -23.750 -15.913  0.00  0.00    +0.288 C 
ATOM      7  C   UNL     1      30.966 -24.197 -15.646  0.00  0.00    +0.215 C 
ATOM      8  C   UNL     1      30.689 -24.898 -14.480  0.00  0.00    +0.196 C 
ATOM      9  C   UNL     1      32.851 -24.705 -13.899  0.00  0.00    +0.207 C 
ATOM     10  C   UNL     1      28.839 -24.766 -15.523  0.00  0.00    +0.164 C 
ATOM     11  H   UNL     1      29.602 -23.690 -17.167  0.00  0.00    +0.126 HD
ATOM     12  H   UNL     1      28.907 -25.743 -13.699  0.00  0.00    +0.150 HD
ATOM     13  H   UNL     1      33.604 -25.464 -12.181  0.00  0.00    +0.166 HD
ENDROOT
BRANCH   5  15
ATOM     14 CL   UNL     1      38.631 -26.028 -14.633  0.00  0.00    -0.082 Cl
ATOM     15  C   UNL     1      35.262 -24.638 -12.976  0.00  0.00    +0.059 C 
ATOM     16  C   UNL     1      36.164 -25.404 -13.718  0.00  0.00    +0.027 C 
ATOM     17  C   UNL     1      35.725 -23.550 -12.232  0.00  0.00    +0.015 C 
ATOM     18  C   UNL     1      37.521 -25.083 -13.716  0.00  0.00    +0.059 C 
ATOM     19  C   UNL     1      37.082 -23.229 -12.231  0.00  0.00    +0.002 C 
ATOM     20  C   UNL     1      37.981 -23.996 -12.973  0.00  0.00    +0.011 C 
ENDBRANCH   5  15
BRANCH   6  21
ATOM     21  O   UNL     1      32.573 -23.053 -17.050  0.00  0.00    -0.453 OA
BRANCH  21  22
ATOM     22  C   UNL     1      33.860 -23.280 -17.593  0.00  0.00    +0.208 C 
BRANCH  22  23
ATOM     23  C   UNL     1      33.930 -22.616 -18.967  0.00  0.00    +0.044 C 
ATOM     24  C   UNL     1      32.744 -21.662 -19.169  0.00  0.00    +0.004 C 
ATOM     25  C   UNL     1      35.262 -21.875 -19.143  0.00  0.00    +0.004 C 
ATOM     26  C   UNL     1      32.820 -20.945 -20.515  0.00  0.00    +0.000 C 
ATOM     27  C   UNL     1      35.333 -21.157 -20.489  0.00  0.00    +0.000 C 
ATOM     28  C   UNL     1      34.148 -20.217 -20.690  0.00  0.00    +0.000 C 
ENDBRANCH  22  23
ENDBRANCH  21  22
ENDBRANCH   6  21
TORSDOF 4
ENDMDL
MODEL 3
REMARK VINA RESULT:     -10.6      2.797      6.420
REMARK  Name = 4565
REMARK  4 active torsions:
REMARK  status: ('A' for Active; 'I' for Inactive)
REMARK    1  A    between atoms: N_5  and  C_15
REMARK    2  A    between atoms: C_6  and  O_21
REMARK    3  A    between atoms: O_21  and  C_22
REMARK    4  A    between atoms: C_22  and  C_23
REMARK                            x       y       z     vdW  Elec       q    Type
REMARK                         _______ _______ _______ _____ _____    ______ ____
ROOT
ATOM      1  N   UNL     1      33.414 -23.132 -16.414  0.00  0.00    -0.293 NA
ATOM      2  N   UNL     1      31.788 -24.778 -13.555  0.00  0.00    -0.266 NA
ATOM      3  N   UNL     1      31.052 -23.634 -16.763  0.00  0.00    -0.316 NA
ATOM      4  N   UNL     1      29.987 -24.723 -14.868  0.00  0.00    -0.296 N 
ATOM      5  N   UNL     1      32.332 -22.588 -18.418  0.00  0.00    -0.238 N 
ATOM      6  C   UNL     1      33.386 -23.661 -15.171  0.00  0.00    +0.288 C 
ATOM      7  C   UNL     1      32.192 -24.181 -14.715  0.00  0.00    +0.215 C 
ATOM      8  C   UNL     1      31.057 -24.158 -15.514  0.00  0.00    +0.196 C 
ATOM      9  C   UNL     1      32.260 -23.151 -17.124  0.00  0.00    +0.207 C 
ATOM     10  C   UNL     1      30.460 -25.084 -13.694  0.00  0.00    +0.164 C 
ATOM     11  H   UNL     1      32.347 -24.956 -12.764  0.00  0.00    +0.126 HD
ATOM     12  H   UNL     1      29.069 -24.833 -15.207  0.00  0.00    +0.150 HD
ATOM     13  H   UNL     1      31.479 -22.615 -18.911  0.00  0.00    +0.166 HD
ENDROOT
BRANCH   5  15
ATOM     14 CL   UNL     1      33.808 -19.359 -22.122  0.00  0.00    -0.082 Cl
ATOM     15  C   UNL     1      33.384 -21.997 -19.141  0.00  0.00    +0.059 C 
ATOM     16  C   UNL     1      33.108 -21.078 -20.157  0.00  0.00    +0.027 C 
ATOM     17  C   UNL     1      34.709 -22.326 -18.847  0.00  0.00    +0.015 C 
ATOM     18  C   UNL     1      34.151 -20.492 -20.872  0.00  0.00    +0.059 C 
ATOM     19  C   UNL     1      35.752 -21.739 -19.563  0.00  0.00    +0.002 C 
ATOM     20  C   UNL     1      35.473 -20.821 -20.576  0.00  0.00    +0.011 C 
ENDBRANCH   5  15
BRANCH   6  21
ATOM     21  O   UNL     1      34.539 -23.658 -14.424  0.00  0.00    -0.453 OA
BRANCH  21  22
ATOM     22  C   UNL     1      35.667 -23.012 -14.985  0.00  0.00    +0.208 C 
BRANCH  22  23
ATOM     23  C   UNL     1      36.924 -23.572 -14.323  0.00  0.00    +0.044 C 
ATOM     24  C   UNL     1      36.711 -23.742 -12.812  0.00  0.00    +0.004 C 
ATOM     25  C   UNL     1      37.331 -24.903 -14.970  0.00  0.00    +0.004 C 
ATOM     26  C   UNL     1      37.937 -24.351 -12.135  0.00  0.00    +0.000 C 
ATOM     27  C   UNL     1      38.555 -25.510 -14.288  0.00  0.00    +0.000 C 
ATOM     28  C   UNL     1      38.343 -25.669 -12.786  0.00  0.00    +0.000 C 
ENDBRANCH  22  23
ENDBRANCH  21  22
ENDBRANCH   6  21
TORSDOF 4
ENDMDL
MODEL 4
REMARK VINA RESULT:     -10.4      3.295      7.080
REMARK  Name = 4565
REMARK  4 active torsions:
REMARK  status: ('A' for Active; 'I' for Inactive)
REMARK    1  A    between atoms: N_5  and  C_15
REMARK    2  A    between atoms: C_6  and  O_21
REMARK    3  A    between atoms: O_21  and  C_22
REMARK    4  A    between atoms: C_22  and  C_23
REMARK                            x       y       z     vdW  Elec       q    Type
REMARK                         _______ _______ _______ _____ _____    ______ ____
ROOT
ATOM      1  N   UNL     1      35.207 -23.631 -16.031  0.00  0.00    -0.293 NA
ATOM      2  N   UNL     1      36.052 -25.448 -12.947  0.00  0.00    -0.266 NA
ATOM      3  N   UNL     1      37.576 -23.563 -15.450  0.00  0.00    -0.316 NA
ATOM      4  N   UNL     1      38.123 -24.766 -13.410  0.00  0.00    -0.296 N 
ATOM      5  N   UNL     1      36.759 -22.491 -17.363  0.00  0.00    -0.238 N 
ATOM      6  C   UNL     1      34.919 -24.380 -14.945  0.00  0.00    +0.288 C 
ATOM      7  C   UNL     1      35.955 -24.726 -14.103  0.00  0.00    +0.215 C 
ATOM      8  C   UNL     1      37.254 -24.313 -14.370  0.00  0.00    +0.196 C 
ATOM      9  C   UNL     1      36.501 -23.274 -16.215  0.00  0.00    +0.207 C 
ATOM     10  C   UNL     1      37.370 -25.444 -12.571  0.00  0.00    +0.164 C 
ATOM     11  H   UNL     1      35.312 -25.890 -12.471  0.00  0.00    +0.126 HD
ATOM     12  H   UNL     1      39.095 -24.617 -13.361  0.00  0.00    +0.150 HD
ATOM     13  H   UNL     1      37.707 -22.246 -17.471  0.00  0.00    +0.166 HD
ENDROOT
BRANCH   5  15
ATOM     14 CL   UNL     1      36.213 -19.436 -21.449  0.00  0.00    -0.082 Cl
ATOM     15  C   UNL     1      35.927 -21.992 -18.381  0.00  0.00    +0.059 C 
ATOM     16  C   UNL     1      36.423 -21.068 -19.304  0.00  0.00    +0.027 C 
ATOM     17  C   UNL     1      34.600 -22.420 -18.475  0.00  0.00    +0.015 C 
ATOM     18  C   UNL     1      35.598 -20.575 -20.314  0.00  0.00    +0.059 C 
ATOM     19  C   UNL     1      33.775 -21.927 -19.486  0.00  0.00    +0.002 C 
ATOM     20  C   UNL     1      34.274 -21.004 -20.405  0.00  0.00    +0.011 C 
ENDBRANCH   5  15
BRANCH   6  21
ATOM     21  O   UNL     1      33.617 -24.760 -14.729  0.00  0.00    -0.453 OA
BRANCH  21  22
ATOM     22  C   UNL     1      32.891 -24.041 -13.749  0.00  0.00    +0.208 C 
BRANCH  22  23
ATOM     23  C   UNL     1      31.432 -23.956 -14.192  0.00  0.00    +0.044 C 
ATOM     24  C   UNL     1      31.316 -23.228 -15.539  0.00  0.00    +0.004 C 
ATOM     25  C   UNL     1      30.808 -25.356 -14.273  0.00  0.00    +0.004 C 
ATOM     26  C   UNL     1      29.871 -23.177 -16.029  0.00  0.00    +0.000 C 
ATOM     27  C   UNL     1      29.364 -25.301 -14.766  0.00  0.00    +0.000 C 
ATOM     28  C   UNL     1      29.251 -24.569 -16.100  0.00  0.00    +0.000 C 
ENDBRANCH  22  23
ENDBRANCH  21  22
ENDBRANCH   6  21
TORSDOF 4
ENDMDL
MODEL 5
REMARK VINA RESULT:     -10.4      2.506      5.322
REMARK  Name = 4565
REMARK  4 active torsions:
REMARK  status: ('A' for Active; 'I' for Inactive)
REMARK    1  A    between atoms: N_5  and  C_15
REMARK    2  A    between atoms: C_6  and  O_21
REMARK    3  A    between atoms: O_21  and  C_22
REMARK    4  A    between atoms: C_22  and  C_23
REMARK                            x       y       z     vdW  Elec       q    Type
REMARK                         _______ _______ _______ _____ _____    ______ ____
ROOT
ATOM      1  N   UNL     1      35.134 -23.408 -16.509  0.00  0.00    -0.293 NA
ATOM      2  N   UNL     1      33.436 -21.913 -19.408  0.00  0.00    -0.266 NA
ATOM      3  N   UNL     1      36.595 -22.087 -17.950  0.00  0.00    -0.316 NA
ATOM      4  N   UNL     1      35.463 -21.104 -19.863  0.00  0.00    -0.296 N 
ATOM      5  N   UNL     1      37.413 -23.151 -16.033  0.00  0.00    -0.238 N 
ATOM      6  C   UNL     1      34.064 -23.157 -17.294  0.00  0.00    +0.288 C 
ATOM      7  C   UNL     1      34.250 -22.370 -18.412  0.00  0.00    +0.215 C 
ATOM      8  C   UNL     1      35.502 -21.854 -18.715  0.00  0.00    +0.196 C 
ATOM      9  C   UNL     1      36.319 -22.864 -16.881  0.00  0.00    +0.207 C 
ATOM     10  C   UNL     1      34.207 -21.160 -20.254  0.00  0.00    +0.164 C 
ATOM     11  H   UNL     1      32.472 -22.092 -19.504  0.00  0.00    +0.126 HD
ATOM     12  H   UNL     1      36.208 -20.629 -20.297  0.00  0.00    +0.150 HD
ATOM     13  H   UNL     1      38.260 -22.743 -16.327  0.00  0.00    +0.166 HD
ENDROOT
BRANCH   5  15
ATOM     14 CL   UNL     1      36.267 -23.678 -11.060  0.00  0.00    -0.082 Cl
ATOM     15  C   UNL     1      37.529 -23.906 -14.852  0.00  0.00    +0.059 C 
ATOM     16  C   UNL     1      36.913 -23.469 -13.677  0.00  0.00    +0.027 C 
ATOM     17  C   UNL     1      38.261 -25.096 -14.849  0.00  0.00    +0.015 C 
ATOM     18  C   UNL     1      37.028 -24.219 -12.507  0.00  0.00    +0.059 C 
ATOM     19  C   UNL     1      38.375 -25.845 -13.678  0.00  0.00    +0.002 C 
ATOM     20  C   UNL     1      37.758 -25.406 -12.506  0.00  0.00    +0.011 C 
ENDBRANCH   5  15
BRANCH   6  21
ATOM     21  O   UNL     1      32.848 -23.693 -16.946  0.00  0.00    -0.453 OA
BRANCH  21  22
ATOM     22  C   UNL     1      32.495 -23.653 -15.576  0.00  0.00    +0.208 C 
BRANCH  22  23
ATOM     23  C   UNL     1      30.973 -23.594 -15.469  0.00  0.00    +0.044 C 
ATOM     24  C   UNL     1      30.370 -22.892 -16.694  0.00  0.00    +0.004 C 
ATOM     25  C   UNL     1      30.386 -25.003 -15.304  0.00  0.00    +0.004 C 
ATOM     26  C   UNL     1      28.845 -22.867 -16.636  0.00  0.00    +0.000 C 
ATOM     27  C   UNL     1      28.860 -24.974 -15.249  0.00  0.00    +0.000 C 
ATOM     28  C   UNL     1      28.266 -24.267 -16.463  0.00  0.00    +0.000 C 
ENDBRANCH  22  23
ENDBRANCH  21  22
ENDBRANCH   6  21
TORSDOF 4
ENDMDL
MODEL 6
REMARK VINA RESULT:     -10.2      2.727      5.337
REMARK  Name = 4565
REMARK  4 active torsions:
REMARK  status: ('A' for Active; 'I' for Inactive)
REMARK    1  A    between atoms: N_5  and  C_15
REMARK    2  A    between atoms: C_6  and  O_21
REMARK    3  A    between atoms: O_21  and  C_22
REMARK    4  A    between atoms: C_22  and  C_23
REMARK                            x       y       z     vdW  Elec       q    Type
REMARK                         _______ _______ _______ _____ _____    ______ ____
ROOT
ATOM      1  N   UNL     1      33.390 -23.769 -15.574  0.00  0.00    -0.293 NA
ATOM      2  N   UNL     1      36.992 -23.110 -15.238  0.00  0.00    -0.266 NA
ATOM      3  N   UNL     1      34.247 -24.043 -13.306  0.00  0.00    -0.316 NA
ATOM      4  N   UNL     1      36.629 -23.607 -13.095  0.00  0.00    -0.296 N 
ATOM      5  N   UNL     1      31.989 -24.399 -13.807  0.00  0.00    -0.238 N 
ATOM      6  C   UNL     1      34.612 -23.431 -16.040  0.00  0.00    +0.288 C 
ATOM      7  C   UNL     1      35.660 -23.397 -15.145  0.00  0.00    +0.215 C 
ATOM      8  C   UNL     1      35.459 -23.702 -13.805  0.00  0.00    +0.196 C 
ATOM      9  C   UNL     1      33.284 -24.051 -14.253  0.00  0.00    +0.207 C 
ATOM     10  C   UNL     1      37.530 -23.249 -13.985  0.00  0.00    +0.164 C 
ATOM     11  H   UNL     1      37.478 -22.852 -16.054  0.00  0.00    +0.126 HD
ATOM     12  H   UNL     1      36.764 -23.769 -12.134  0.00  0.00    +0.150 HD
ATOM     13  H   UNL     1      31.942 -24.598 -12.843  0.00  0.00    +0.166 HD
ENDROOT
BRANCH   5  15
ATOM     14 CL   UNL     1      28.042 -22.086 -16.130  0.00  0.00    -0.082 Cl
ATOM     15  C   UNL     1      30.754 -24.518 -14.469  0.00  0.00    +0.059 C 
ATOM     16  C   UNL     1      30.086 -23.376 -14.919  0.00  0.00    +0.027 C 
ATOM     17  C   UNL     1      30.190 -25.779 -14.682  0.00  0.00    +0.015 C 
ATOM     18  C   UNL     1      28.863 -23.495 -15.577  0.00  0.00    +0.059 C 
ATOM     19  C   UNL     1      28.967 -25.897 -15.340  0.00  0.00    +0.002 C 
ATOM     20  C   UNL     1      28.302 -24.755 -15.788  0.00  0.00    +0.011 C 
ENDBRANCH   5  15
BRANCH   6  21
ATOM     21  O   UNL     1      34.754 -23.140 -17.375  0.00  0.00    -0.453 OA
BRANCH  21  22
ATOM     22  C   UNL     1      33.568 -23.018 -18.137  0.00  0.00    +0.208 C 
BRANCH  22  23
ATOM     23  C   UNL     1      33.901 -22.295 -19.440  0.00  0.00    +0.044 C 
ATOM     24  C   UNL     1      32.874 -21.190 -19.725  0.00  0.00    +0.004 C 
ATOM     25  C   UNL     1      35.323 -21.719 -19.392  0.00  0.00    +0.004 C 
ATOM     26  C   UNL     1      33.216 -20.416 -20.996  0.00  0.00    +0.000 C 
ATOM     27  C   UNL     1      35.660 -20.944 -20.664  0.00  0.00    +0.000 C 
ATOM     28  C   UNL     1      34.632 -19.853 -20.949  0.00  0.00    +0.000 C 
ENDBRANCH  22  23
ENDBRANCH  21  22
ENDBRANCH   6  21
TORSDOF 4
ENDMDL
MODEL 7
REMARK VINA RESULT:     -10.2      2.902      5.643
REMARK  Name = 4565
REMARK  4 active torsions:
REMARK  status: ('A' for Active; 'I' for Inactive)
REMARK    1  A    between atoms: N_5  and  C_15
REMARK    2  A    between atoms: C_6  and  O_21
REMARK    3  A    between atoms: O_21  and  C_22
REMARK    4  A    between atoms: C_22  and  C_23
REMARK                            x       y       z     vdW  Elec       q    Type
REMARK                         _______ _______ _______ _____ _____    ______ ____
ROOT
ATOM      1  N   UNL     1      34.653 -23.767 -15.547  0.00  0.00    -0.293 NA
ATOM      2  N   UNL     1      38.318 -23.936 -15.797  0.00  0.00    -0.266 NA
ATOM      3  N   UNL     1      35.718 -25.032 -13.753  0.00  0.00    -0.316 NA
ATOM      4  N   UNL     1      38.140 -25.138 -13.928  0.00  0.00    -0.296 N 
ATOM      5  N   UNL     1      33.395 -24.764 -13.841  0.00  0.00    -0.238 N 
ATOM      6  C   UNL     1      35.845 -23.499 -16.123  0.00  0.00    +0.288 C 
ATOM      7  C   UNL     1      36.982 -23.996 -15.520  0.00  0.00    +0.215 C 
ATOM      8  C   UNL     1      36.897 -24.747 -14.356  0.00  0.00    +0.196 C 
ATOM      9  C   UNL     1      34.663 -24.507 -14.412  0.00  0.00    +0.207 C 
ATOM     10  C   UNL     1      38.971 -24.634 -14.816  0.00  0.00    +0.164 C 
ATOM     11  H   UNL     1      38.736 -23.476 -16.561  0.00  0.00    +0.126 HD
ATOM     12  H   UNL     1      38.362 -25.676 -13.134  0.00  0.00    +0.150 HD
ATOM     13  H   UNL     1      33.433 -25.304 -13.018  0.00  0.00    +0.166 HD
ENDROOT
BRANCH   5  15
ATOM     14 CL   UNL     1      28.517 -26.167 -14.588  0.00  0.00    -0.082 Cl
ATOM     15  C   UNL     1      32.091 -24.401 -14.219  0.00  0.00    +0.059 C 
ATOM     16  C   UNL     1      31.068 -25.353 -14.217  0.00  0.00    +0.027 C 
ATOM     17  C   UNL     1      31.811 -23.085 -14.599  0.00  0.00    +0.015 C 
ATOM     18  C   UNL     1      29.775 -24.991 -14.592  0.00  0.00    +0.059 C 
ATOM     19  C   UNL     1      30.517 -22.724 -14.973  0.00  0.00    +0.002 C 
ATOM     20  C   UNL     1      29.498 -23.678 -14.969  0.00  0.00    +0.011 C 
ENDBRANCH   5  15
BRANCH   6  21
ATOM     21  O   UNL     1      35.870 -22.751 -17.275  0.00  0.00    -0.453 OA
BRANCH  21  22
ATOM     22  C   UNL     1      34.792 -22.920 -18.175  0.00  0.00    +0.208 C 
BRANCH  22  23
ATOM     23  C   UNL     1      34.632 -21.635 -18.986  0.00  0.00    +0.044 C 
ATOM     24  C   UNL     1      35.813 -21.453 -19.950  0.00  0.00    +0.004 C 
ATOM     25  C   UNL     1      33.300 -21.637 -19.748  0.00  0.00    +0.004 C 
ATOM     26  C   UNL     1      35.649 -20.202 -20.810  0.00  0.00    +0.000 C 
ATOM     27  C   UNL     1      33.142 -20.386 -20.609  0.00  0.00    +0.000 C 
ATOM     28  C   UNL     1      34.321 -20.203 -21.559  0.00  0.00    +0.000 C 
ENDBRANCH  22  23
ENDBRANCH  21  22
ENDBRANCH   6  21
TORSDOF 4
ENDMDL
MODEL 8
REMARK VINA RESULT:     -10.0      3.227      6.966
REMARK  Name = 4565
REMARK  4 active torsions:
REMARK  status: ('A' for Active; 'I' for Inactive)
REMARK    1  A    between atoms: N_5  and  C_15
REMARK    2  A    between atoms: C_6  and  O_21
REMARK    3  A    between atoms: O_21  and  C_22
REMARK    4  A    between atoms: C_22  and  C_23
REMARK                            x       y       z     vdW  Elec       q    Type
REMARK                         _______ _______ _______ _____ _____    ______ ____
ROOT
ATOM      1  N   UNL     1      35.461 -23.884 -15.890  0.00  0.00    -0.293 NA
ATOM      2  N   UNL     1      36.180 -25.790 -12.829  0.00  0.00    -0.266 NA
ATOM      3  N   UNL     1      37.756 -23.660 -15.091  0.00  0.00    -0.316 NA
ATOM      4  N   UNL     1      38.220 -24.923 -13.067  0.00  0.00    -0.296 N 
ATOM      5  N   UNL     1      37.024 -22.554 -17.019  0.00  0.00    -0.238 N 
ATOM      6  C   UNL     1      35.142 -24.710 -14.870  0.00  0.00    +0.288 C 
ATOM      7  C   UNL     1      36.126 -25.018 -13.953  0.00  0.00    +0.215 C 
ATOM      8  C   UNL     1      37.404 -24.490 -14.081  0.00  0.00    +0.196 C 
ATOM      9  C   UNL     1      36.732 -23.416 -15.937  0.00  0.00    +0.207 C 
ATOM     10  C   UNL     1      37.455 -25.703 -12.333  0.00  0.00    +0.164 C 
ATOM     11  H   UNL     1      35.441 -26.314 -12.444  0.00  0.00    +0.126 HD
ATOM     12  H   UNL     1      39.168 -24.701 -12.922  0.00  0.00    +0.150 HD
ATOM     13  H   UNL     1      37.954 -22.230 -17.028  0.00  0.00    +0.166 HD
ENDROOT
BRANCH   5  15
ATOM     14 CL   UNL     1      32.403 -22.121 -19.206  0.00  0.00    -0.082 Cl
ATOM     15  C   UNL     1      36.246 -22.070 -18.086  0.00  0.00    +0.059 C 
ATOM     16  C   UNL     1      34.869 -22.308 -18.115  0.00  0.00    +0.027 C 
ATOM     17  C   UNL     1      36.846 -21.347 -19.121  0.00  0.00    +0.015 C 
ATOM     18  C   UNL     1      34.099 -21.826 -19.173  0.00  0.00    +0.059 C 
ATOM     19  C   UNL     1      36.074 -20.865 -20.178  0.00  0.00    +0.002 C 
ATOM     20  C   UNL     1      34.700 -21.105 -20.204  0.00  0.00    +0.011 C 
ENDBRANCH   5  15
BRANCH   6  21
ATOM     21  O   UNL     1      33.862 -25.202 -14.793  0.00  0.00    -0.453 OA
BRANCH  21  22
ATOM     22  C   UNL     1      32.884 -24.363 -14.208  0.00  0.00    +0.208 C 
BRANCH  22  23
ATOM     23  C   UNL     1      31.617 -24.430 -15.058  0.00  0.00    +0.044 C 
ATOM     24  C   UNL     1      30.434 -24.949 -14.227  0.00  0.00    +0.004 C 
ATOM     25  C   UNL     1      31.297 -23.057 -15.664  0.00  0.00    +0.004 C 
ATOM     26  C   UNL     1      29.143 -24.975 -15.041  0.00  0.00    +0.000 C 
ATOM     27  C   UNL     1      30.004 -23.087 -16.475  0.00  0.00    +0.000 C 
ATOM     28  C   UNL     1      28.833 -23.611 -15.649  0.00  0.00    +0.000 C 
ENDBRANCH  22  23
ENDBRANCH  21  22
ENDBRANCH   6  21
TORSDOF 4
ENDMDL
MODEL 9
REMARK VINA RESULT:     -10.0      2.731      5.751
REMARK  Name = 4565
REMARK  4 active torsions:
REMARK  status: ('A' for Active; 'I' for Inactive)
REMARK    1  A    between atoms: N_5  and  C_15
REMARK    2  A    between atoms: C_6  and  O_21
REMARK    3  A    between atoms: O_21  and  C_22
REMARK    4  A    between atoms: C_22  and  C_23
REMARK                            x       y       z     vdW  Elec       q    Type
REMARK                         _______ _______ _______ _____ _____    ______ ____
ROOT
ATOM      1  N   UNL     1      34.994 -22.806 -17.620  0.00  0.00    -0.293 NA
ATOM      2  N   UNL     1      33.459 -21.207 -20.555  0.00  0.00    -0.266 NA
ATOM      3  N   UNL     1      36.453 -21.224 -18.772  0.00  0.00    -0.316 NA
ATOM      4  N   UNL     1      35.429 -20.175 -20.710  0.00  0.00    -0.296 N 
ATOM      5  N   UNL     1      37.173 -22.385 -16.872  0.00  0.00    -0.238 N 
ATOM      6  C   UNL     1      33.990 -22.582 -18.495  0.00  0.00    +0.288 C 
ATOM      7  C   UNL     1      34.209 -21.679 -19.515  0.00  0.00    +0.215 C 
ATOM      8  C   UNL     1      35.427 -21.023 -19.632  0.00  0.00    +0.196 C 
ATOM      9  C   UNL     1      36.148 -22.122 -17.809  0.00  0.00    +0.207 C 
ATOM     10  C   UNL     1      34.233 -20.309 -21.242  0.00  0.00    +0.164 C 
ATOM     11  H   UNL     1      32.534 -21.465 -20.772  0.00  0.00    +0.126 HD
ATOM     12  H   UNL     1      36.162 -19.594 -21.017  0.00  0.00    +0.150 HD
ATOM     13  H   UNL     1      38.000 -21.875 -17.034  0.00  0.00    +0.166 HD
ENDROOT
BRANCH   5  15
ATOM     14 CL   UNL     1      39.721 -26.028 -14.311  0.00  0.00    -0.082 Cl
ATOM     15  C   UNL     1      37.243 -23.234 -15.753  0.00  0.00    +0.059 C 
ATOM     16  C   UNL     1      38.322 -24.110 -15.603  0.00  0.00    +0.027 C 
ATOM     17  C   UNL     1      36.235 -23.206 -14.786  0.00  0.00    +0.015 C 
ATOM     18  C   UNL     1      38.391 -24.951 -14.493  0.00  0.00    +0.059 C 
ATOM     19  C   UNL     1      36.305 -24.047 -13.676  0.00  0.00    +0.002 C 
ATOM     20  C   UNL     1      37.383 -24.920 -13.529  0.00  0.00    +0.011 C 
ENDBRANCH   5  15
BRANCH   6  21
ATOM     21  O   UNL     1      32.806 -23.259 -18.332  0.00  0.00    -0.453 OA
BRANCH  21  22
ATOM     22  C   UNL     1      31.941 -22.803 -17.309  0.00  0.00    +0.208 C 
BRANCH  22  23
ATOM     23  C   UNL     1      31.757 -23.929 -16.293  0.00  0.00    +0.044 C 
ATOM     24  C   UNL     1      32.537 -23.629 -15.005  0.00  0.00    +0.004 C 
ATOM     25  C   UNL     1      30.269 -24.149 -15.991  0.00  0.00    +0.004 C 
ATOM     26  C   UNL     1      32.326 -24.716 -13.953  0.00  0.00    +0.000 C 
ATOM     27  C   UNL     1      30.062 -25.234 -14.937  0.00  0.00    +0.000 C 
ATOM     28  C   UNL     1      30.846 -24.938 -13.662  0.00  0.00    +0.000 C 
ENDBRANCH  22  23
ENDBRANCH  21  22
ENDBRANCH   6  21
TORSDOF 4
ENDMDL
