MODEL 1
REMARK VINA RESULT:     -11.2      0.000      0.000
REMARK  Name = 10050566
REMARK  9 active torsions:
REMARK  status: ('A' for Active; 'I' for Inactive)
REMARK    1  A    between atoms: C_2  and  N_11
REMARK    2  A    between atoms: C_3  and  O_22
REMARK    3  A    between atoms: C_12  and  C_14
REMARK    4  A    between atoms: C_19  and  O_20
REMARK    5  A    between atoms: O_22  and  C_24
REMARK    6  A    between atoms: C_24  and  C_25
REMARK    7  A    between atoms: C_30  and  C_32
REMARK    8  A    between atoms: C_32  and  C_33
REMARK    9  A    between atoms: C_34  and  O_39
REMARK                            x       y       z     vdW  Elec       q    Type
REMARK                         _______ _______ _______ _____ _____    ______ ____
ROOT
ATOM      1  N   UNL     1      32.068 -22.181 -14.575  0.00  0.00    +0.385 N 
ATOM      2  C   UNL     1      34.138 -23.200 -15.543  0.00  0.00    +0.091 C 
ATOM      3  C   UNL     1      33.387 -23.994 -16.626  0.00  0.00    +0.185 C 
ATOM      4  C   UNL     1      32.180 -24.814 -16.158  0.00  0.00    +0.043 C 
ATOM      5  C   UNL     1      33.342 -22.837 -14.284  0.00  0.00    -0.058 C 
ATOM      6  C   UNL     1      30.913 -24.008 -15.862  0.00  0.00    -0.020 C 
ATOM      7  C   UNL     1      30.966 -23.144 -14.607  0.00  0.00    -0.082 C 
ATOM      8  H   UNL     1      32.132 -21.720 -15.482  0.00  0.00    -0.084 HD
ATOM      9  H   UNL     1      31.880 -21.504 -13.835  0.00  0.00    -0.084 HD
ENDROOT
BRANCH   2  11
ATOM     10  O   UNL     1      36.853 -22.404 -16.019  0.00  0.00    -0.270 OA
ATOM     11  N   UNL     1      35.333 -23.921 -15.148  0.00  0.00    -0.301 N 
ATOM     12  C   UNL     1      36.601 -23.449 -15.426  0.00  0.00    +0.246 C 
ATOM     13  H   UNL     1      35.237 -24.775 -14.666  0.00  0.00    +0.150 HD
BRANCH  12  14
ATOM     14  C   UNL     1      37.721 -24.318 -14.979  0.00  0.00    +0.054 C 
ATOM     15  C   UNL     1      38.869 -24.369 -15.742  0.00  0.00    +0.008 C 
ATOM     16  C   UNL     1      37.577 -25.046 -13.816  0.00  0.00    +0.008 C 
ATOM     17  C   UNL     1      39.921 -25.184 -15.323  0.00  0.00    +0.037 C 
ATOM     18  C   UNL     1      38.628 -25.861 -13.397  0.00  0.00    +0.037 C 
ATOM     19  C   UNL     1      39.800 -25.930 -14.151  0.00  0.00    +0.134 C 
BRANCH  19  20
ATOM     20  O   UNL     1      40.827 -26.723 -13.740  0.00  0.00    -0.506 OA
ATOM     21  H   UNL     1      41.610 -26.337 -13.399  0.00  0.00    +0.292 HD
ENDBRANCH  19  20
ENDBRANCH  12  14
ENDBRANCH   2  11
BRANCH   3  22
ATOM     22  O   UNL     1      32.996 -23.107 -17.679  0.00  0.00    -0.448 OA
BRANCH  22  24
ATOM     23  O   UNL     1      33.437 -24.534 -19.429  0.00  0.00    -0.245 OA
ATOM     24  C   UNL     1      33.454 -23.427 -18.915  0.00  0.00    +0.341 C 
BRANCH  24  25
ATOM     25  C   UNL     1      34.000 -22.223 -19.590  0.00  0.00    +0.076 C 
ATOM     26  C   UNL     1      33.122 -21.309 -20.136  0.00  0.00    +0.007 C 
ATOM     27  C   UNL     1      35.368 -22.056 -19.653  0.00  0.00    +0.007 C 
ATOM     28  C   UNL     1      33.635 -20.178 -20.772  0.00  0.00    +0.003 C 
ATOM     29  C   UNL     1      35.881 -20.925 -20.288  0.00  0.00    +0.003 C 
ATOM     30  C   UNL     1      35.014 -19.985 -20.848  0.00  0.00    +0.039 C 
BRANCH  30  32
ATOM     31  O   UNL     1      36.525 -18.210 -21.033  0.00  0.00    -0.286 OA
ATOM     32  C   UNL     1      35.549 -18.807 -21.511  0.00  0.00    +0.198 C 
BRANCH  32  33
ATOM     33  C   UNL     1      34.964 -18.265 -22.774  0.00  0.00    +0.073 C 
ATOM     34  C   UNL     1      34.751 -16.911 -22.897  0.00  0.00    +0.137 C 
ATOM     35  C   UNL     1      34.659 -19.159 -23.775  0.00  0.00    +0.006 C 
ATOM     36  C   UNL     1      34.204 -16.425 -24.083  0.00  0.00    +0.037 C 
ATOM     37  C   UNL     1      34.113 -18.673 -24.963  0.00  0.00    +0.000 C 
ATOM     38  C   UNL     1      33.885 -17.306 -25.116  0.00  0.00    +0.003 C 
BRANCH  34  39
ATOM     39  O   UNL     1      35.056 -16.034 -21.899  0.00  0.00    -0.505 OA
ATOM     40  H   UNL     1      35.500 -16.334 -21.130  0.00  0.00    +0.292 HD
ENDBRANCH  34  39
ENDBRANCH  32  33
ENDBRANCH  30  32
ENDBRANCH  24  25
ENDBRANCH  22  24
ENDBRANCH   3  22
TORSDOF 9
ENDMDL
MODEL 2
REMARK VINA RESULT:     -11.1      1.072      1.728
REMARK  Name = 10050566
REMARK  9 active torsions:
REMARK  status: ('A' for Active; 'I' for Inactive)
REMARK    1  A    between atoms: C_2  and  N_11
REMARK    2  A    between atoms: C_3  and  O_22
REMARK    3  A    between atoms: C_12  and  C_14
REMARK    4  A    between atoms: C_19  and  O_20
REMARK    5  A    between atoms: O_22  and  C_24
REMARK    6  A    between atoms: C_24  and  C_25
REMARK    7  A    between atoms: C_30  and  C_32
REMARK    8  A    between atoms: C_32  and  C_33
REMARK    9  A    between atoms: C_34  and  O_39
REMARK                            x       y       z     vdW  Elec       q    Type
REMARK                         _______ _______ _______ _____ _____    ______ ____
ROOT
ATOM      1  N   UNL     1      32.247 -22.186 -14.753  0.00  0.00    +0.385 N 
ATOM      2  C   UNL     1      34.433 -23.021 -15.638  0.00  0.00    +0.091 C 
ATOM      3  C   UNL     1      33.826 -23.607 -16.926  0.00  0.00    +0.185 C 
ATOM      4  C   UNL     1      32.588 -24.494 -16.755  0.00  0.00    +0.043 C 
ATOM      5  C   UNL     1      33.491 -22.887 -14.437  0.00  0.00    -0.058 C 
ATOM      6  C   UNL     1      31.281 -23.750 -16.470  0.00  0.00    -0.020 C 
ATOM      7  C   UNL     1      31.174 -23.124 -15.084  0.00  0.00    -0.082 C 
ATOM      8  H   UNL     1      32.407 -21.570 -15.550  0.00  0.00    -0.084 HD
ATOM      9  H   UNL     1      31.964 -21.651 -13.932  0.00  0.00    -0.084 HD
ENDROOT
BRANCH   2  11
ATOM     10  O   UNL     1      37.189 -22.285 -15.946  0.00  0.00    -0.270 OA
ATOM     11  N   UNL     1      35.587 -23.805 -15.241  0.00  0.00    -0.301 N 
ATOM     12  C   UNL     1      36.880 -23.358 -15.434  0.00  0.00    +0.246 C 
ATOM     13  H   UNL     1      35.445 -24.684 -14.821  0.00  0.00    +0.150 HD
BRANCH  12  14
ATOM     14  C   UNL     1      37.952 -24.290 -14.998  0.00  0.00    +0.054 C 
ATOM     15  C   UNL     1      37.799 -24.969 -13.807  0.00  0.00    +0.008 C 
ATOM     16  C   UNL     1      39.067 -24.446 -15.796  0.00  0.00    +0.008 C 
ATOM     17  C   UNL     1      38.805 -25.844 -13.396  0.00  0.00    +0.037 C 
ATOM     18  C   UNL     1      40.072 -25.321 -15.386  0.00  0.00    +0.037 C 
ATOM     19  C   UNL     1      39.941 -26.020 -14.186  0.00  0.00    +0.134 C 
BRANCH  19  20
ATOM     20  O   UNL     1      40.921 -26.876 -13.787  0.00  0.00    -0.506 OA
ATOM     21  H   UNL     1      41.821 -26.627 -13.869  0.00  0.00    +0.292 HD
ENDBRANCH  19  20
ENDBRANCH  12  14
ENDBRANCH   2  11
BRANCH   3  22
ATOM     22  O   UNL     1      33.544 -22.545 -17.842  0.00  0.00    -0.448 OA
BRANCH  22  24
ATOM     23  O   UNL     1      33.452 -23.900 -19.700  0.00  0.00    -0.245 OA
ATOM     24  C   UNL     1      33.719 -22.841 -19.154  0.00  0.00    +0.341 C 
BRANCH  24  25
ATOM     25  C   UNL     1      34.298 -21.678 -19.872  0.00  0.00    +0.076 C 
ATOM     26  C   UNL     1      33.453 -20.835 -20.566  0.00  0.00    +0.007 C 
ATOM     27  C   UNL     1      35.662 -21.476 -19.826  0.00  0.00    +0.007 C 
ATOM     28  C   UNL     1      33.998 -19.743 -21.243  0.00  0.00    +0.003 C 
ATOM     29  C   UNL     1      36.206 -20.385 -20.501  0.00  0.00    +0.003 C 
ATOM     30  C   UNL     1      35.374 -19.517 -21.210  0.00  0.00    +0.039 C 
BRANCH  30  32
ATOM     31  O   UNL     1      37.057 -18.467 -22.448  0.00  0.00    -0.286 OA
ATOM     32  C   UNL     1      35.941 -18.379 -21.915  0.00  0.00    +0.198 C 
BRANCH  32  33
ATOM     33  C   UNL     1      35.226 -17.071 -22.030  0.00  0.00    +0.073 C 
ATOM     34  C   UNL     1      34.992 -16.533 -23.274  0.00  0.00    +0.137 C 
ATOM     35  C   UNL     1      34.826 -16.455 -20.865  0.00  0.00    +0.006 C 
ATOM     36  C   UNL     1      34.324 -15.312 -23.359  0.00  0.00    +0.037 C 
ATOM     37  C   UNL     1      34.157 -15.235 -20.950  0.00  0.00    +0.000 C 
ATOM     38  C   UNL     1      33.906 -14.663 -22.197  0.00  0.00    +0.003 C 
BRANCH  34  39
ATOM     39  O   UNL     1      35.392 -17.152 -24.420  0.00  0.00    -0.505 OA
ATOM     40  H   UNL     1      34.777 -17.301 -25.112  0.00  0.00    +0.292 HD
ENDBRANCH  34  39
ENDBRANCH  32  33
ENDBRANCH  30  32
ENDBRANCH  24  25
ENDBRANCH  22  24
ENDBRANCH   3  22
TORSDOF 9
ENDMDL
MODEL 3
REMARK VINA RESULT:     -10.6      7.941     15.304
REMARK  Name = 10050566
REMARK  9 active torsions:
REMARK  status: ('A' for Active; 'I' for Inactive)
REMARK    1  A    between atoms: C_2  and  N_11
REMARK    2  A    between atoms: C_3  and  O_22
REMARK    3  A    between atoms: C_12  and  C_14
REMARK    4  A    between atoms: C_19  and  O_20
REMARK    5  A    between atoms: O_22  and  C_24
REMARK    6  A    between atoms: C_24  and  C_25
REMARK    7  A    between atoms: C_30  and  C_32
REMARK    8  A    between atoms: C_32  and  C_33
REMARK    9  A    between atoms: C_34  and  O_39
REMARK                            x       y       z     vdW  Elec       q    Type
REMARK                         _______ _______ _______ _____ _____    ______ ____
ROOT
ATOM      1  N   UNL     1      36.005 -10.395 -26.891  0.00  0.00    +0.385 N 
ATOM      2  C   UNL     1      34.322  -9.382 -25.343  0.00  0.00    +0.091 C 
ATOM      3  C   UNL     1      33.473 -10.661 -25.232  0.00  0.00    +0.185 C 
ATOM      4  C   UNL     1      33.103 -11.351 -26.550  0.00  0.00    +0.043 C 
ATOM      5  C   UNL     1      35.168  -9.229 -26.611  0.00  0.00    -0.058 C 
ATOM      6  C   UNL     1      34.230 -12.147 -27.213  0.00  0.00    -0.020 C 
ATOM      7  C   UNL     1      35.350 -11.312 -27.824  0.00  0.00    -0.082 C 
ATOM      8  H   UNL     1      36.192 -10.888 -26.017  0.00  0.00    -0.084 HD
ATOM      9  H   UNL     1      36.874 -10.071 -27.317  0.00  0.00    -0.084 HD
ENDROOT
BRANCH   2  11
ATOM     10  O   UNL     1      35.016  -6.886 -24.109  0.00  0.00    -0.270 OA
ATOM     11  N   UNL     1      33.468  -8.216 -25.208  0.00  0.00    -0.301 N 
ATOM     12  C   UNL     1      33.901  -7.056 -24.594  0.00  0.00    +0.246 C 
ATOM     13  H   UNL     1      32.552  -8.252 -25.566  0.00  0.00    +0.150 HD
BRANCH  12  14
ATOM     14  C   UNL     1      32.899  -5.962 -24.512  0.00  0.00    +0.054 C 
ATOM     15  C   UNL     1      31.606  -6.270 -24.141  0.00  0.00    +0.008 C 
ATOM     16  C   UNL     1      33.291  -4.674 -24.811  0.00  0.00    +0.008 C 
ATOM     17  C   UNL     1      30.665  -5.244 -24.063  0.00  0.00    +0.037 C 
ATOM     18  C   UNL     1      32.350  -3.648 -24.733  0.00  0.00    +0.037 C 
ATOM     19  C   UNL     1      31.036  -3.933 -24.359  0.00  0.00    +0.134 C 
BRANCH  19  20
ATOM     20  O   UNL     1      30.119  -2.931 -24.282  0.00  0.00    -0.506 OA
ATOM     21  H   UNL     1      29.831  -2.500 -25.062  0.00  0.00    +0.292 HD
ENDBRANCH  19  20
ENDBRANCH  12  14
ENDBRANCH   2  11
BRANCH   3  22
ATOM     22  O   UNL     1      34.127 -11.589 -24.362  0.00  0.00    -0.448 OA
BRANCH  22  24
ATOM     23  O   UNL     1      32.399 -11.916 -22.877  0.00  0.00    -0.245 OA
ATOM     24  C   UNL     1      33.308 -12.333 -23.578  0.00  0.00    +0.341 C 
BRANCH  24  25
ATOM     25  C   UNL     1      33.666 -13.771 -23.676  0.00  0.00    +0.076 C 
ATOM     26  C   UNL     1      33.401 -14.445 -24.851  0.00  0.00    +0.007 C 
ATOM     27  C   UNL     1      34.250 -14.389 -22.590  0.00  0.00    +0.007 C 
ATOM     28  C   UNL     1      33.737 -15.796 -24.943  0.00  0.00    +0.003 C 
ATOM     29  C   UNL     1      34.586 -15.739 -22.681  0.00  0.00    +0.003 C 
ATOM     30  C   UNL     1      34.329 -16.444 -23.859  0.00  0.00    +0.039 C 
BRANCH  30  32
ATOM     31  O   UNL     1      34.483 -18.474 -25.009  0.00  0.00    -0.286 OA
ATOM     32  C   UNL     1      34.678 -17.851 -23.955  0.00  0.00    +0.198 C 
BRANCH  32  33
ATOM     33  C   UNL     1      35.276 -18.607 -22.812  0.00  0.00    +0.073 C 
ATOM     34  C   UNL     1      34.496 -19.490 -22.101  0.00  0.00    +0.137 C 
ATOM     35  C   UNL     1      36.602 -18.383 -22.520  0.00  0.00    +0.006 C 
ATOM     36  C   UNL     1      35.073 -20.185 -21.039  0.00  0.00    +0.037 C 
ATOM     37  C   UNL     1      37.180 -19.079 -21.458  0.00  0.00    +0.000 C 
ATOM     38  C   UNL     1      36.415 -19.980 -20.717  0.00  0.00    +0.003 C 
BRANCH  34  39
ATOM     39  O   UNL     1      33.184 -19.704 -22.399  0.00  0.00    -0.505 OA
ATOM     40  H   UNL     1      32.908 -19.755 -23.294  0.00  0.00    +0.292 HD
ENDBRANCH  34  39
ENDBRANCH  32  33
ENDBRANCH  30  32
ENDBRANCH  24  25
ENDBRANCH  22  24
ENDBRANCH   3  22
TORSDOF 9
ENDMDL
MODEL 4
REMARK VINA RESULT:     -10.6     10.128     15.462
REMARK  Name = 10050566
REMARK  9 active torsions:
REMARK  status: ('A' for Active; 'I' for Inactive)
REMARK    1  A    between atoms: C_2  and  N_11
REMARK    2  A    between atoms: C_3  and  O_22
REMARK    3  A    between atoms: C_12  and  C_14
REMARK    4  A    between atoms: C_19  and  O_20
REMARK    5  A    between atoms: O_22  and  C_24
REMARK    6  A    between atoms: C_24  and  C_25
REMARK    7  A    between atoms: C_30  and  C_32
REMARK    8  A    between atoms: C_32  and  C_33
REMARK    9  A    between atoms: C_34  and  O_39
REMARK                            x       y       z     vdW  Elec       q    Type
REMARK                         _______ _______ _______ _____ _____    ______ ____
ROOT
ATOM      1  N   UNL     1      34.359 -10.403 -27.167  0.00  0.00    +0.385 N 
ATOM      2  C   UNL     1      33.782 -11.576 -25.034  0.00  0.00    +0.091 C 
ATOM      3  C   UNL     1      33.833 -10.300 -24.176  0.00  0.00    +0.185 C 
ATOM      4  C   UNL     1      35.072  -9.413 -24.345  0.00  0.00    +0.043 C 
ATOM      5  C   UNL     1      34.612 -11.569 -26.322  0.00  0.00    -0.058 C 
ATOM      6  C   UNL     1      35.103  -8.565 -25.619  0.00  0.00    -0.020 C 
ATOM      7  C   UNL     1      35.330  -9.338 -26.914  0.00  0.00    -0.082 C 
ATOM      8  H   UNL     1      33.422 -10.050 -26.974  0.00  0.00    -0.084 HD
ATOM      9  H   UNL     1      34.445 -10.689 -28.142  0.00  0.00    -0.084 HD
ENDROOT
BRANCH   2  11
ATOM     10  O   UNL     1      33.070 -14.316 -25.501  0.00  0.00    -0.270 OA
ATOM     11  N   UNL     1      34.173 -12.720 -24.233  0.00  0.00    -0.301 N 
ATOM     12  C   UNL     1      33.775 -14.006 -24.545  0.00  0.00    +0.246 C 
ATOM     13  H   UNL     1      34.740 -12.576 -23.441  0.00  0.00    +0.150 HD
BRANCH  12  14
ATOM     14  C   UNL     1      34.237 -15.065 -23.609  0.00  0.00    +0.054 C 
ATOM     15  C   UNL     1      34.187 -14.822 -22.252  0.00  0.00    +0.008 C 
ATOM     16  C   UNL     1      34.703 -16.255 -24.127  0.00  0.00    +0.008 C 
ATOM     17  C   UNL     1      34.620 -15.814 -21.374  0.00  0.00    +0.037 C 
ATOM     18  C   UNL     1      35.135 -17.249 -23.249  0.00  0.00    +0.037 C 
ATOM     19  C   UNL     1      35.094 -17.028 -21.872  0.00  0.00    +0.134 C 
BRANCH  19  20
ATOM     20  O   UNL     1      35.515 -17.998 -21.015  0.00  0.00    -0.506 OA
ATOM     21  H   UNL     1      35.494 -18.897 -21.279  0.00  0.00    +0.292 HD
ENDBRANCH  19  20
ENDBRANCH  12  14
ENDBRANCH   2  11
BRANCH   3  22
ATOM     22  O   UNL     1      32.647  -9.531 -24.399  0.00  0.00    -0.448 OA
BRANCH  22  24
ATOM     23  O   UNL     1      31.923  -9.310 -22.226  0.00  0.00    -0.245 OA
ATOM     24  C   UNL     1      32.182  -8.846 -23.325  0.00  0.00    +0.341 C 
BRANCH  24  25
ATOM     25  C   UNL     1      32.019  -7.409 -23.661  0.00  0.00    +0.076 C 
ATOM     26  C   UNL     1      32.978  -6.512 -23.238  0.00  0.00    +0.007 C 
ATOM     27  C   UNL     1      30.912  -7.014 -24.385  0.00  0.00    +0.007 C 
ATOM     28  C   UNL     1      32.824  -5.161 -23.553  0.00  0.00    +0.003 C 
ATOM     29  C   UNL     1      30.758  -5.665 -24.700  0.00  0.00    +0.003 C 
ATOM     30  C   UNL     1      31.715  -4.737 -24.284  0.00  0.00    +0.039 C 
BRANCH  30  32
ATOM     31  O   UNL     1      31.862  -2.457 -23.787  0.00  0.00    -0.286 OA
ATOM     32  C   UNL     1      31.554  -3.330 -24.611  0.00  0.00    +0.198 C 
BRANCH  32  33
ATOM     33  C   UNL     1      31.018  -2.872 -25.929  0.00  0.00    +0.073 C 
ATOM     34  C   UNL     1      29.815  -2.205 -25.978  0.00  0.00    +0.137 C 
ATOM     35  C   UNL     1      31.767  -3.139 -27.053  0.00  0.00    +0.006 C 
ATOM     36  C   UNL     1      29.334  -1.786 -27.217  0.00  0.00    +0.037 C 
ATOM     37  C   UNL     1      31.286  -2.719 -28.293  0.00  0.00    +0.000 C 
ATOM     38  C   UNL     1      30.069  -2.043 -28.375  0.00  0.00    +0.003 C 
BRANCH  34  39
ATOM     39  O   UNL     1      29.083  -1.945 -24.859  0.00  0.00    -0.505 OA
ATOM     40  H   UNL     1      29.242  -1.165 -24.365  0.00  0.00    +0.292 HD
ENDBRANCH  34  39
ENDBRANCH  32  33
ENDBRANCH  30  32
ENDBRANCH  24  25
ENDBRANCH  22  24
ENDBRANCH   3  22
TORSDOF 9
ENDMDL
MODEL 5
REMARK VINA RESULT:      -9.8      9.175     14.455
REMARK  Name = 10050566
REMARK  9 active torsions:
REMARK  status: ('A' for Active; 'I' for Inactive)
REMARK    1  A    between atoms: C_2  and  N_11
REMARK    2  A    between atoms: C_3  and  O_22
REMARK    3  A    between atoms: C_12  and  C_14
REMARK    4  A    between atoms: C_19  and  O_20
REMARK    5  A    between atoms: O_22  and  C_24
REMARK    6  A    between atoms: C_24  and  C_25
REMARK    7  A    between atoms: C_30  and  C_32
REMARK    8  A    between atoms: C_32  and  C_33
REMARK    9  A    between atoms: C_34  and  O_39
REMARK                            x       y       z     vdW  Elec       q    Type
REMARK                         _______ _______ _______ _____ _____    ______ ____
ROOT
ATOM      1  N   UNL     1      33.754 -11.847 -27.363  0.00  0.00    +0.385 N 
ATOM      2  C   UNL     1      33.540 -12.793 -25.057  0.00  0.00    +0.091 C 
ATOM      3  C   UNL     1      33.813 -11.453 -24.351  0.00  0.00    +0.185 C 
ATOM      4  C   UNL     1      35.036 -10.664 -24.832  0.00  0.00    +0.043 C 
ATOM      5  C   UNL     1      34.110 -12.950 -26.471  0.00  0.00    -0.058 C 
ATOM      6  C   UNL     1      34.863  -9.933 -26.165  0.00  0.00    -0.020 C 
ATOM      7  C   UNL     1      34.803 -10.828 -27.399  0.00  0.00    -0.082 C 
ATOM      8  H   UNL     1      32.888 -11.420 -27.034  0.00  0.00    -0.084 HD
ATOM      9  H   UNL     1      33.639 -12.221 -28.305  0.00  0.00    -0.084 HD
ENDROOT
BRANCH   2  11
ATOM     10  O   UNL     1      33.510 -15.583 -25.729  0.00  0.00    -0.270 OA
ATOM     11  N   UNL     1      34.024 -13.886 -24.235  0.00  0.00    -0.301 N 
ATOM     12  C   UNL     1      33.964 -15.202 -24.653  0.00  0.00    +0.246 C 
ATOM     13  H   UNL     1      34.407 -13.684 -23.351  0.00  0.00    +0.150 HD
BRANCH  12  14
ATOM     14  C   UNL     1      34.475 -16.206 -23.685  0.00  0.00    +0.054 C 
ATOM     15  C   UNL     1      34.840 -17.453 -24.149  0.00  0.00    +0.008 C 
ATOM     16  C   UNL     1      34.569 -15.861 -22.353  0.00  0.00    +0.008 C 
ATOM     17  C   UNL     1      35.320 -18.396 -23.241  0.00  0.00    +0.037 C 
ATOM     18  C   UNL     1      35.050 -16.804 -21.445  0.00  0.00    +0.037 C 
ATOM     19  C   UNL     1      35.425 -18.072 -21.889  0.00  0.00    +0.134 C 
BRANCH  19  20
ATOM     20  O   UNL     1      35.896 -18.991 -21.003  0.00  0.00    -0.506 OA
ATOM     21  H   UNL     1      36.819 -19.070 -20.857  0.00  0.00    +0.292 HD
ENDBRANCH  19  20
ENDBRANCH  12  14
ENDBRANCH   2  11
BRANCH   3  22
ATOM     22  O   UNL     1      32.643 -10.633 -24.424  0.00  0.00    -0.448 OA
BRANCH  22  24
ATOM     23  O   UNL     1      32.125 -10.290 -22.208  0.00  0.00    -0.245 OA
ATOM     24  C   UNL     1      32.388  -9.877 -23.327  0.00  0.00    +0.341 C 
BRANCH  24  25
ATOM     25  C   UNL     1      32.468  -8.434 -23.664  0.00  0.00    +0.076 C 
ATOM     26  C   UNL     1      33.343  -7.632 -22.960  0.00  0.00    +0.007 C 
ATOM     27  C   UNL     1      31.664  -7.938 -24.670  0.00  0.00    +0.007 C 
ATOM     28  C   UNL     1      33.417  -6.275 -23.276  0.00  0.00    +0.003 C 
ATOM     29  C   UNL     1      31.738  -6.582 -24.987  0.00  0.00    +0.003 C 
ATOM     30  C   UNL     1      32.616  -5.750 -24.289  0.00  0.00    +0.039 C 
BRANCH  30  32
ATOM     31  O   UNL     1      32.204  -3.489 -23.857  0.00  0.00    -0.286 OA
ATOM     32  C   UNL     1      32.693  -4.336 -24.619  0.00  0.00    +0.198 C 
BRANCH  32  33
ATOM     33  C   UNL     1      33.349  -3.840 -25.867  0.00  0.00    +0.073 C 
ATOM     34  C   UNL     1      32.769  -2.814 -26.577  0.00  0.00    +0.137 C 
ATOM     35  C   UNL     1      34.525  -4.441 -26.255  0.00  0.00    +0.006 C 
ATOM     36  C   UNL     1      33.397  -2.365 -27.737  0.00  0.00    +0.037 C 
ATOM     37  C   UNL     1      35.154  -3.992 -27.416  0.00  0.00    +0.000 C 
ATOM     38  C   UNL     1      34.590  -2.955 -28.157  0.00  0.00    +0.003 C 
BRANCH  34  39
ATOM     39  O   UNL     1      31.604  -2.226 -26.183  0.00  0.00    -0.505 OA
ATOM     40  H   UNL     1      31.585  -1.691 -25.413  0.00  0.00    +0.292 HD
ENDBRANCH  34  39
ENDBRANCH  32  33
ENDBRANCH  30  32
ENDBRANCH  24  25
ENDBRANCH  22  24
ENDBRANCH   3  22
TORSDOF 9
ENDMDL
MODEL 6
REMARK VINA RESULT:      -9.7      7.286     14.653
REMARK  Name = 10050566
REMARK  9 active torsions:
REMARK  status: ('A' for Active; 'I' for Inactive)
REMARK    1  A    between atoms: C_2  and  N_11
REMARK    2  A    between atoms: C_3  and  O_22
REMARK    3  A    between atoms: C_12  and  C_14
REMARK    4  A    between atoms: C_19  and  O_20
REMARK    5  A    between atoms: O_22  and  C_24
REMARK    6  A    between atoms: C_24  and  C_25
REMARK    7  A    between atoms: C_30  and  C_32
REMARK    8  A    between atoms: C_32  and  C_33
REMARK    9  A    between atoms: C_34  and  O_39
REMARK                            x       y       z     vdW  Elec       q    Type
REMARK                         _______ _______ _______ _____ _____    ______ ____
ROOT
ATOM      1  N   UNL     1      35.544 -11.534 -27.038  0.00  0.00    +0.385 N 
ATOM      2  C   UNL     1      34.601 -10.295 -25.080  0.00  0.00    +0.091 C 
ATOM      3  C   UNL     1      33.584 -11.393 -24.720  0.00  0.00    +0.185 C 
ATOM      4  C   UNL     1      32.729 -11.935 -25.871  0.00  0.00    +0.043 C 
ATOM      5  C   UNL     1      35.067 -10.244 -26.539  0.00  0.00    -0.058 C 
ATOM      6  C   UNL     1      33.442 -12.898 -26.822  0.00  0.00    -0.020 C 
ATOM      7  C   UNL     1      34.485 -12.263 -27.736  0.00  0.00    -0.082 C 
ATOM      8  H   UNL     1      35.870 -12.095 -26.250  0.00  0.00    -0.084 HD
ATOM      9  H   UNL     1      36.302 -11.361 -27.698  0.00  0.00    -0.084 HD
ENDROOT
BRANCH   2  11
ATOM     10  O   UNL     1      32.488  -8.880 -26.409  0.00  0.00    -0.270 OA
ATOM     11  N   UNL     1      34.067  -8.996 -24.716  0.00  0.00    -0.301 N 
ATOM     12  C   UNL     1      33.042  -8.398 -25.425  0.00  0.00    +0.246 C 
ATOM     13  H   UNL     1      34.446  -8.525 -23.939  0.00  0.00    +0.150 HD
BRANCH  12  14
ATOM     14  C   UNL     1      32.627  -7.056 -24.941  0.00  0.00    +0.054 C 
ATOM     15  C   UNL     1      33.556  -6.037 -24.927  0.00  0.00    +0.008 C 
ATOM     16  C   UNL     1      31.326  -6.871 -24.522  0.00  0.00    +0.008 C 
ATOM     17  C   UNL     1      33.167  -4.776 -24.473  0.00  0.00    +0.037 C 
ATOM     18  C   UNL     1      30.936  -5.611 -24.069  0.00  0.00    +0.037 C 
ATOM     19  C   UNL     1      31.857  -4.564 -24.044  0.00  0.00    +0.134 C 
BRANCH  19  20
ATOM     20  O   UNL     1      31.476  -3.334 -23.604  0.00  0.00    -0.506 OA
ATOM     21  H   UNL     1      30.650  -2.978 -23.867  0.00  0.00    +0.292 HD
ENDBRANCH  19  20
ENDBRANCH  12  14
ENDBRANCH   2  11
BRANCH   3  22
ATOM     22  O   UNL     1      34.263 -12.470 -24.066  0.00  0.00    -0.448 OA
BRANCH  22  24
ATOM     23  O   UNL     1      32.601 -12.665 -22.486  0.00  0.00    -0.245 OA
ATOM     24  C   UNL     1      33.551 -13.114 -23.108  0.00  0.00    +0.341 C 
BRANCH  24  25
ATOM     25  C   UNL     1      34.089 -14.482 -22.898  0.00  0.00    +0.076 C 
ATOM     26  C   UNL     1      34.250 -14.944 -21.607  0.00  0.00    +0.007 C 
ATOM     27  C   UNL     1      34.414 -15.247 -23.999  0.00  0.00    +0.007 C 
ATOM     28  C   UNL     1      34.757 -16.229 -21.410  0.00  0.00    +0.003 C 
ATOM     29  C   UNL     1      34.920 -16.532 -23.802  0.00  0.00    +0.003 C 
ATOM     30  C   UNL     1      35.092 -17.023 -22.507  0.00  0.00    +0.039 C 
BRANCH  30  32
ATOM     31  O   UNL     1      36.706 -18.689 -22.803  0.00  0.00    -0.286 OA
ATOM     32  C   UNL     1      35.620 -18.362 -22.301  0.00  0.00    +0.198 C 
BRANCH  32  33
ATOM     33  C   UNL     1      34.898 -19.392 -21.494  0.00  0.00    +0.073 C 
ATOM     34  C   UNL     1      35.605 -20.190 -20.624  0.00  0.00    +0.137 C 
ATOM     35  C   UNL     1      33.536 -19.496 -21.659  0.00  0.00    +0.006 C 
ATOM     36  C   UNL     1      34.913 -21.144 -19.880  0.00  0.00    +0.037 C 
ATOM     37  C   UNL     1      32.843 -20.450 -20.914  0.00  0.00    +0.000 C 
ATOM     38  C   UNL     1      33.532 -21.275 -20.025  0.00  0.00    +0.003 C 
BRANCH  34  39
ATOM     39  O   UNL     1      36.955 -20.078 -20.468  0.00  0.00    -0.505 OA
ATOM     40  H   UNL     1      37.480 -20.847 -20.359  0.00  0.00    +0.292 HD
ENDBRANCH  34  39
ENDBRANCH  32  33
ENDBRANCH  30  32
ENDBRANCH  24  25
ENDBRANCH  22  24
ENDBRANCH   3  22
TORSDOF 9
ENDMDL
MODEL 7
REMARK VINA RESULT:      -9.6      6.032     13.042
REMARK  Name = 10050566
REMARK  9 active torsions:
REMARK  status: ('A' for Active; 'I' for Inactive)
REMARK    1  A    between atoms: C_2  and  N_11
REMARK    2  A    between atoms: C_3  and  O_22
REMARK    3  A    between atoms: C_12  and  C_14
REMARK    4  A    between atoms: C_19  and  O_20
REMARK    5  A    between atoms: O_22  and  C_24
REMARK    6  A    between atoms: C_24  and  C_25
REMARK    7  A    between atoms: C_30  and  C_32
REMARK    8  A    between atoms: C_32  and  C_33
REMARK    9  A    between atoms: C_34  and  O_39
REMARK                            x       y       z     vdW  Elec       q    Type
REMARK                         _______ _______ _______ _____ _____    ______ ____
ROOT
ATOM      1  N   UNL     1      31.141 -12.740 -21.562  0.00  0.00    +0.385 N 
ATOM      2  C   UNL     1      32.563 -11.990 -23.479  0.00  0.00    +0.091 C 
ATOM      3  C   UNL     1      33.568 -13.148 -23.344  0.00  0.00    +0.185 C 
ATOM      4  C   UNL     1      34.116 -13.415 -21.938  0.00  0.00    +0.043 C 
ATOM      5  C   UNL     1      31.790 -11.603 -22.213  0.00  0.00    -0.058 C 
ATOM      6  C   UNL     1      33.155 -14.130 -20.984  0.00  0.00    -0.020 C 
ATOM      7  C   UNL     1      31.976 -13.296 -20.497  0.00  0.00    -0.082 C 
ATOM      8  H   UNL     1      30.965 -13.465 -22.258  0.00  0.00    -0.084 HD
ATOM      9  H   UNL     1      30.267 -12.415 -21.148  0.00  0.00    -0.084 HD
ENDROOT
BRANCH   2  11
ATOM     10  O   UNL     1      31.645  -9.277 -23.303  0.00  0.00    -0.270 OA
ATOM     11  N   UNL     1      33.239 -10.813 -23.991  0.00  0.00    -0.301 N 
ATOM     12  C   UNL     1      32.710  -9.544 -23.854  0.00  0.00    +0.246 C 
ATOM     13  H   UNL     1      34.102 -10.922 -24.452  0.00  0.00    +0.150 HD
BRANCH  12  14
ATOM     14  C   UNL     1      33.510  -8.447 -24.456  0.00  0.00    +0.054 C 
ATOM     15  C   UNL     1      34.511  -8.767 -25.351  0.00  0.00    +0.008 C 
ATOM     16  C   UNL     1      33.230  -7.144 -24.103  0.00  0.00    +0.008 C 
ATOM     17  C   UNL     1      35.263  -7.738 -25.917  0.00  0.00    +0.037 C 
ATOM     18  C   UNL     1      33.981  -6.114 -24.670  0.00  0.00    +0.037 C 
ATOM     19  C   UNL     1      34.998  -6.412 -25.577  0.00  0.00    +0.134 C 
BRANCH  19  20
ATOM     20  O   UNL     1      35.730  -5.408 -26.131  0.00  0.00    -0.506 OA
ATOM     21  H   UNL     1      35.676  -4.540 -25.780  0.00  0.00    +0.292 HD
ENDBRANCH  19  20
ENDBRANCH  12  14
ENDBRANCH   2  11
BRANCH   3  22
ATOM     22  O   UNL     1      32.990 -14.342 -23.879  0.00  0.00    -0.448 OA
BRANCH  22  24
ATOM     23  O   UNL     1      34.135 -14.927 -25.787  0.00  0.00    -0.245 OA
ATOM     24  C   UNL     1      33.821 -15.114 -24.622  0.00  0.00    +0.341 C 
BRANCH  24  25
ATOM     25  C   UNL     1      34.320 -16.257 -23.818  0.00  0.00    +0.076 C 
ATOM     26  C   UNL     1      34.223 -17.532 -24.339  0.00  0.00    +0.007 C 
ATOM     27  C   UNL     1      34.864 -16.012 -22.574  0.00  0.00    +0.007 C 
ATOM     28  C   UNL     1      34.691 -18.607 -23.583  0.00  0.00    +0.003 C 
ATOM     29  C   UNL     1      35.331 -17.086 -21.818  0.00  0.00    +0.003 C 
ATOM     30  C   UNL     1      35.245 -18.385 -22.322  0.00  0.00    +0.039 C 
BRANCH  30  32
ATOM     31  O   UNL     1      36.946 -19.751 -21.481  0.00  0.00    -0.286 OA
ATOM     32  C   UNL     1      35.732 -19.505 -21.534  0.00  0.00    +0.198 C 
BRANCH  32  33
ATOM     33  C   UNL     1      34.816 -20.400 -20.764  0.00  0.00    +0.073 C 
ATOM     34  C   UNL     1      35.345 -21.382 -19.958  0.00  0.00    +0.137 C 
ATOM     35  C   UNL     1      33.461 -20.197 -20.897  0.00  0.00    +0.006 C 
ATOM     36  C   UNL     1      34.473 -22.206 -19.249  0.00  0.00    +0.037 C 
ATOM     37  C   UNL     1      32.588 -21.021 -20.187  0.00  0.00    +0.000 C 
ATOM     38  C   UNL     1      33.095 -22.026 -19.363  0.00  0.00    +0.003 C 
BRANCH  34  39
ATOM     39  O   UNL     1      36.689 -21.573 -19.834  0.00  0.00    -0.505 OA
ATOM     40  H   UNL     1      37.281 -21.140 -20.418  0.00  0.00    +0.292 HD
ENDBRANCH  34  39
ENDBRANCH  32  33
ENDBRANCH  30  32
ENDBRANCH  24  25
ENDBRANCH  22  24
ENDBRANCH   3  22
TORSDOF 9
ENDMDL
MODEL 8
REMARK VINA RESULT:      -9.4      2.452      8.246
REMARK  Name = 10050566
REMARK  9 active torsions:
REMARK  status: ('A' for Active; 'I' for Inactive)
REMARK    1  A    between atoms: C_2  and  N_11
REMARK    2  A    between atoms: C_3  and  O_22
REMARK    3  A    between atoms: C_12  and  C_14
REMARK    4  A    between atoms: C_19  and  O_20
REMARK    5  A    between atoms: O_22  and  C_24
REMARK    6  A    between atoms: C_24  and  C_25
REMARK    7  A    between atoms: C_30  and  C_32
REMARK    8  A    between atoms: C_32  and  C_33
REMARK    9  A    between atoms: C_34  and  O_39
REMARK                            x       y       z     vdW  Elec       q    Type
REMARK                         _______ _______ _______ _____ _____    ______ ____
ROOT
ATOM      1  N   UNL     1      28.528 -23.519 -16.833  0.00  0.00    +0.385 N 
ATOM      2  C   UNL     1      30.984 -23.321 -17.265  0.00  0.00    +0.091 C 
ATOM      3  C   UNL     1      31.376 -23.390 -15.778  0.00  0.00    +0.185 C 
ATOM      4  C   UNL     1      30.607 -22.466 -14.827  0.00  0.00    +0.043 C 
ATOM      5  C   UNL     1      29.572 -22.817 -17.579  0.00  0.00    -0.058 C 
ATOM      6  C   UNL     1      29.185 -22.916 -14.480  0.00  0.00    -0.020 C 
ATOM      7  C   UNL     1      28.169 -22.799 -15.611  0.00  0.00    -0.082 C 
ATOM      8  H   UNL     1      28.867 -24.448 -16.583  0.00  0.00    -0.084 HD
ATOM      9  H   UNL     1      27.699 -23.581 -17.423  0.00  0.00    -0.084 HD
ENDROOT
BRANCH   2  11
ATOM     10  O   UNL     1      33.372 -24.231 -18.571  0.00  0.00    -0.270 OA
ATOM     11  N   UNL     1      31.942 -22.503 -17.985  0.00  0.00    -0.301 N 
ATOM     12  C   UNL     1      33.066 -23.042 -18.582  0.00  0.00    +0.246 C 
ATOM     13  H   UNL     1      31.787 -21.533 -18.050  0.00  0.00    +0.150 HD
BRANCH  12  14
ATOM     14  C   UNL     1      33.962 -22.068 -19.257  0.00  0.00    +0.054 C 
ATOM     15  C   UNL     1      33.413 -21.153 -20.131  0.00  0.00    +0.008 C 
ATOM     16  C   UNL     1      35.315 -22.109 -18.990  0.00  0.00    +0.008 C 
ATOM     17  C   UNL     1      34.253 -20.238 -20.765  0.00  0.00    +0.037 C 
ATOM     18  C   UNL     1      36.155 -21.194 -19.624  0.00  0.00    +0.037 C 
ATOM     19  C   UNL     1      35.624 -20.258 -20.512  0.00  0.00    +0.134 C 
BRANCH  19  20
ATOM     20  O   UNL     1      36.444 -19.365 -21.129  0.00  0.00    -0.506 OA
ATOM     21  H   UNL     1      37.244 -19.657 -21.520  0.00  0.00    +0.292 HD
ENDBRANCH  19  20
ENDBRANCH  12  14
ENDBRANCH   2  11
BRANCH   3  22
ATOM     22  O   UNL     1      31.282 -24.744 -15.326  0.00  0.00    -0.448 OA
BRANCH  22  24
ATOM     23  O   UNL     1      31.062 -25.401 -13.132  0.00  0.00    -0.245 OA
ATOM     24  C   UNL     1      31.724 -24.973 -14.065  0.00  0.00    +0.341 C 
BRANCH  24  25
ATOM     25  C   UNL     1      33.162 -24.625 -13.951  0.00  0.00    +0.076 C 
ATOM     26  C   UNL     1      33.956 -24.693 -15.079  0.00  0.00    +0.007 C 
ATOM     27  C   UNL     1      33.662 -24.245 -12.723  0.00  0.00    +0.007 C 
ATOM     28  C   UNL     1      35.308 -24.367 -14.972  0.00  0.00    +0.003 C 
ATOM     29  C   UNL     1      35.013 -23.919 -12.615  0.00  0.00    +0.003 C 
ATOM     30  C   UNL     1      35.837 -23.979 -13.741  0.00  0.00    +0.039 C 
BRANCH  30  32
ATOM     31  O   UNL     1      37.592 -22.566 -13.114  0.00  0.00    -0.286 OA
ATOM     32  C   UNL     1      37.246 -23.640 -13.629  0.00  0.00    +0.198 C 
BRANCH  32  33
ATOM     33  C   UNL     1      38.329 -24.545 -14.120  0.00  0.00    +0.073 C 
ATOM     34  C   UNL     1      38.856 -24.355 -15.377  0.00  0.00    +0.137 C 
ATOM     35  C   UNL     1      38.759 -25.546 -13.277  0.00  0.00    +0.006 C 
ATOM     36  C   UNL     1      39.865 -25.210 -15.815  0.00  0.00    +0.037 C 
ATOM     37  C   UNL     1      39.770 -26.401 -13.715  0.00  0.00    +0.000 C 
ATOM     38  C   UNL     1      40.322 -26.234 -14.985  0.00  0.00    +0.003 C 
BRANCH  34  39
ATOM     39  O   UNL     1      38.423 -23.361 -16.203  0.00  0.00    -0.505 OA
ATOM     40  H   UNL     1      38.025 -22.592 -15.843  0.00  0.00    +0.292 HD
ENDBRANCH  34  39
ENDBRANCH  32  33
ENDBRANCH  30  32
ENDBRANCH  24  25
ENDBRANCH  22  24
ENDBRANCH   3  22
TORSDOF 9
ENDMDL
MODEL 9
REMARK VINA RESULT:      -8.9      1.812      2.519
REMARK  Name = 10050566
REMARK  9 active torsions:
REMARK  status: ('A' for Active; 'I' for Inactive)
REMARK    1  A    between atoms: C_2  and  N_11
REMARK    2  A    between atoms: C_3  and  O_22
REMARK    3  A    between atoms: C_12  and  C_14
REMARK    4  A    between atoms: C_19  and  O_20
REMARK    5  A    between atoms: O_22  and  C_24
REMARK    6  A    between atoms: C_24  and  C_25
REMARK    7  A    between atoms: C_30  and  C_32
REMARK    8  A    between atoms: C_32  and  C_33
REMARK    9  A    between atoms: C_34  and  O_39
REMARK                            x       y       z     vdW  Elec       q    Type
REMARK                         _______ _______ _______ _____ _____    ______ ____
ROOT
ATOM      1  N   UNL     1      30.384 -24.579 -13.102  0.00  0.00    +0.385 N 
ATOM      2  C   UNL     1      32.580 -24.298 -14.266  0.00  0.00    +0.091 C 
ATOM      3  C   UNL     1      31.966 -24.260 -15.677  0.00  0.00    +0.185 C 
ATOM      4  C   UNL     1      30.965 -25.370 -16.015  0.00  0.00    +0.043 C 
ATOM      5  C   UNL     1      31.774 -25.027 -13.187  0.00  0.00    -0.058 C 
ATOM      6  C   UNL     1      29.574 -25.210 -15.398  0.00  0.00    -0.020 C 
ATOM      7  C   UNL     1      29.497 -25.434 -13.892  0.00  0.00    -0.082 C 
ATOM      8  H   UNL     1      30.322 -23.623 -13.452  0.00  0.00    -0.084 HD
ATOM      9  H   UNL     1      30.091 -24.628 -12.127  0.00  0.00    -0.084 HD
ENDROOT
BRANCH   2  11
ATOM     10  O   UNL     1      35.046 -22.886 -14.666  0.00  0.00    -0.270 OA
ATOM     11  N   UNL     1      33.909 -24.877 -14.327  0.00  0.00    -0.301 N 
ATOM     12  C   UNL     1      35.038 -24.105 -14.524  0.00  0.00    +0.246 C 
ATOM     13  H   UNL     1      34.009 -25.851 -14.225  0.00  0.00    +0.150 HD
BRANCH  12  14
ATOM     14  C   UNL     1      36.321 -24.852 -14.589  0.00  0.00    +0.054 C 
ATOM     15  C   UNL     1      37.470 -24.243 -14.127  0.00  0.00    +0.008 C 
ATOM     16  C   UNL     1      36.324 -26.129 -15.110  0.00  0.00    +0.008 C 
ATOM     17  C   UNL     1      38.674 -24.943 -14.187  0.00  0.00    +0.037 C 
ATOM     18  C   UNL     1      37.529 -26.830 -15.170  0.00  0.00    +0.037 C 
ATOM     19  C   UNL     1      38.704 -26.236 -14.709  0.00  0.00    +0.134 C 
BRANCH  19  20
ATOM     20  O   UNL     1      39.879 -26.921 -14.766  0.00  0.00    -0.506 OA
ATOM     21  H   UNL     1      40.036 -27.631 -14.174  0.00  0.00    +0.292 HD
ENDBRANCH  19  20
ENDBRANCH  12  14
ENDBRANCH   2  11
BRANCH   3  22
ATOM     22  O   UNL     1      31.368 -22.979 -15.899  0.00  0.00    -0.448 OA
BRANCH  22  24
ATOM     23  O   UNL     1      29.847 -22.795 -17.616  0.00  0.00    -0.245 OA
ATOM     24  C   UNL     1      30.983 -22.725 -17.174  0.00  0.00    +0.341 C 
BRANCH  24  25
ATOM     25  C   UNL     1      32.155 -22.341 -18.000  0.00  0.00    +0.076 C 
ATOM     26  C   UNL     1      31.962 -21.508 -19.084  0.00  0.00    +0.007 C 
ATOM     27  C   UNL     1      33.400 -22.828 -17.660  0.00  0.00    +0.007 C 
ATOM     28  C   UNL     1      33.064 -21.148 -19.861  0.00  0.00    +0.003 C 
ATOM     29  C   UNL     1      34.501 -22.468 -18.436  0.00  0.00    +0.003 C 
ATOM     30  C   UNL     1      34.333 -21.627 -19.538  0.00  0.00    +0.039 C 
BRANCH  30  32
ATOM     31  O   UNL     1      36.542 -21.887 -20.261  0.00  0.00    -0.286 OA
ATOM     32  C   UNL     1      35.481 -21.251 -20.347  0.00  0.00    +0.198 C 
BRANCH  32  33
ATOM     33  C   UNL     1      35.444 -20.104 -21.304  0.00  0.00    +0.073 C 
ATOM     34  C   UNL     1      36.374 -19.096 -21.192  0.00  0.00    +0.137 C 
ATOM     35  C   UNL     1      34.465 -20.108 -22.272  0.00  0.00    +0.006 C 
ATOM     36  C   UNL     1      36.323 -18.035 -22.094  0.00  0.00    +0.037 C 
ATOM     37  C   UNL     1      34.414 -19.047 -23.176  0.00  0.00    +0.000 C 
ATOM     38  C   UNL     1      35.343 -18.010 -23.086  0.00  0.00    +0.003 C 
BRANCH  34  39
ATOM     39  O   UNL     1      37.339 -19.102 -20.229  0.00  0.00    -0.505 OA
ATOM     40  H   UNL     1      37.118 -18.895 -19.342  0.00  0.00    +0.292 HD
ENDBRANCH  34  39
ENDBRANCH  32  33
ENDBRANCH  30  32
ENDBRANCH  24  25
ENDBRANCH  22  24
ENDBRANCH   3  22
TORSDOF 9
ENDMDL
