MODEL 1
REMARK VINA RESULT:     -11.4      0.000      0.000
REMARK  Name = 44814409
REMARK  5 active torsions:
REMARK  status: ('A' for Active; 'I' for Inactive)
REMARK    1  A    between atoms: N_2  and  C_22
REMARK    2  A    between atoms: C_3  and  C_7
REMARK    3  A    between atoms: C_9  and  C_14
REMARK    4  A    between atoms: C_21  and  C_26
REMARK    5  A    between atoms: C_29  and  N_33
REMARK                            x       y       z     vdW  Elec       q    Type
REMARK                         _______ _______ _______ _____ _____    ______ ____
ROOT
ATOM      1  O   UNL     1      34.545 -14.254 -21.081  0.00  0.00    -0.267 OA
ATOM      2  N   UNL     1      33.007 -13.822 -22.808  0.00  0.00    -0.278 N 
ATOM      3  C   UNL     1      34.002 -14.550 -22.141  0.00  0.00    +0.275 C 
ATOM      4  H   UNL     1      32.682 -14.210 -23.652  0.00  0.00    +0.155 HD
ENDROOT
BRANCH   3   7
ATOM      5  F   UNL     1      35.515 -19.378 -24.430  0.00  0.00    -0.202 F 
ATOM      6  N   UNL     1      34.660 -16.855 -21.957  0.00  0.00    -0.399 NA
ATOM      7  C   UNL     1      34.405 -15.824 -22.793  0.00  0.00    +0.167 C 
ATOM      8  C   UNL     1      34.499 -15.902 -24.173  0.00  0.00    +0.092 C 
ATOM      9  C   UNL     1      35.026 -18.020 -22.537  0.00  0.00    +0.162 C 
ATOM     10  C   UNL     1      34.878 -17.117 -24.731  0.00  0.00    +0.014 C 
ATOM     11  C   UNL     1      35.149 -18.202 -23.905  0.00  0.00    +0.166 C 
BRANCH   9  14
ATOM     12  F   UNL     1      37.591 -18.507 -21.514  0.00  0.00    -0.204 F 
ATOM     13  F   UNL     1      33.004 -19.756 -21.662  0.00  0.00    -0.204 F 
ATOM     14  C   UNL     1      35.290 -19.100 -21.614  0.00  0.00    +0.087 C 
ATOM     15  C   UNL     1      36.582 -19.304 -21.131  0.00  0.00    +0.145 C 
ATOM     16  C   UNL     1      34.252 -19.938 -21.206  0.00  0.00    +0.145 C 
ATOM     17  C   UNL     1      36.837 -20.346 -20.239  0.00  0.00    +0.030 C 
ATOM     18  C   UNL     1      34.506 -20.981 -20.315  0.00  0.00    +0.030 C 
ATOM     19  C   UNL     1      35.799 -21.185 -19.832  0.00  0.00    +0.005 C 
ENDBRANCH   9  14
ENDBRANCH   3   7
BRANCH   2  22
ATOM     20  N   UNL     1      30.840 -11.473 -20.995  0.00  0.00    -0.241 NA
ATOM     21  C   UNL     1      32.778 -11.407 -23.008  0.00  0.00    -0.006 C 
ATOM     22  C   UNL     1      32.421 -12.616 -22.423  0.00  0.00    +0.066 C 
ATOM     23  C   UNL     1      32.167 -10.231 -22.589  0.00  0.00    +0.018 C 
ATOM     24  C   UNL     1      31.456 -12.596 -21.429  0.00  0.00    +0.113 C 
ATOM     25  C   UNL     1      31.213 -10.317 -21.588  0.00  0.00    +0.099 C 
BRANCH  21  26
ATOM     26  C   UNL     1      33.812 -11.343 -24.086  0.00  0.00    +0.022 C 
ATOM     27  C   UNL     1      35.185  -9.771 -25.538  0.00  0.00    -0.002 C 
ATOM     28  C   UNL     1      34.169  -9.876 -24.391  0.00  0.00    +0.004 C 
ATOM     29  C   UNL     1      34.323 -11.957 -26.492  0.00  0.00    -0.065 C 
ATOM     30  C   UNL     1      33.304 -12.060 -25.350  0.00  0.00    -0.017 C 
ATOM     31  C   UNL     1      34.672 -10.495 -26.792  0.00  0.00    -0.022 C 
ATOM     32  C   UNL     1      35.494  -8.307 -25.849  0.00  0.00    -0.000 C 
BRANCH  29  33
ATOM     33  N   UNL     1      33.786 -12.594 -27.693  0.00  0.00    +0.382 N 
ATOM     34  H   UNL     1      33.335 -11.892 -28.279  0.00  0.00    -0.089 HD
ATOM     35  H   UNL     1      33.102 -13.303 -27.425  0.00  0.00    -0.089 HD
ATOM     36  H   UNL     1      34.545 -13.034 -28.214  0.00  0.00    -0.089 HD
ENDBRANCH  29  33
ENDBRANCH  21  26
ENDBRANCH   2  22
TORSDOF 5
ENDMDL
MODEL 2
REMARK VINA RESULT:     -11.3      5.068     11.601
REMARK  Name = 44814409
REMARK  5 active torsions:
REMARK  status: ('A' for Active; 'I' for Inactive)
REMARK    1  A    between atoms: N_2  and  C_22
REMARK    2  A    between atoms: C_3  and  C_7
REMARK    3  A    between atoms: C_9  and  C_14
REMARK    4  A    between atoms: C_21  and  C_26
REMARK    5  A    between atoms: C_29  and  N_33
REMARK                            x       y       z     vdW  Elec       q    Type
REMARK                         _______ _______ _______ _____ _____    ______ ____
ROOT
ATOM      1  O   UNL     1      32.417 -22.038 -19.898  0.00  0.00    -0.267 OA
ATOM      2  N   UNL     1      33.603 -22.354 -17.892  0.00  0.00    -0.278 N 
ATOM      3  C   UNL     1      33.429 -21.925 -19.215  0.00  0.00    +0.275 C 
ATOM      4  H   UNL     1      34.487 -22.180 -17.495  0.00  0.00    +0.155 HD
ENDROOT
BRANCH   3   7
ATOM      5  F   UNL     1      37.704 -19.278 -21.573  0.00  0.00    -0.202 F 
ATOM      6  N   UNL     1      34.317 -20.329 -20.780  0.00  0.00    -0.399 NA
ATOM      7  C   UNL     1      34.601 -21.239 -19.822  0.00  0.00    +0.167 C 
ATOM      8  C   UNL     1      35.884 -21.547 -19.399  0.00  0.00    +0.092 C 
ATOM      9  C   UNL     1      35.373 -19.697 -21.339  0.00  0.00    +0.162 C 
ATOM     10  C   UNL     1      36.944 -20.875 -19.999  0.00  0.00    +0.014 C 
ATOM     11  C   UNL     1      36.692 -19.931 -20.988  0.00  0.00    +0.166 C 
BRANCH   9  14
ATOM     12  F   UNL     1      34.824 -20.456 -23.982  0.00  0.00    -0.204 F 
ATOM     13  F   UNL     1      35.220 -16.950 -20.792  0.00  0.00    -0.204 F 
ATOM     14  C   UNL     1      35.032 -18.731 -22.358  0.00  0.00    +0.087 C 
ATOM     15  C   UNL     1      34.767 -19.155 -23.659  0.00  0.00    +0.145 C 
ATOM     16  C   UNL     1      34.967 -17.374 -22.038  0.00  0.00    +0.145 C 
ATOM     17  C   UNL     1      34.437 -18.222 -24.643  0.00  0.00    +0.030 C 
ATOM     18  C   UNL     1      34.638 -16.441 -23.022  0.00  0.00    +0.030 C 
ATOM     19  C   UNL     1      34.373 -16.866 -24.324  0.00  0.00    +0.005 C 
ENDBRANCH   9  14
ENDBRANCH   3   7
BRANCH   2  22
ATOM     20  N   UNL     1      30.364 -23.533 -16.620  0.00  0.00    -0.241 NA
ATOM     21  C   UNL     1      33.071 -23.712 -15.944  0.00  0.00    -0.006 C 
ATOM     22  C   UNL     1      32.678 -22.997 -17.070  0.00  0.00    +0.066 C 
ATOM     23  C   UNL     1      32.111 -24.338 -15.156  0.00  0.00    +0.018 C 
ATOM     24  C   UNL     1      31.326 -22.939 -17.362  0.00  0.00    +0.113 C 
ATOM     25  C   UNL     1      30.784 -24.220 -15.534  0.00  0.00    +0.099 C 
BRANCH  21  26
ATOM     26  C   UNL     1      34.511 -23.825 -15.560  0.00  0.00    +0.022 C 
ATOM     27  C   UNL     1      36.435 -25.451 -15.219  0.00  0.00    -0.002 C 
ATOM     28  C   UNL     1      34.974 -25.290 -15.665  0.00  0.00    +0.004 C 
ATOM     29  C   UNL     1      36.184 -23.440 -13.694  0.00  0.00    -0.065 C 
ATOM     30  C   UNL     1      34.723 -23.281 -14.136  0.00  0.00    -0.017 C 
ATOM     31  C   UNL     1      36.637 -24.901 -13.800  0.00  0.00    -0.022 C 
ATOM     32  C   UNL     1      36.860 -26.918 -15.294  0.00  0.00    -0.000 C 
BRANCH  29  33
ATOM     33  N   UNL     1      36.338 -22.971 -12.318  0.00  0.00    +0.382 N 
ATOM     34  H   UNL     1      37.265 -23.224 -11.975  0.00  0.00    -0.089 HD
ATOM     35  H   UNL     1      35.627 -23.405 -11.729  0.00  0.00    -0.089 HD
ATOM     36  H   UNL     1      36.230 -21.957 -12.290  0.00  0.00    -0.089 HD
ENDBRANCH  29  33
ENDBRANCH  21  26
ENDBRANCH   2  22
TORSDOF 5
ENDMDL
MODEL 3
REMARK VINA RESULT:     -11.3      5.071     11.574
REMARK  Name = 44814409
REMARK  5 active torsions:
REMARK  status: ('A' for Active; 'I' for Inactive)
REMARK    1  A    between atoms: N_2  and  C_22
REMARK    2  A    between atoms: C_3  and  C_7
REMARK    3  A    between atoms: C_9  and  C_14
REMARK    4  A    between atoms: C_21  and  C_26
REMARK    5  A    between atoms: C_29  and  N_33
REMARK                            x       y       z     vdW  Elec       q    Type
REMARK                         _______ _______ _______ _____ _____    ______ ____
ROOT
ATOM      1  O   UNL     1      32.417 -22.041 -19.901  0.00  0.00    -0.267 OA
ATOM      2  N   UNL     1      33.603 -22.354 -17.895  0.00  0.00    -0.278 N 
ATOM      3  C   UNL     1      33.429 -21.926 -19.218  0.00  0.00    +0.275 C 
ATOM      4  H   UNL     1      34.487 -22.178 -17.497  0.00  0.00    +0.155 HD
ENDROOT
BRANCH   3   7
ATOM      5  F   UNL     1      37.700 -19.272 -21.576  0.00  0.00    -0.202 F 
ATOM      6  N   UNL     1      34.314 -20.331 -20.785  0.00  0.00    -0.399 NA
ATOM      7  C   UNL     1      34.599 -21.238 -19.824  0.00  0.00    +0.167 C 
ATOM      8  C   UNL     1      35.883 -21.541 -19.399  0.00  0.00    +0.092 C 
ATOM      9  C   UNL     1      35.369 -19.697 -21.344  0.00  0.00    +0.162 C 
ATOM     10  C   UNL     1      36.942 -20.868 -19.999  0.00  0.00    +0.014 C 
ATOM     11  C   UNL     1      36.689 -19.927 -20.990  0.00  0.00    +0.166 C 
BRANCH   9  14
ATOM     12  F   UNL     1      35.209 -16.950 -20.804  0.00  0.00    -0.204 F 
ATOM     13  F   UNL     1      34.824 -20.464 -23.985  0.00  0.00    -0.204 F 
ATOM     14  C   UNL     1      35.027 -18.735 -22.365  0.00  0.00    +0.087 C 
ATOM     15  C   UNL     1      34.959 -17.378 -22.050  0.00  0.00    +0.145 C 
ATOM     16  C   UNL     1      34.764 -19.163 -23.667  0.00  0.00    +0.145 C 
ATOM     17  C   UNL     1      34.629 -16.449 -23.037  0.00  0.00    +0.030 C 
ATOM     18  C   UNL     1      34.433 -18.234 -24.654  0.00  0.00    +0.030 C 
ATOM     19  C   UNL     1      34.364 -16.877 -24.338  0.00  0.00    +0.005 C 
ENDBRANCH   9  14
ENDBRANCH   3   7
BRANCH   2  22
ATOM     20  N   UNL     1      30.366 -23.534 -16.619  0.00  0.00    -0.241 NA
ATOM     21  C   UNL     1      33.074 -23.718 -15.950  0.00  0.00    -0.006 C 
ATOM     22  C   UNL     1      32.680 -22.999 -17.072  0.00  0.00    +0.066 C 
ATOM     23  C   UNL     1      32.115 -24.345 -15.161  0.00  0.00    +0.018 C 
ATOM     24  C   UNL     1      31.326 -22.938 -17.362  0.00  0.00    +0.113 C 
ATOM     25  C   UNL     1      30.787 -24.224 -15.536  0.00  0.00    +0.099 C 
BRANCH  21  26
ATOM     26  C   UNL     1      34.515 -23.833 -15.569  0.00  0.00    +0.022 C 
ATOM     27  C   UNL     1      36.435 -25.464 -15.228  0.00  0.00    -0.002 C 
ATOM     28  C   UNL     1      34.974 -25.300 -15.672  0.00  0.00    +0.004 C 
ATOM     29  C   UNL     1      36.193 -23.448 -13.708  0.00  0.00    -0.065 C 
ATOM     30  C   UNL     1      34.732 -23.286 -14.147  0.00  0.00    -0.017 C 
ATOM     31  C   UNL     1      36.643 -24.910 -13.811  0.00  0.00    -0.022 C 
ATOM     32  C   UNL     1      36.856 -26.932 -15.301  0.00  0.00    -0.000 C 
BRANCH  29  33
ATOM     33  N   UNL     1      36.353 -22.976 -12.334  0.00  0.00    +0.382 N 
ATOM     34  H   UNL     1      36.722 -22.026 -12.342  0.00  0.00    -0.089 HD
ATOM     35  H   UNL     1      37.001 -23.588 -11.837  0.00  0.00    -0.089 HD
ATOM     36  H   UNL     1      35.448 -22.986 -11.864  0.00  0.00    -0.089 HD
ENDBRANCH  29  33
ENDBRANCH  21  26
ENDBRANCH   2  22
TORSDOF 5
ENDMDL
MODEL 4
REMARK VINA RESULT:     -10.2      5.078     10.987
REMARK  Name = 44814409
REMARK  5 active torsions:
REMARK  status: ('A' for Active; 'I' for Inactive)
REMARK    1  A    between atoms: N_2  and  C_22
REMARK    2  A    between atoms: C_3  and  C_7
REMARK    3  A    between atoms: C_9  and  C_14
REMARK    4  A    between atoms: C_21  and  C_26
REMARK    5  A    between atoms: C_29  and  N_33
REMARK                            x       y       z     vdW  Elec       q    Type
REMARK                         _______ _______ _______ _____ _____    ______ ____
ROOT
ATOM      1  O   UNL     1      32.414 -22.024 -19.827  0.00  0.00    -0.267 OA
ATOM      2  N   UNL     1      33.663 -22.397 -17.869  0.00  0.00    -0.278 N 
ATOM      3  C   UNL     1      33.453 -21.944 -19.179  0.00  0.00    +0.275 C 
ATOM      4  H   UNL     1      34.565 -22.249 -17.501  0.00  0.00    +0.155 HD
ENDROOT
BRANCH   3   7
ATOM      5  F   UNL     1      37.703 -19.364 -21.653  0.00  0.00    -0.202 F 
ATOM      6  N   UNL     1      34.322 -20.351 -20.757  0.00  0.00    -0.399 NA
ATOM      7  C   UNL     1      34.618 -21.277 -19.817  0.00  0.00    +0.167 C 
ATOM      8  C   UNL     1      35.908 -21.616 -19.441  0.00  0.00    +0.092 C 
ATOM      9  C   UNL     1      35.372 -19.736 -21.345  0.00  0.00    +0.162 C 
ATOM     10  C   UNL     1      36.961 -20.961 -20.070  0.00  0.00    +0.014 C 
ATOM     11  C   UNL     1      36.697 -20.002 -21.040  0.00  0.00    +0.166 C 
BRANCH   9  14
ATOM     12  F   UNL     1      34.774 -20.450 -23.990  0.00  0.00    -0.204 F 
ATOM     13  F   UNL     1      35.242 -16.998 -20.752  0.00  0.00    -0.204 F 
ATOM     14  C   UNL     1      35.018 -18.752 -22.342  0.00  0.00    +0.087 C 
ATOM     15  C   UNL     1      34.728 -19.154 -23.645  0.00  0.00    +0.145 C 
ATOM     16  C   UNL     1      34.965 -17.401 -22.000  0.00  0.00    +0.145 C 
ATOM     17  C   UNL     1      34.385 -18.205 -24.608  0.00  0.00    +0.030 C 
ATOM     18  C   UNL     1      34.623 -16.451 -22.963  0.00  0.00    +0.030 C 
ATOM     19  C   UNL     1      34.334 -16.853 -24.267  0.00  0.00    +0.005 C 
ENDBRANCH   9  14
ENDBRANCH   3   7
BRANCH   2  22
ATOM     20  N   UNL     1      30.472 -23.722 -16.620  0.00  0.00    -0.241 NA
ATOM     21  C   UNL     1      33.144 -23.584 -15.809  0.00  0.00    -0.006 C 
ATOM     22  C   UNL     1      32.753 -23.030 -17.022  0.00  0.00    +0.066 C 
ATOM     23  C   UNL     1      32.200 -24.207 -15.000  0.00  0.00    +0.018 C 
ATOM     24  C   UNL     1      31.418 -23.125 -17.379  0.00  0.00    +0.113 C 
ATOM     25  C   UNL     1      30.889 -24.249 -15.447  0.00  0.00    +0.099 C 
BRANCH  21  26
ATOM     26  C   UNL     1      34.566 -23.526 -15.352  0.00  0.00    +0.022 C 
ATOM     27  C   UNL     1      36.806 -22.382 -15.720  0.00  0.00    -0.002 C 
ATOM     28  C   UNL     1      35.325 -22.429 -16.122  0.00  0.00    +0.004 C 
ATOM     29  C   UNL     1      36.718 -24.848 -15.135  0.00  0.00    -0.065 C 
ATOM     30  C   UNL     1      35.239 -24.897 -15.541  0.00  0.00    -0.017 C 
ATOM     31  C   UNL     1      37.467 -23.755 -15.906  0.00  0.00    -0.022 C 
ATOM     32  C   UNL     1      37.547 -21.313 -16.524  0.00  0.00    -0.000 C 
BRANCH  29  33
ATOM     33  N   UNL     1      37.343 -26.146 -15.383  0.00  0.00    +0.382 N 
ATOM     34  H   UNL     1      38.340 -26.018 -15.551  0.00  0.00    -0.089 HD
ATOM     35  H   UNL     1      36.913 -26.580 -16.201  0.00  0.00    -0.089 HD
ATOM     36  H   UNL     1      37.209 -26.748 -14.570  0.00  0.00    -0.089 HD
ENDBRANCH  29  33
ENDBRANCH  21  26
ENDBRANCH   2  22
TORSDOF 5
ENDMDL
MODEL 5
REMARK VINA RESULT:      -9.3      8.589     12.418
REMARK  Name = 44814409
REMARK  5 active torsions:
REMARK  status: ('A' for Active; 'I' for Inactive)
REMARK    1  A    between atoms: N_2  and  C_22
REMARK    2  A    between atoms: C_3  and  C_7
REMARK    3  A    between atoms: C_9  and  C_14
REMARK    4  A    between atoms: C_21  and  C_26
REMARK    5  A    between atoms: C_29  and  N_33
REMARK                            x       y       z     vdW  Elec       q    Type
REMARK                         _______ _______ _______ _____ _____    ______ ____
ROOT
ATOM      1  O   UNL     1      37.390 -21.072 -17.007  0.00  0.00    -0.267 OA
ATOM      2  N   UNL     1      35.908 -22.760 -17.703  0.00  0.00    -0.278 N 
ATOM      3  C   UNL     1      36.963 -22.220 -16.954  0.00  0.00    +0.275 C 
ATOM      4  H   UNL     1      35.696 -23.706 -17.531  0.00  0.00    +0.155 HD
ENDROOT
BRANCH   3   7
ATOM      5  F   UNL     1      39.210 -25.665 -13.223  0.00  0.00    -0.202 F 
ATOM      6  N   UNL     1      36.972 -23.269 -14.790  0.00  0.00    -0.399 NA
ATOM      7  C   UNL     1      37.596 -23.151 -15.984  0.00  0.00    +0.167 C 
ATOM      8  C   UNL     1      38.753 -23.834 -16.325  0.00  0.00    +0.092 C 
ATOM      9  C   UNL     1      37.536 -24.114 -13.899  0.00  0.00    +0.162 C 
ATOM     10  C   UNL     1      39.303 -24.693 -15.380  0.00  0.00    +0.014 C 
ATOM     11  C   UNL     1      38.690 -24.841 -14.141  0.00  0.00    +0.166 C 
BRANCH   9  14
ATOM     12  F   UNL     1      37.630 -22.068 -11.983  0.00  0.00    -0.204 F 
ATOM     13  F   UNL     1      36.013 -26.367 -13.216  0.00  0.00    -0.204 F 
ATOM     14  C   UNL     1      36.841 -24.214 -12.636  0.00  0.00    +0.087 C 
ATOM     15  C   UNL     1      36.917 -23.172 -11.713  0.00  0.00    +0.145 C 
ATOM     16  C   UNL     1      36.095 -25.355 -12.340  0.00  0.00    +0.145 C 
ATOM     17  C   UNL     1      36.246 -23.269 -10.494  0.00  0.00    +0.030 C 
ATOM     18  C   UNL     1      35.424 -25.454 -11.121  0.00  0.00    +0.030 C 
ATOM     19  C   UNL     1      35.501 -24.410 -10.198  0.00  0.00    +0.005 C 
ENDBRANCH   9  14
ENDBRANCH   3   7
BRANCH   2  22
ATOM     20  N   UNL     1      35.020 -20.674 -20.595  0.00  0.00    -0.241 NA
ATOM     21  C   UNL     1      33.736 -22.257 -18.681  0.00  0.00    -0.006 C 
ATOM     22  C   UNL     1      35.120 -22.121 -18.661  0.00  0.00    +0.066 C 
ATOM     23  C   UNL     1      32.994 -21.602 -19.657  0.00  0.00    +0.018 C 
ATOM     24  C   UNL     1      35.708 -21.326 -19.631  0.00  0.00    +0.113 C 
ATOM     25  C   UNL     1      33.677 -20.830 -20.583  0.00  0.00    +0.099 C 
BRANCH  21  26
ATOM     26  C   UNL     1      33.025 -23.098 -17.670  0.00  0.00    +0.022 C 
ATOM     27  C   UNL     1      30.802 -23.473 -16.496  0.00  0.00    -0.002 C 
ATOM     28  C   UNL     1      31.549 -22.669 -17.570  0.00  0.00    +0.004 C 
ATOM     29  C   UNL     1      32.978 -23.794 -15.233  0.00  0.00    -0.065 C 
ATOM     30  C   UNL     1      33.724 -22.987 -16.304  0.00  0.00    -0.017 C 
ATOM     31  C   UNL     1      31.510 -23.361 -15.138  0.00  0.00    -0.022 C 
ATOM     32  C   UNL     1      29.351 -23.004 -16.387  0.00  0.00    -0.000 C 
BRANCH  29  33
ATOM     33  N   UNL     1      33.632 -23.619 -13.937  0.00  0.00    +0.382 N 
ATOM     34  H   UNL     1      34.270 -24.397 -13.770  0.00  0.00    -0.089 HD
ATOM     35  H   UNL     1      32.925 -23.595 -13.201  0.00  0.00    -0.089 HD
ATOM     36  H   UNL     1      34.155 -22.744 -13.935  0.00  0.00    -0.089 HD
ENDBRANCH  29  33
ENDBRANCH  21  26
ENDBRANCH   2  22
TORSDOF 5
ENDMDL
MODEL 6
REMARK VINA RESULT:      -8.9      2.956      5.345
REMARK  Name = 44814409
REMARK  5 active torsions:
REMARK  status: ('A' for Active; 'I' for Inactive)
REMARK    1  A    between atoms: N_2  and  C_22
REMARK    2  A    between atoms: C_3  and  C_7
REMARK    3  A    between atoms: C_9  and  C_14
REMARK    4  A    between atoms: C_21  and  C_26
REMARK    5  A    between atoms: C_29  and  N_33
REMARK                            x       y       z     vdW  Elec       q    Type
REMARK                         _______ _______ _______ _____ _____    ______ ____
ROOT
ATOM      1  O   UNL     1      35.457  -9.925 -24.342  0.00  0.00    -0.267 OA
ATOM      2  N   UNL     1      33.152  -9.461 -24.306  0.00  0.00    -0.278 N 
ATOM      3  C   UNL     1      34.287 -10.260 -24.496  0.00  0.00    +0.275 C 
ATOM      4  H   UNL     1      32.284  -9.896 -24.475  0.00  0.00    +0.155 HD
ENDROOT
BRANCH   3   7
ATOM      5  F   UNL     1      33.326 -15.557 -25.860  0.00  0.00    -0.202 F 
ATOM      6  N   UNL     1      34.294 -12.607 -23.971  0.00  0.00    -0.399 NA
ATOM      7  C   UNL     1      34.017 -11.665 -24.900  0.00  0.00    +0.167 C 
ATOM      8  C   UNL     1      33.512 -11.943 -26.161  0.00  0.00    +0.092 C 
ATOM      9  C   UNL     1      34.052 -13.889 -24.325  0.00  0.00    +0.162 C 
ATOM     10  C   UNL     1      33.277 -13.274 -26.487  0.00  0.00    +0.014 C 
ATOM     11  C   UNL     1      33.549 -14.271 -25.558  0.00  0.00    +0.166 C 
BRANCH   9  14
ATOM     12  F   UNL     1      33.375 -13.495 -21.632  0.00  0.00    -0.204 F 
ATOM     13  F   UNL     1      35.362 -16.295 -24.925  0.00  0.00    -0.204 F 
ATOM     14  C   UNL     1      34.359 -14.867 -23.308  0.00  0.00    +0.087 C 
ATOM     15  C   UNL     1      34.004 -14.628 -21.981  0.00  0.00    +0.145 C 
ATOM     16  C   UNL     1      35.012 -16.051 -23.653  0.00  0.00    +0.145 C 
ATOM     17  C   UNL     1      34.300 -15.574 -20.998  0.00  0.00    +0.030 C 
ATOM     18  C   UNL     1      35.309 -16.996 -22.671  0.00  0.00    +0.030 C 
ATOM     19  C   UNL     1      34.953 -16.756 -21.344  0.00  0.00    +0.005 C 
ENDBRANCH   9  14
ENDBRANCH   3   7
BRANCH   2  22
ATOM     20  N   UNL     1      33.825  -5.849 -24.272  0.00  0.00    -0.241 NA
ATOM     21  C   UNL     1      32.328  -7.714 -22.824  0.00  0.00    -0.006 C 
ATOM     22  C   UNL     1      33.098  -8.125 -23.906  0.00  0.00    +0.066 C 
ATOM     23  C   UNL     1      32.306  -6.371 -22.464  0.00  0.00    +0.018 C 
ATOM     24  C   UNL     1      33.821  -7.163 -24.591  0.00  0.00    +0.113 C 
ATOM     25  C   UNL     1      33.065  -5.487 -23.214  0.00  0.00    +0.099 C 
BRANCH  21  26
ATOM     26  C   UNL     1      31.518  -8.690 -22.033  0.00  0.00    +0.022 C 
ATOM     27  C   UNL     1      31.256  -9.787 -19.755  0.00  0.00    -0.002 C 
ATOM     28  C   UNL     1      32.027  -8.748 -20.581  0.00  0.00    +0.004 C 
ATOM     29  C   UNL     1      30.800 -11.116 -21.866  0.00  0.00    -0.065 C 
ATOM     30  C   UNL     1      31.575 -10.080 -22.692  0.00  0.00    -0.017 C 
ATOM     31  C   UNL     1      31.313 -11.169 -20.423  0.00  0.00    -0.022 C 
ATOM     32  C   UNL     1      31.804  -9.854 -18.330  0.00  0.00    -0.000 C 
BRANCH  29  33
ATOM     33  N   UNL     1      30.923 -12.435 -22.485  0.00  0.00    +0.382 N 
ATOM     34  H   UNL     1      30.802 -12.350 -23.494  0.00  0.00    -0.089 HD
ATOM     35  H   UNL     1      30.206 -13.056 -22.108  0.00  0.00    -0.089 HD
ATOM     36  H   UNL     1      31.846 -12.820 -22.284  0.00  0.00    -0.089 HD
ENDBRANCH  29  33
ENDBRANCH  21  26
ENDBRANCH   2  22
TORSDOF 5
ENDMDL
MODEL 7
REMARK VINA RESULT:      -8.8      5.637     10.949
REMARK  Name = 44814409
REMARK  5 active torsions:
REMARK  status: ('A' for Active; 'I' for Inactive)
REMARK    1  A    between atoms: N_2  and  C_22
REMARK    2  A    between atoms: C_3  and  C_7
REMARK    3  A    between atoms: C_9  and  C_14
REMARK    4  A    between atoms: C_21  and  C_26
REMARK    5  A    between atoms: C_29  and  N_33
REMARK                            x       y       z     vdW  Elec       q    Type
REMARK                         _______ _______ _______ _____ _____    ______ ____
ROOT
ATOM      1  O   UNL     1      35.488  -9.556 -24.376  0.00  0.00    -0.267 OA
ATOM      2  N   UNL     1      33.337 -10.114 -25.146  0.00  0.00    -0.278 N 
ATOM      3  C   UNL     1      34.296  -9.304 -24.522  0.00  0.00    +0.275 C 
ATOM      4  H   UNL     1      32.421  -9.753 -25.176  0.00  0.00    +0.155 HD
ENDROOT
BRANCH   3   7
ATOM      5  F   UNL     1      32.432  -4.367 -22.793  0.00  0.00    -0.202 F 
ATOM      6  N   UNL     1      33.627  -7.035 -24.952  0.00  0.00    -0.399 NA
ATOM      7  C   UNL     1      33.796  -7.998 -24.019  0.00  0.00    +0.167 C 
ATOM      8  C   UNL     1      33.535  -7.824 -22.669  0.00  0.00    +0.092 C 
ATOM      9  C   UNL     1      33.172  -5.842 -24.508  0.00  0.00    +0.162 C 
ATOM     10  C   UNL     1      33.069  -6.583 -22.252  0.00  0.00    +0.014 C 
ATOM     11  C   UNL     1      32.881  -5.567 -23.182  0.00  0.00    +0.166 C 
BRANCH   9  14
ATOM     12  F   UNL     1      30.660  -4.759 -25.125  0.00  0.00    -0.204 F 
ATOM     13  F   UNL     1      35.334  -4.862 -26.001  0.00  0.00    -0.204 F 
ATOM     14  C   UNL     1      33.002  -4.839 -25.534  0.00  0.00    +0.087 C 
ATOM     15  C   UNL     1      31.733  -4.329 -25.806  0.00  0.00    +0.145 C 
ATOM     16  C   UNL     1      34.107  -4.380 -26.250  0.00  0.00    +0.145 C 
ATOM     17  C   UNL     1      31.569  -3.359 -26.796  0.00  0.00    +0.030 C 
ATOM     18  C   UNL     1      33.944  -3.411 -27.241  0.00  0.00    +0.030 C 
ATOM     19  C   UNL     1      32.674  -2.902 -27.514  0.00  0.00    +0.005 C 
ENDBRANCH   9  14
ENDBRANCH   3   7
BRANCH   2  22
ATOM     20  N   UNL     1      33.819 -12.661 -27.751  0.00  0.00    -0.241 NA
ATOM     21  C   UNL     1      33.591 -12.528 -24.967  0.00  0.00    -0.006 C 
ATOM     22  C   UNL     1      33.519 -11.368 -25.729  0.00  0.00    +0.066 C 
ATOM     23  C   UNL     1      33.777 -13.755 -25.595  0.00  0.00    +0.018 C 
ATOM     24  C   UNL     1      33.639 -11.486 -27.104  0.00  0.00    +0.113 C 
ATOM     25  C   UNL     1      33.884 -13.767 -26.976  0.00  0.00    +0.099 C 
BRANCH  21  26
ATOM     26  C   UNL     1      33.474 -12.486 -23.477  0.00  0.00    +0.022 C 
ATOM     27  C   UNL     1      33.758 -13.842 -21.346  0.00  0.00    -0.002 C 
ATOM     28  C   UNL     1      33.924 -13.829 -22.872  0.00  0.00    +0.004 C 
ATOM     29  C   UNL     1      31.864 -12.167 -21.545  0.00  0.00    -0.065 C 
ATOM     30  C   UNL     1      32.026 -12.157 -23.071  0.00  0.00    -0.017 C 
ATOM     31  C   UNL     1      32.313 -13.506 -20.950  0.00  0.00    -0.022 C 
ATOM     32  C   UNL     1      34.174 -15.196 -20.772  0.00  0.00    -0.000 C 
BRANCH  29  33
ATOM     33  N   UNL     1      30.468 -11.911 -21.194  0.00  0.00    +0.382 N 
ATOM     34  H   UNL     1      29.863 -12.532 -21.729  0.00  0.00    -0.089 HD
ATOM     35  H   UNL     1      30.236 -10.941 -21.410  0.00  0.00    -0.089 HD
ATOM     36  H   UNL     1      30.332 -12.078 -20.197  0.00  0.00    -0.089 HD
ENDBRANCH  29  33
ENDBRANCH  21  26
ENDBRANCH   2  22
TORSDOF 5
ENDMDL
MODEL 8
REMARK VINA RESULT:      -8.6      4.367      8.438
REMARK  Name = 44814409
REMARK  5 active torsions:
REMARK  status: ('A' for Active; 'I' for Inactive)
REMARK    1  A    between atoms: N_2  and  C_22
REMARK    2  A    between atoms: C_3  and  C_7
REMARK    3  A    between atoms: C_9  and  C_14
REMARK    4  A    between atoms: C_21  and  C_26
REMARK    5  A    between atoms: C_29  and  N_33
REMARK                            x       y       z     vdW  Elec       q    Type
REMARK                         _______ _______ _______ _____ _____    ______ ____
ROOT
ATOM      1  O   UNL     1      31.372 -13.805 -20.672  0.00  0.00    -0.267 OA
ATOM      2  N   UNL     1      33.315 -13.003 -21.727  0.00  0.00    -0.278 N 
ATOM      3  C   UNL     1      32.137 -12.895 -20.975  0.00  0.00    +0.275 C 
ATOM      4  H   UNL     1      33.810 -12.165 -21.875  0.00  0.00    +0.155 HD
ENDROOT
BRANCH   3   7
ATOM      5  F   UNL     1      30.975  -7.733 -19.288  0.00  0.00    -0.202 F 
ATOM      6  N   UNL     1      31.952 -10.533 -21.388  0.00  0.00    -0.399 NA
ATOM      7  C   UNL     1      31.817 -11.529 -20.484  0.00  0.00    +0.167 C 
ATOM      8  C   UNL     1      31.410 -11.336 -19.173  0.00  0.00    +0.092 C 
ATOM      9  C   UNL     1      31.663  -9.286 -20.956  0.00  0.00    +0.162 C 
ATOM     10  C   UNL     1      31.123 -10.038 -18.766  0.00  0.00    +0.014 C 
ATOM     11  C   UNL     1      31.249  -8.988 -19.668  0.00  0.00    +0.166 C 
BRANCH   9  14
ATOM     12  F   UNL     1      33.619  -7.289 -20.727  0.00  0.00    -0.204 F 
ATOM     13  F   UNL     1      30.026  -9.148 -23.228  0.00  0.00    -0.204 F 
ATOM     14  C   UNL     1      31.818  -8.248 -21.949  0.00  0.00    +0.087 C 
ATOM     15  C   UNL     1      32.805  -7.276 -21.793  0.00  0.00    +0.145 C 
ATOM     16  C   UNL     1      30.980  -8.221 -23.064  0.00  0.00    +0.145 C 
ATOM     17  C   UNL     1      32.954  -6.274 -22.753  0.00  0.00    +0.030 C 
ATOM     18  C   UNL     1      31.129  -7.219 -24.024  0.00  0.00    +0.030 C 
ATOM     19  C   UNL     1      32.116  -6.246 -23.867  0.00  0.00    +0.005 C 
ENDBRANCH   9  14
ENDBRANCH   3   7
BRANCH   2  22
ATOM     20  N   UNL     1      34.816 -16.350 -21.941  0.00  0.00    -0.241 NA
ATOM     21  C   UNL     1      34.048 -14.285 -23.662  0.00  0.00    -0.006 C 
ATOM     22  C   UNL     1      33.873 -14.151 -22.289  0.00  0.00    +0.066 C 
ATOM     23  C   UNL     1      34.607 -15.450 -24.175  0.00  0.00    +0.018 C 
ATOM     24  C   UNL     1      34.269 -15.203 -21.479  0.00  0.00    +0.113 C 
ATOM     25  C   UNL     1      34.970 -16.444 -23.280  0.00  0.00    +0.099 C 
BRANCH  21  26
ATOM     26  C   UNL     1      33.645 -13.197 -24.604  0.00  0.00    +0.022 C 
ATOM     27  C   UNL     1      33.978 -12.268 -26.947  0.00  0.00    -0.002 C 
ATOM     28  C   UNL     1      34.322 -13.403 -25.972  0.00  0.00    +0.004 C 
ATOM     29  C   UNL     1      33.659 -10.690 -24.986  0.00  0.00    -0.065 C 
ATOM     30  C   UNL     1      34.007 -11.823 -24.012  0.00  0.00    -0.017 C 
ATOM     31  C   UNL     1      34.338 -10.902 -26.345  0.00  0.00    -0.022 C 
ATOM     32  C   UNL     1      34.692 -12.473 -28.283  0.00  0.00    -0.000 C 
BRANCH  29  33
ATOM     33  N   UNL     1      34.070  -9.407 -24.421  0.00  0.00    +0.382 N 
ATOM     34  H   UNL     1      35.085  -9.321 -24.472  0.00  0.00    -0.089 HD
ATOM     35  H   UNL     1      33.773  -9.354 -23.446  0.00  0.00    -0.089 HD
ATOM     36  H   UNL     1      33.638  -8.649 -24.949  0.00  0.00    -0.089 HD
ENDBRANCH  29  33
ENDBRANCH  21  26
ENDBRANCH   2  22
TORSDOF 5
ENDMDL
MODEL 9
REMARK VINA RESULT:      -8.5      1.046      1.762
REMARK  Name = 44814409
REMARK  5 active torsions:
REMARK  status: ('A' for Active; 'I' for Inactive)
REMARK    1  A    between atoms: N_2  and  C_22
REMARK    2  A    between atoms: C_3  and  C_7
REMARK    3  A    between atoms: C_9  and  C_14
REMARK    4  A    between atoms: C_21  and  C_26
REMARK    5  A    between atoms: C_29  and  N_33
REMARK                            x       y       z     vdW  Elec       q    Type
REMARK                         _______ _______ _______ _____ _____    ______ ____
ROOT
ATOM      1  O   UNL     1      34.705 -14.191 -20.618  0.00  0.00    -0.267 OA
ATOM      2  N   UNL     1      33.011 -13.745 -22.188  0.00  0.00    -0.278 N 
ATOM      3  C   UNL     1      34.087 -14.459 -21.644  0.00  0.00    +0.275 C 
ATOM      4  H   UNL     1      32.631 -14.106 -23.022  0.00  0.00    +0.155 HD
ENDROOT
BRANCH   3   7
ATOM      5  F   UNL     1      35.572 -19.106 -24.298  0.00  0.00    -0.202 F 
ATOM      6  N   UNL     1      34.676 -16.791 -21.644  0.00  0.00    -0.399 NA
ATOM      7  C   UNL     1      34.484 -15.681 -22.392  0.00  0.00    +0.167 C 
ATOM      8  C   UNL     1      34.636 -15.637 -23.769  0.00  0.00    +0.092 C 
ATOM      9  C   UNL     1      35.036 -17.910 -22.312  0.00  0.00    +0.162 C 
ATOM     10  C   UNL     1      35.008 -16.809 -24.419  0.00  0.00    +0.014 C 
ATOM     11  C   UNL     1      35.213 -17.971 -23.684  0.00  0.00    +0.166 C 
BRANCH   9  14
ATOM     12  F   UNL     1      37.540 -18.563 -21.232  0.00  0.00    -0.204 F 
ATOM     13  F   UNL     1      32.933 -19.655 -21.682  0.00  0.00    -0.204 F 
ATOM     14  C   UNL     1      35.231 -19.075 -21.481  0.00  0.00    +0.087 C 
ATOM     15  C   UNL     1      36.495 -19.361 -20.966  0.00  0.00    +0.145 C 
ATOM     16  C   UNL     1      34.154 -19.915 -21.194  0.00  0.00    +0.145 C 
ATOM     17  C   UNL     1      36.683 -20.486 -20.163  0.00  0.00    +0.030 C 
ATOM     18  C   UNL     1      34.342 -21.040 -20.391  0.00  0.00    +0.030 C 
ATOM     19  C   UNL     1      35.607 -21.326 -19.877  0.00  0.00    +0.005 C 
ENDBRANCH   9  14
ENDBRANCH   3   7
BRANCH   2  22
ATOM     20  N   UNL     1      31.376 -11.455 -19.825  0.00  0.00    -0.241 NA
ATOM     21  C   UNL     1      32.242 -11.454 -22.483  0.00  0.00    -0.006 C 
ATOM     22  C   UNL     1      32.411 -12.587 -21.694  0.00  0.00    +0.066 C 
ATOM     23  C   UNL     1      31.640 -10.322 -21.945  0.00  0.00    +0.018 C 
ATOM     24  C   UNL     1      31.966 -12.536 -20.383  0.00  0.00    +0.113 C 
ATOM     25  C   UNL     1      31.229 -10.374 -20.622  0.00  0.00    +0.099 C 
BRANCH  21  26
ATOM     26  C   UNL     1      32.697 -11.427 -23.907  0.00  0.00    +0.022 C 
ATOM     27  C   UNL     1      33.338 -12.874 -25.897  0.00  0.00    -0.002 C 
ATOM     28  C   UNL     1      32.814 -12.862 -24.453  0.00  0.00    +0.004 C 
ATOM     29  C   UNL     1      34.559 -10.693 -25.463  0.00  0.00    -0.065 C 
ATOM     30  C   UNL     1      34.040 -10.684 -24.019  0.00  0.00    -0.017 C 
ATOM     31  C   UNL     1      34.675 -12.125 -25.999  0.00  0.00    -0.022 C 
ATOM     32  C   UNL     1      33.483 -14.308 -26.403  0.00  0.00    -0.000 C 
BRANCH  29  33
ATOM     33  N   UNL     1      35.862 -10.034 -25.524  0.00  0.00    +0.382 N 
ATOM     34  H   UNL     1      35.902  -9.435 -26.349  0.00  0.00    -0.089 HD
ATOM     35  H   UNL     1      36.598 -10.739 -25.582  0.00  0.00    -0.089 HD
ATOM     36  H   UNL     1      35.998  -9.469 -24.686  0.00  0.00    -0.089 HD
ENDBRANCH  29  33
ENDBRANCH  21  26
ENDBRANCH   2  22
TORSDOF 5
ENDMDL
