MODEL 1
REMARK VINA RESULT:     -11.6      0.000      0.000
REMARK  Name = 42642648
REMARK  5 active torsions:
REMARK  status: ('A' for Active; 'I' for Inactive)
REMARK    1  A    between atoms: N_1  and  C_22
REMARK    2  A    between atoms: C_4  and  N_15
REMARK    3  A    between atoms: C_25  and  O_28
REMARK    4  A    between atoms: O_28  and  C_29
REMARK    5  A    between atoms: C_29  and  C_32
REMARK                            x       y       z     vdW  Elec       q    Type
REMARK                         _______ _______ _______ _____ _____    ______ ____
ROOT
ATOM      1  N   UNL     1      33.361 -22.881 -18.361  0.00  0.00    -0.301 N 
ATOM      2  N   UNL     1      30.141 -23.160 -15.776  0.00  0.00    -0.248 NA
ATOM      3  N   UNL     1      31.112 -22.414 -17.851  0.00  0.00    -0.233 NA
ATOM      4  C   UNL     1      33.756 -24.903 -14.654  0.00  0.00    +0.048 C 
ATOM      5  C   UNL     1      32.436 -23.657 -16.257  0.00  0.00    +0.117 C 
ATOM      6  C   UNL     1      33.655 -24.247 -15.875  0.00  0.00    +0.001 C 
ATOM      7  C   UNL     1      31.310 -23.719 -15.421  0.00  0.00    +0.067 C 
ATOM      8  C   UNL     1      32.268 -22.985 -17.464  0.00  0.00    +0.115 C 
ATOM      9  C   UNL     1      32.648 -24.972 -13.817  0.00  0.00    +0.016 C 
ATOM     10  C   UNL     1      31.441 -24.383 -14.202  0.00  0.00    +0.016 C 
ATOM     11  C   UNL     1      30.105 -22.537 -16.971  0.00  0.00    +0.251 C 
ATOM     12  H   UNL     1      33.989 -23.637 -18.310  0.00  0.00    +0.153 HD
ENDROOT
BRANCH   4  15
ATOM     13  O   UNL     1      36.988 -25.813 -13.235  0.00  0.00    -0.448 OA
ATOM     14  N   UNL     1      35.863 -23.890 -12.731  0.00  0.00    -0.222 NA
ATOM     15  N   UNL     1      34.975 -25.496 -14.265  0.00  0.00    -0.269 N 
ATOM     16  C   UNL     1      37.073 -23.937 -11.894  0.00  0.00    +0.151 C 
ATOM     17  C   UNL     1      37.926 -25.020 -12.521  0.00  0.00    +0.233 C 
ATOM     18  C   UNL     1      35.899 -25.006 -13.393  0.00  0.00    +0.284 C 
ATOM     19  C   UNL     1      37.751 -22.581 -11.870  0.00  0.00    +0.030 C 
ATOM     20  H   UNL     1      35.182 -26.368 -14.673  0.00  0.00    +0.157 HD
ENDBRANCH   4  15
BRANCH   1  22
ATOM     21 CL   UNL     1      37.093 -20.322 -20.745  0.00  0.00    -0.079 Cl
ATOM     22  C   UNL     1      33.720 -21.907 -19.307  0.00  0.00    +0.050 C 
ATOM     23  C   UNL     1      35.065 -21.623 -19.538  0.00  0.00    +0.029 C 
ATOM     24  C   UNL     1      32.731 -21.226 -20.014  0.00  0.00    +0.018 C 
ATOM     25  C   UNL     1      34.432 -19.974 -21.188  0.00  0.00    +0.150 C 
ATOM     26  C   UNL     1      35.422 -20.656 -20.479  0.00  0.00    +0.093 C 
ATOM     27  C   UNL     1      33.087 -20.259 -20.955  0.00  0.00    +0.039 C 
BRANCH  25  28
ATOM     28  O   UNL     1      34.751 -19.024 -22.112  0.00  0.00    -0.468 OA
BRANCH  28  29
ATOM     29  C   UNL     1      35.134 -17.742 -21.616  0.00  0.00    +0.257 C 
BRANCH  29  32
ATOM     30  S   UNL     1      34.743 -17.174 -24.304  0.00  0.00    -0.067 S 
ATOM     31  N   UNL     1      34.622 -15.432 -22.398  0.00  0.00    -0.237 NA
ATOM     32  C   UNL     1      34.831 -16.704 -22.656  0.00  0.00    +0.132 C 
ATOM     33  C   UNL     1      34.396 -15.549 -24.723  0.00  0.00    +0.057 C 
ATOM     34  C   UNL     1      34.373 -14.771 -23.585  0.00  0.00    +0.106 C 
ENDBRANCH  29  32
ENDBRANCH  28  29
ENDBRANCH  25  28
ENDBRANCH   1  22
TORSDOF 5
ENDMDL
MODEL 2
REMARK VINA RESULT:     -11.4      1.058      1.162
REMARK  Name = 42642648
REMARK  5 active torsions:
REMARK  status: ('A' for Active; 'I' for Inactive)
REMARK    1  A    between atoms: N_1  and  C_22
REMARK    2  A    between atoms: C_4  and  N_15
REMARK    3  A    between atoms: C_25  and  O_28
REMARK    4  A    between atoms: O_28  and  C_29
REMARK    5  A    between atoms: C_29  and  C_32
REMARK                            x       y       z     vdW  Elec       q    Type
REMARK                         _______ _______ _______ _____ _____    ______ ____
ROOT
ATOM      1  N   UNL     1      32.856 -23.004 -17.837  0.00  0.00    -0.301 N 
ATOM      2  N   UNL     1      29.400 -23.070 -15.560  0.00  0.00    -0.248 NA
ATOM      3  N   UNL     1      30.558 -22.553 -17.609  0.00  0.00    -0.233 NA
ATOM      4  C   UNL     1      32.921 -24.542 -13.884  0.00  0.00    +0.048 C 
ATOM      5  C   UNL     1      31.742 -23.546 -15.751  0.00  0.00    +0.117 C 
ATOM      6  C   UNL     1      32.928 -24.044 -15.183  0.00  0.00    +0.001 C 
ATOM      7  C   UNL     1      30.539 -23.543 -15.026  0.00  0.00    +0.067 C 
ATOM      8  C   UNL     1      31.681 -23.034 -17.044  0.00  0.00    +0.115 C 
ATOM      9  C   UNL     1      31.737 -24.544 -13.156  0.00  0.00    +0.016 C 
ATOM     10  C   UNL     1      30.562 -24.047 -13.728  0.00  0.00    +0.016 C 
ATOM     11  C   UNL     1      29.470 -22.601 -16.822  0.00  0.00    +0.251 C 
ATOM     12  H   UNL     1      33.491 -23.727 -17.631  0.00  0.00    +0.153 HD
ENDROOT
BRANCH   4  15
ATOM     13  O   UNL     1      36.325 -25.355 -12.867  0.00  0.00    -0.448 OA
ATOM     14  N   UNL     1      35.799 -23.783 -14.439  0.00  0.00    -0.222 NA
ATOM     15  N   UNL     1      34.106 -25.042 -13.309  0.00  0.00    -0.269 N 
ATOM     16  C   UNL     1      37.257 -23.753 -14.242  0.00  0.00    +0.151 C 
ATOM     17  C   UNL     1      37.563 -25.026 -13.481  0.00  0.00    +0.233 C 
ATOM     18  C   UNL     1      35.388 -24.672 -13.587  0.00  0.00    +0.284 C 
ATOM     19  C   UNL     1      37.968 -23.670 -15.579  0.00  0.00    +0.030 C 
ATOM     20  H   UNL     1      33.995 -25.742 -12.625  0.00  0.00    +0.157 HD
ENDBRANCH   4  15
BRANCH   1  22
ATOM     21 CL   UNL     1      36.764 -21.034 -20.484  0.00  0.00    -0.079 Cl
ATOM     22  C   UNL     1      33.287 -22.143 -18.858  0.00  0.00    +0.050 C 
ATOM     23  C   UNL     1      34.647 -22.021 -19.140  0.00  0.00    +0.029 C 
ATOM     24  C   UNL     1      32.354 -21.410 -19.591  0.00  0.00    +0.018 C 
ATOM     25  C   UNL     1      34.142 -20.432 -20.889  0.00  0.00    +0.150 C 
ATOM     26  C   UNL     1      35.075 -21.166 -20.156  0.00  0.00    +0.093 C 
ATOM     27  C   UNL     1      32.782 -20.554 -20.606  0.00  0.00    +0.039 C 
BRANCH  25  28
ATOM     28  O   UNL     1      34.531 -19.589 -21.887  0.00  0.00    -0.468 OA
BRANCH  28  29
ATOM     29  C   UNL     1      35.073 -18.329 -21.493  0.00  0.00    +0.257 C 
BRANCH  29  32
ATOM     30  S   UNL     1      34.688 -17.931 -24.212  0.00  0.00    -0.067 S 
ATOM     31  N   UNL     1      34.869 -16.040 -22.460  0.00  0.00    -0.237 NA
ATOM     32  C   UNL     1      34.889 -17.346 -22.612  0.00  0.00    +0.132 C 
ATOM     33  C   UNL     1      34.562 -16.312 -24.762  0.00  0.00    +0.057 C 
ATOM     34  C   UNL     1      34.682 -15.449 -23.694  0.00  0.00    +0.106 C 
ENDBRANCH  29  32
ENDBRANCH  28  29
ENDBRANCH  25  28
ENDBRANCH   1  22
TORSDOF 5
ENDMDL
MODEL 3
REMARK VINA RESULT:     -10.9      1.433      1.938
REMARK  Name = 42642648
REMARK  5 active torsions:
REMARK  status: ('A' for Active; 'I' for Inactive)
REMARK    1  A    between atoms: N_1  and  C_22
REMARK    2  A    between atoms: C_4  and  N_15
REMARK    3  A    between atoms: C_25  and  O_28
REMARK    4  A    between atoms: O_28  and  C_29
REMARK    5  A    between atoms: C_29  and  C_32
REMARK                            x       y       z     vdW  Elec       q    Type
REMARK                         _______ _______ _______ _____ _____    ______ ____
ROOT
ATOM      1  N   UNL     1      33.512 -23.059 -17.640  0.00  0.00    -0.301 N 
ATOM      2  N   UNL     1      29.840 -23.296 -15.746  0.00  0.00    -0.248 NA
ATOM      3  N   UNL     1      31.171 -22.830 -17.699  0.00  0.00    -0.233 NA
ATOM      4  C   UNL     1      33.269 -24.259 -13.579  0.00  0.00    +0.048 C 
ATOM      5  C   UNL     1      32.223 -23.543 -15.644  0.00  0.00    +0.117 C 
ATOM      6  C   UNL     1      33.377 -23.869 -14.910  0.00  0.00    +0.001 C 
ATOM      7  C   UNL     1      30.950 -23.605 -15.053  0.00  0.00    +0.067 C 
ATOM      8  C   UNL     1      32.263 -23.146 -16.977  0.00  0.00    +0.115 C 
ATOM      9  C   UNL     1      32.014 -24.323 -12.984  0.00  0.00    +0.016 C 
ATOM     10  C   UNL     1      30.871 -23.998 -13.719  0.00  0.00    +0.016 C 
ATOM     11  C   UNL     1      30.010 -22.925 -17.030  0.00  0.00    +0.251 C 
ATOM     12  H   UNL     1      34.185 -23.694 -17.304  0.00  0.00    +0.153 HD
ENDROOT
BRANCH   4  15
ATOM     13  O   UNL     1      36.523 -25.324 -12.330  0.00  0.00    -0.448 OA
ATOM     14  N   UNL     1      35.906 -25.403 -14.528  0.00  0.00    -0.222 NA
ATOM     15  N   UNL     1      34.422 -24.586 -12.839  0.00  0.00    -0.269 N 
ATOM     16  C   UNL     1      37.312 -25.827 -14.439  0.00  0.00    +0.151 C 
ATOM     17  C   UNL     1      37.537 -26.090 -12.965  0.00  0.00    +0.233 C 
ATOM     18  C   UNL     1      35.593 -25.101 -13.305  0.00  0.00    +0.284 C 
ATOM     19  C   UNL     1      37.551 -27.047 -15.308  0.00  0.00    +0.030 C 
ATOM     20  H   UNL     1      34.375 -24.424 -11.868  0.00  0.00    +0.157 HD
ENDBRANCH   4  15
BRANCH   1  22
ATOM     21 CL   UNL     1      32.377 -20.013 -21.589  0.00  0.00    -0.079 Cl
ATOM     22  C   UNL     1      33.975 -22.243 -18.685  0.00  0.00    +0.050 C 
ATOM     23  C   UNL     1      33.065 -21.604 -19.526  0.00  0.00    +0.029 C 
ATOM     24  C   UNL     1      35.345 -22.074 -18.882  0.00  0.00    +0.018 C 
ATOM     25  C   UNL     1      34.896 -20.622 -20.760  0.00  0.00    +0.150 C 
ATOM     26  C   UNL     1      33.525 -20.792 -20.563  0.00  0.00    +0.093 C 
ATOM     27  C   UNL     1      35.805 -21.263 -19.919  0.00  0.00    +0.039 C 
BRANCH  25  28
ATOM     28  O   UNL     1      35.374 -19.836 -21.766  0.00  0.00    -0.468 OA
BRANCH  28  29
ATOM     29  C   UNL     1      35.550 -18.451 -21.476  0.00  0.00    +0.257 C 
BRANCH  29  32
ATOM     30  S   UNL     1      34.573 -18.455 -24.073  0.00  0.00    -0.067 S 
ATOM     31  N   UNL     1      35.077 -16.328 -22.694  0.00  0.00    -0.237 NA
ATOM     32  C   UNL     1      35.100 -17.642 -22.657  0.00  0.00    +0.132 C 
ATOM     33  C   UNL     1      34.285 -16.934 -24.810  0.00  0.00    +0.057 C 
ATOM     34  C   UNL     1      34.610 -15.924 -23.929  0.00  0.00    +0.106 C 
ENDBRANCH  29  32
ENDBRANCH  28  29
ENDBRANCH  25  28
ENDBRANCH   1  22
TORSDOF 5
ENDMDL
MODEL 4
REMARK VINA RESULT:     -10.2      1.936      2.566
REMARK  Name = 42642648
REMARK  5 active torsions:
REMARK  status: ('A' for Active; 'I' for Inactive)
REMARK    1  A    between atoms: N_1  and  C_22
REMARK    2  A    between atoms: C_4  and  N_15
REMARK    3  A    between atoms: C_25  and  O_28
REMARK    4  A    between atoms: O_28  and  C_29
REMARK    5  A    between atoms: C_29  and  C_32
REMARK                            x       y       z     vdW  Elec       q    Type
REMARK                         _______ _______ _______ _____ _____    ______ ____
ROOT
ATOM      1  N   UNL     1      35.009 -21.606 -19.839  0.00  0.00    -0.301 N 
ATOM      2  N   UNL     1      31.817 -22.792 -17.485  0.00  0.00    -0.248 NA
ATOM      3  N   UNL     1      32.689 -21.825 -19.513  0.00  0.00    -0.233 NA
ATOM      4  C   UNL     1      35.684 -23.354 -16.033  0.00  0.00    +0.048 C 
ATOM      5  C   UNL     1      34.188 -22.587 -17.778  0.00  0.00    +0.117 C 
ATOM      6  C   UNL     1      35.492 -22.778 -17.285  0.00  0.00    +0.001 C 
ATOM      7  C   UNL     1      33.067 -22.969 -17.023  0.00  0.00    +0.067 C 
ATOM      8  C   UNL     1      33.927 -22.017 -19.020  0.00  0.00    +0.115 C 
ATOM      9  C   UNL     1      34.582 -23.736 -15.277  0.00  0.00    +0.016 C 
ATOM     10  C   UNL     1      33.290 -23.542 -15.773  0.00  0.00    +0.016 C 
ATOM     11  C   UNL     1      31.696 -22.229 -18.704  0.00  0.00    +0.251 C 
ATOM     12  H   UNL     1      35.827 -22.138 -19.712  0.00  0.00    +0.153 HD
ENDROOT
BRANCH   4  15
ATOM     13  O   UNL     1      38.736 -24.410 -14.345  0.00  0.00    -0.448 OA
ATOM     14  N   UNL     1      36.703 -25.411 -14.060  0.00  0.00    -0.222 NA
ATOM     15  N   UNL     1      36.987 -23.548 -15.534  0.00  0.00    -0.269 N 
ATOM     16  C   UNL     1      37.694 -26.176 -13.287  0.00  0.00    +0.151 C 
ATOM     17  C   UNL     1      38.909 -25.274 -13.231  0.00  0.00    +0.233 C 
ATOM     18  C   UNL     1      37.407 -24.489 -14.643  0.00  0.00    +0.284 C 
ATOM     19  C   UNL     1      37.142 -26.521 -11.917  0.00  0.00    +0.030 C 
ATOM     20  H   UNL     1      37.677 -22.929 -15.868  0.00  0.00    +0.157 HD
ENDBRANCH   4  15
BRANCH   1  22
ATOM     21 CL   UNL     1      38.064 -18.288 -22.251  0.00  0.00    -0.079 Cl
ATOM     22  C   UNL     1      35.138 -20.586 -20.795  0.00  0.00    +0.050 C 
ATOM     23  C   UNL     1      36.383 -20.004 -21.030  0.00  0.00    +0.029 C 
ATOM     24  C   UNL     1      34.021 -20.155 -21.509  0.00  0.00    +0.018 C 
ATOM     25  C   UNL     1      35.393 -18.560 -22.696  0.00  0.00    +0.150 C 
ATOM     26  C   UNL     1      36.512 -18.991 -21.981  0.00  0.00    +0.093 C 
ATOM     27  C   UNL     1      34.149 -19.142 -22.460  0.00  0.00    +0.039 C 
BRANCH  25  28
ATOM     28  O   UNL     1      35.489 -17.572 -23.630  0.00  0.00    -0.468 OA
BRANCH  28  29
ATOM     29  C   UNL     1      34.418 -17.461 -24.566  0.00  0.00    +0.257 C 
BRANCH  29  32
ATOM     30  S   UNL     1      34.224 -14.956 -23.388  0.00  0.00    -0.067 S 
ATOM     31  N   UNL     1      33.615 -15.479 -25.845  0.00  0.00    -0.237 NA
ATOM     32  C   UNL     1      34.058 -16.014 -24.729  0.00  0.00    +0.132 C 
ATOM     33  C   UNL     1      33.659 -13.667 -24.366  0.00  0.00    +0.057 C 
ATOM     34  C   UNL     1      33.386 -14.133 -25.635  0.00  0.00    +0.106 C 
ENDBRANCH  29  32
ENDBRANCH  28  29
ENDBRANCH  25  28
ENDBRANCH   1  22
TORSDOF 5
ENDMDL
MODEL 5
REMARK VINA RESULT:     -10.0      5.290     13.223
REMARK  Name = 42642648
REMARK  5 active torsions:
REMARK  status: ('A' for Active; 'I' for Inactive)
REMARK    1  A    between atoms: N_1  and  C_22
REMARK    2  A    between atoms: C_4  and  N_15
REMARK    3  A    between atoms: C_25  and  O_28
REMARK    4  A    between atoms: O_28  and  C_29
REMARK    5  A    between atoms: C_29  and  C_32
REMARK                            x       y       z     vdW  Elec       q    Type
REMARK                         _______ _______ _______ _____ _____    ______ ____
ROOT
ATOM      1  N   UNL     1      33.497 -13.654 -23.960  0.00  0.00    -0.301 N 
ATOM      2  N   UNL     1      34.024 -11.723 -27.583  0.00  0.00    -0.248 NA
ATOM      3  N   UNL     1      33.853 -13.745 -26.284  0.00  0.00    -0.233 NA
ATOM      4  C   UNL     1      33.468  -9.417 -24.156  0.00  0.00    +0.048 C 
ATOM      5  C   UNL     1      33.661 -11.585 -25.217  0.00  0.00    +0.117 C 
ATOM      6  C   UNL     1      33.473 -10.804 -24.063  0.00  0.00    +0.001 C 
ATOM      7  C   UNL     1      33.845 -10.985 -26.473  0.00  0.00    +0.067 C 
ATOM      8  C   UNL     1      33.676 -12.977 -25.193  0.00  0.00    +0.115 C 
ATOM      9  C   UNL     1      33.650  -8.811 -25.394  0.00  0.00    +0.016 C 
ATOM     10  C   UNL     1      33.836  -9.594 -26.536  0.00  0.00    +0.016 C 
ATOM     11  C   UNL     1      34.019 -13.062 -27.429  0.00  0.00    +0.251 C 
ATOM     12  H   UNL     1      32.936 -13.164 -23.317  0.00  0.00    +0.153 HD
ENDROOT
BRANCH   4  15
ATOM     13  O   UNL     1      32.621  -7.983 -20.914  0.00  0.00    -0.448 OA
ATOM     14  N   UNL     1      32.085 -10.109 -21.554  0.00  0.00    -0.222 NA
ATOM     15  N   UNL     1      33.281  -8.628 -23.002  0.00  0.00    -0.269 N 
ATOM     16  C   UNL     1      31.657  -9.938 -20.156  0.00  0.00    +0.151 C 
ATOM     17  C   UNL     1      31.712  -8.443 -19.923  0.00  0.00    +0.233 C 
ATOM     18  C   UNL     1      32.651  -8.978 -21.847  0.00  0.00    +0.284 C 
ATOM     19  C   UNL     1      30.273 -10.524 -19.953  0.00  0.00    +0.030 C 
ATOM     20  H   UNL     1      33.650  -7.716 -23.036  0.00  0.00    +0.157 HD
ENDBRANCH   4  15
BRANCH   1  22
ATOM     21 CL   UNL     1      34.564 -18.560 -24.934  0.00  0.00    -0.079 Cl
ATOM     22  C   UNL     1      33.966 -14.887 -23.481  0.00  0.00    +0.050 C 
ATOM     23  C   UNL     1      34.030 -15.988 -24.334  0.00  0.00    +0.029 C 
ATOM     24  C   UNL     1      34.367 -15.011 -22.151  0.00  0.00    +0.018 C 
ATOM     25  C   UNL     1      34.897 -17.338 -22.526  0.00  0.00    +0.150 C 
ATOM     26  C   UNL     1      34.496 -17.214 -23.858  0.00  0.00    +0.093 C 
ATOM     27  C   UNL     1      34.833 -16.236 -21.674  0.00  0.00    +0.039 C 
BRANCH  25  28
ATOM     28  O   UNL     1      35.356 -18.523 -22.034  0.00  0.00    -0.468 OA
BRANCH  28  29
ATOM     29  C   UNL     1      34.384 -19.533 -21.770  0.00  0.00    +0.257 C 
BRANCH  29  32
ATOM     30  S   UNL     1      33.818 -21.521 -19.918  0.00  0.00    -0.067 S 
ATOM     31  N   UNL     1      36.156 -20.488 -20.300  0.00  0.00    -0.237 NA
ATOM     32  C   UNL     1      34.904 -20.446 -20.699  0.00  0.00    +0.132 C 
ATOM     33  C   UNL     1      35.117 -22.101 -18.963  0.00  0.00    +0.057 C 
ATOM     34  C   UNL     1      36.277 -21.437 -19.304  0.00  0.00    +0.106 C 
ENDBRANCH  29  32
ENDBRANCH  28  29
ENDBRANCH  25  28
ENDBRANCH   1  22
TORSDOF 5
ENDMDL
MODEL 6
REMARK VINA RESULT:      -9.7      6.642     13.926
REMARK  Name = 42642648
REMARK  5 active torsions:
REMARK  status: ('A' for Active; 'I' for Inactive)
REMARK    1  A    between atoms: N_1  and  C_22
REMARK    2  A    between atoms: C_4  and  N_15
REMARK    3  A    between atoms: C_25  and  O_28
REMARK    4  A    between atoms: O_28  and  C_29
REMARK    5  A    between atoms: C_29  and  C_32
REMARK                            x       y       z     vdW  Elec       q    Type
REMARK                         _______ _______ _______ _____ _____    ______ ____
ROOT
ATOM      1  N   UNL     1      33.567 -11.999 -24.479  0.00  0.00    -0.301 N 
ATOM      2  N   UNL     1      35.417  -9.289 -27.003  0.00  0.00    -0.248 NA
ATOM      3  N   UNL     1      34.697 -11.531 -26.490  0.00  0.00    -0.233 NA
ATOM      4  C   UNL     1      33.839  -7.906 -23.401  0.00  0.00    +0.048 C 
ATOM      5  C   UNL     1      34.267  -9.723 -24.944  0.00  0.00    +0.117 C 
ATOM      6  C   UNL     1      33.735  -9.253 -23.730  0.00  0.00    +0.001 C 
ATOM      7  C   UNL     1      34.906  -8.850 -25.839  0.00  0.00    +0.067 C 
ATOM      8  C   UNL     1      34.197 -11.058 -25.332  0.00  0.00    +0.115 C 
ATOM      9  C   UNL     1      34.470  -7.031 -24.279  0.00  0.00    +0.016 C 
ATOM     10  C   UNL     1      34.996  -7.506 -25.483  0.00  0.00    +0.016 C 
ATOM     11  C   UNL     1      35.286 -10.605 -27.265  0.00  0.00    +0.251 C 
ATOM     12  H   UNL     1      32.846 -11.615 -23.930  0.00  0.00    +0.153 HD
ENDROOT
BRANCH   4  15
ATOM     13  O   UNL     1      32.245  -7.384 -20.166  0.00  0.00    -0.448 OA
ATOM     14  N   UNL     1      32.366  -9.405 -21.223  0.00  0.00    -0.222 NA
ATOM     15  N   UNL     1      33.309  -7.428 -22.186  0.00  0.00    -0.269 N 
ATOM     16  C   UNL     1      31.735  -9.620 -19.911  0.00  0.00    +0.151 C 
ATOM     17  C   UNL     1      31.369  -8.230 -19.434  0.00  0.00    +0.233 C 
ATOM     18  C   UNL     1      32.650  -8.138 -21.228  0.00  0.00    +0.284 C 
ATOM     19  C   UNL     1      30.537 -10.540 -20.046  0.00  0.00    +0.030 C 
ATOM     20  H   UNL     1      33.429  -6.467 -22.008  0.00  0.00    +0.157 HD
ENDBRANCH   4  15
BRANCH   1  22
ATOM     21 CL   UNL     1      34.667 -15.761 -21.194  0.00  0.00    -0.079 Cl
ATOM     22  C   UNL     1      33.773 -13.371 -24.268  0.00  0.00    +0.050 C 
ATOM     23  C   UNL     1      34.082 -13.842 -22.992  0.00  0.00    +0.029 C 
ATOM     24  C   UNL     1      33.668 -14.264 -25.334  0.00  0.00    +0.018 C 
ATOM     25  C   UNL     1      34.180 -16.099 -23.849  0.00  0.00    +0.150 C 
ATOM     26  C   UNL     1      34.285 -15.206 -22.782  0.00  0.00    +0.093 C 
ATOM     27  C   UNL     1      33.872 -15.627 -25.125  0.00  0.00    +0.039 C 
BRANCH  25  28
ATOM     28  O   UNL     1      34.375 -17.437 -23.673  0.00  0.00    -0.468 OA
BRANCH  28  29
ATOM     29  C   UNL     1      35.719 -17.875 -23.486  0.00  0.00    +0.257 C 
BRANCH  29  32
ATOM     30  S   UNL     1      34.374 -19.760 -21.957  0.00  0.00    -0.067 S 
ATOM     31  N   UNL     1      36.815 -19.010 -21.556  0.00  0.00    -0.237 NA
ATOM     32  C   UNL     1      35.767 -18.828 -22.328  0.00  0.00    +0.132 C 
ATOM     33  C   UNL     1      35.231 -20.475 -20.655  0.00  0.00    +0.057 C 
ATOM     34  C   UNL     1      36.506 -19.954 -20.597  0.00  0.00    +0.106 C 
ENDBRANCH  29  32
ENDBRANCH  28  29
ENDBRANCH  25  28
ENDBRANCH   1  22
TORSDOF 5
ENDMDL
MODEL 7
REMARK VINA RESULT:      -9.5      5.369     14.160
REMARK  Name = 42642648
REMARK  5 active torsions:
REMARK  status: ('A' for Active; 'I' for Inactive)
REMARK    1  A    between atoms: N_1  and  C_22
REMARK    2  A    between atoms: C_4  and  N_15
REMARK    3  A    between atoms: C_25  and  O_28
REMARK    4  A    between atoms: O_28  and  C_29
REMARK    5  A    between atoms: C_29  and  C_32
REMARK                            x       y       z     vdW  Elec       q    Type
REMARK                         _______ _______ _______ _____ _____    ______ ____
ROOT
ATOM      1  N   UNL     1      33.714 -13.625 -23.683  0.00  0.00    -0.301 N 
ATOM      2  N   UNL     1      33.979 -12.408 -27.630  0.00  0.00    -0.248 NA
ATOM      3  N   UNL     1      33.788 -14.149 -25.976  0.00  0.00    -0.233 NA
ATOM      4  C   UNL     1      34.026  -9.505 -24.639  0.00  0.00    +0.048 C 
ATOM      5  C   UNL     1      33.907 -11.831 -25.304  0.00  0.00    +0.117 C 
ATOM      6  C   UNL     1      33.922 -10.849 -24.297  0.00  0.00    +0.001 C 
ATOM      7  C   UNL     1      33.994 -11.477 -26.660  0.00  0.00    +0.067 C 
ATOM      8  C   UNL     1      33.806 -13.191 -25.029  0.00  0.00    +0.115 C 
ATOM      9  C   UNL     1      34.114  -9.142 -25.979  0.00  0.00    +0.016 C 
ATOM     10  C   UNL     1      34.098 -10.124 -26.973  0.00  0.00    +0.016 C 
ATOM     11  C   UNL     1      33.878 -13.693 -27.236  0.00  0.00    +0.251 C 
ATOM     12  H   UNL     1      33.275 -12.977 -23.087  0.00  0.00    +0.153 HD
ENDROOT
BRANCH   4  15
ATOM     13  O   UNL     1      33.462  -6.684 -22.402  0.00  0.00    -0.448 OA
ATOM     14  N   UNL     1      32.131  -7.187 -24.189  0.00  0.00    -0.222 NA
ATOM     15  N   UNL     1      34.042  -8.516 -23.635  0.00  0.00    -0.269 N 
ATOM     16  C   UNL     1      31.528  -6.044 -23.486  0.00  0.00    +0.151 C 
ATOM     17  C   UNL     1      32.618  -5.551 -22.557  0.00  0.00    +0.233 C 
ATOM     18  C   UNL     1      33.168  -7.485 -23.466  0.00  0.00    +0.284 C 
ATOM     19  C   UNL     1      31.071  -4.994 -24.480  0.00  0.00    +0.030 C 
ATOM     20  H   UNL     1      34.773  -8.577 -22.978  0.00  0.00    +0.157 HD
ENDBRANCH   4  15
BRANCH   1  22
ATOM     21 CL   UNL     1      35.351 -18.453 -24.098  0.00  0.00    -0.079 Cl
ATOM     22  C   UNL     1      34.127 -14.801 -23.037  0.00  0.00    +0.050 C 
ATOM     23  C   UNL     1      34.493 -15.918 -23.787  0.00  0.00    +0.029 C 
ATOM     24  C   UNL     1      34.172 -14.852 -21.644  0.00  0.00    +0.018 C 
ATOM     25  C   UNL     1      34.949 -17.136 -21.751  0.00  0.00    +0.150 C 
ATOM     26  C   UNL     1      34.904 -17.086 -23.145  0.00  0.00    +0.093 C 
ATOM     27  C   UNL     1      34.583 -16.019 -21.001  0.00  0.00    +0.039 C 
BRANCH  25  28
ATOM     28  O   UNL     1      35.346 -18.264 -21.097  0.00  0.00    -0.468 OA
BRANCH  28  29
ATOM     29  C   UNL     1      34.758 -19.495 -21.515  0.00  0.00    +0.257 C 
BRANCH  29  32
ATOM     30  S   UNL     1      33.652 -21.455 -19.891  0.00  0.00    -0.067 S 
ATOM     31  N   UNL     1      36.151 -20.794 -19.907  0.00  0.00    -0.237 NA
ATOM     32  C   UNL     1      34.985 -20.532 -20.454  0.00  0.00    +0.132 C 
ATOM     33  C   UNL     1      34.709 -22.284 -18.825  0.00  0.00    +0.057 C 
ATOM     34  C   UNL     1      35.991 -21.799 -18.973  0.00  0.00    +0.106 C 
ENDBRANCH  29  32
ENDBRANCH  28  29
ENDBRANCH  25  28
ENDBRANCH   1  22
TORSDOF 5
ENDMDL
MODEL 8
REMARK VINA RESULT:      -9.5      8.366     16.765
REMARK  Name = 42642648
REMARK  5 active torsions:
REMARK  status: ('A' for Active; 'I' for Inactive)
REMARK    1  A    between atoms: N_1  and  C_22
REMARK    2  A    between atoms: C_4  and  N_15
REMARK    3  A    between atoms: C_25  and  O_28
REMARK    4  A    between atoms: O_28  and  C_29
REMARK    5  A    between atoms: C_29  and  C_32
REMARK                            x       y       z     vdW  Elec       q    Type
REMARK                         _______ _______ _______ _____ _____    ______ ____
ROOT
ATOM      1  N   UNL     1      34.004  -9.924 -24.109  0.00  0.00    -0.301 N 
ATOM      2  N   UNL     1      31.368  -6.952 -22.946  0.00  0.00    -0.248 NA
ATOM      3  N   UNL     1      32.084  -9.253 -22.925  0.00  0.00    -0.233 NA
ATOM      4  C   UNL     1      34.574  -5.925 -25.404  0.00  0.00    +0.048 C 
ATOM      5  C   UNL     1      33.331  -7.594 -24.165  0.00  0.00    +0.117 C 
ATOM      6  C   UNL     1      34.412  -7.244 -24.993  0.00  0.00    +0.001 C 
ATOM      7  C   UNL     1      32.405  -6.629 -23.739  0.00  0.00    +0.067 C 
ATOM      8  C   UNL     1      33.111  -8.895 -23.720  0.00  0.00    +0.115 C 
ATOM      9  C   UNL     1      33.663  -4.960 -24.989  0.00  0.00    +0.016 C 
ATOM     10  C   UNL     1      32.592  -5.316 -24.166  0.00  0.00    +0.016 C 
ATOM     11  C   UNL     1      31.264  -8.246 -22.583  0.00  0.00    +0.251 C 
ATOM     12  H   UNL     1      34.926  -9.613 -24.260  0.00  0.00    +0.153 HD
ENDROOT
BRANCH   4  15
ATOM     13  O   UNL     1      36.860  -4.570 -27.898  0.00  0.00    -0.448 OA
ATOM     14  N   UNL     1      34.655  -3.993 -27.733  0.00  0.00    -0.222 NA
ATOM     15  N   UNL     1      35.655  -5.568 -26.235  0.00  0.00    -0.269 N 
ATOM     16  C   UNL     1      35.258  -3.171 -28.794  0.00  0.00    +0.151 C 
ATOM     17  C   UNL     1      36.584  -3.840 -29.086  0.00  0.00    +0.233 C 
ATOM     18  C   UNL     1      35.651  -4.691 -27.276  0.00  0.00    +0.284 C 
ATOM     19  C   UNL     1      34.340  -3.111 -30.000  0.00  0.00    +0.030 C 
ATOM     20  H   UNL     1      36.516  -6.005 -26.039  0.00  0.00    +0.157 HD
ENDBRANCH   4  15
BRANCH   1  22
ATOM     21 CL   UNL     1      33.526 -14.592 -22.075  0.00  0.00    -0.079 Cl
ATOM     22  C   UNL     1      33.829 -11.301 -24.319  0.00  0.00    +0.050 C 
ATOM     23  C   UNL     1      33.770 -12.171 -23.230  0.00  0.00    +0.029 C 
ATOM     24  C   UNL     1      33.713 -11.798 -25.616  0.00  0.00    +0.018 C 
ATOM     25  C   UNL     1      33.478 -14.037 -24.738  0.00  0.00    +0.150 C 
ATOM     26  C   UNL     1      33.594 -13.539 -23.439  0.00  0.00    +0.093 C 
ATOM     27  C   UNL     1      33.538 -13.166 -25.826  0.00  0.00    +0.039 C 
BRANCH  25  28
ATOM     28  O   UNL     1      33.307 -15.369 -24.972  0.00  0.00    -0.468 OA
BRANCH  28  29
ATOM     29  C   UNL     1      34.473 -16.123 -25.298  0.00  0.00    +0.257 C 
BRANCH  29  32
ATOM     30  S   UNL     1      33.893 -18.753 -24.627  0.00  0.00    -0.067 S 
ATOM     31  N   UNL     1      35.301 -17.140 -23.178  0.00  0.00    -0.237 NA
ATOM     32  C   UNL     1      34.629 -17.237 -24.304  0.00  0.00    +0.132 C 
ATOM     33  C   UNL     1      34.517 -19.344 -23.144  0.00  0.00    +0.057 C 
ATOM     34  C   UNL     1      35.236 -18.349 -22.514  0.00  0.00    +0.106 C 
ENDBRANCH  29  32
ENDBRANCH  28  29
ENDBRANCH  25  28
ENDBRANCH   1  22
TORSDOF 5
ENDMDL
MODEL 9
REMARK VINA RESULT:      -9.4      5.206      9.350
REMARK  Name = 42642648
REMARK  5 active torsions:
REMARK  status: ('A' for Active; 'I' for Inactive)
REMARK    1  A    between atoms: N_1  and  C_22
REMARK    2  A    between atoms: C_4  and  N_15
REMARK    3  A    between atoms: C_25  and  O_28
REMARK    4  A    between atoms: O_28  and  C_29
REMARK    5  A    between atoms: C_29  and  C_32
REMARK                            x       y       z     vdW  Elec       q    Type
REMARK                         _______ _______ _______ _____ _____    ______ ____
ROOT
ATOM      1  N   UNL     1      34.252 -14.912 -22.745  0.00  0.00    -0.301 N 
ATOM      2  N   UNL     1      33.718 -17.983 -25.469  0.00  0.00    -0.248 NA
ATOM      3  N   UNL     1      33.407 -15.689 -24.799  0.00  0.00    -0.233 NA
ATOM      4  C   UNL     1      35.787 -18.783 -21.940  0.00  0.00    +0.048 C 
ATOM      5  C   UNL     1      34.596 -17.231 -23.368  0.00  0.00    +0.117 C 
ATOM      6  C   UNL     1      35.295 -17.505 -22.179  0.00  0.00    +0.001 C 
ATOM      7  C   UNL     1      34.384 -18.234 -24.328  0.00  0.00    +0.067 C 
ATOM      8  C   UNL     1      34.078 -15.975 -23.667  0.00  0.00    +0.115 C 
ATOM      9  C   UNL     1      35.583 -19.784 -22.883  0.00  0.00    +0.016 C 
ATOM     10  C   UNL     1      34.887 -19.505 -24.062  0.00  0.00    +0.016 C 
ATOM     11  C   UNL     1      33.265 -16.725 -25.643  0.00  0.00    +0.251 C 
ATOM     12  H   UNL     1      35.075 -14.982 -22.211  0.00  0.00    +0.153 HD
ENDROOT
BRANCH   4  15
ATOM     13  O   UNL     1      37.163 -20.122 -18.841  0.00  0.00    -0.448 OA
ATOM     14  N   UNL     1      35.533 -21.150 -20.069  0.00  0.00    -0.222 NA
ATOM     15  N   UNL     1      36.488 -19.064 -20.750  0.00  0.00    -0.269 N 
ATOM     16  C   UNL     1      35.882 -22.038 -18.949  0.00  0.00    +0.151 C 
ATOM     17  C   UNL     1      36.680 -21.164 -18.005  0.00  0.00    +0.233 C 
ATOM     18  C   UNL     1      36.344 -20.144 -19.933  0.00  0.00    +0.284 C 
ATOM     19  C   UNL     1      34.627 -22.609 -18.318  0.00  0.00    +0.030 C 
ATOM     20  H   UNL     1      37.161 -18.400 -20.476  0.00  0.00    +0.157 HD
ENDBRANCH   4  15
BRANCH   1  22
ATOM     21 CL   UNL     1      32.768 -10.204 -24.082  0.00  0.00    -0.079 Cl
ATOM     22  C   UNL     1      33.477 -13.780 -22.448  0.00  0.00    +0.050 C 
ATOM     23  C   UNL     1      33.496 -12.678 -23.303  0.00  0.00    +0.029 C 
ATOM     24  C   UNL     1      32.689 -13.757 -21.299  0.00  0.00    +0.018 C 
ATOM     25  C   UNL     1      31.936 -11.531 -21.857  0.00  0.00    +0.150 C 
ATOM     26  C   UNL     1      32.725 -11.553 -23.008  0.00  0.00    +0.093 C 
ATOM     27  C   UNL     1      31.918 -12.633 -21.003  0.00  0.00    +0.039 C 
BRANCH  25  28
ATOM     28  O   UNL     1      31.173 -10.445 -21.544  0.00  0.00    -0.468 OA
BRANCH  28  29
ATOM     29  C   UNL     1      31.821  -9.379 -20.852  0.00  0.00    +0.257 C 
BRANCH  29  32
ATOM     30  S   UNL     1      33.354  -7.269 -21.800  0.00  0.00    -0.067 S 
ATOM     31  N   UNL     1      30.930  -7.777 -22.540  0.00  0.00    -0.237 NA
ATOM     32  C   UNL     1      31.903  -8.186 -21.758  0.00  0.00    +0.132 C 
ATOM     33  C   UNL     1      32.635  -6.232 -22.961  0.00  0.00    +0.057 C 
ATOM     34  C   UNL     1      31.350  -6.656 -23.230  0.00  0.00    +0.106 C 
ENDBRANCH  29  32
ENDBRANCH  28  29
ENDBRANCH  25  28
ENDBRANCH   1  22
TORSDOF 5
ENDMDL
