MODEL 1
REMARK VINA RESULT:     -12.0      0.000      0.000
REMARK  Name = 3488
REMARK  8 active torsions:
REMARK  status: ('A' for Active; 'I' for Inactive)
REMARK    1  A    between atoms: C_1  and  S_7
REMARK    2  A    between atoms: C_2  and  C_22
REMARK    3  A    between atoms: S_7  and  N_12
REMARK    4  A    between atoms: N_11  and  C_16
REMARK    5  A    between atoms: C_22  and  C_23
REMARK    6  A    between atoms: C_23  and  N_25
REMARK    7  A    between atoms: C_26  and  C_29
REMARK    8  A    between atoms: C_30  and  O_35
REMARK                            x       y       z     vdW  Elec       q    Type
REMARK                         _______ _______ _______ _____ _____    ______ ____
ROOT
ATOM      1  C   UNL     1      34.139 -21.602 -19.780  0.00  0.00    +0.125 C 
ATOM      2  C   UNL     1      35.313 -19.628 -21.327  0.00  0.00    -0.020 C 
ATOM      3  C   UNL     1      33.335 -20.774 -20.544  0.00  0.00    +0.020 C 
ATOM      4  C   UNL     1      35.516 -21.467 -19.772  0.00  0.00    +0.020 C 
ATOM      5  C   UNL     1      33.926 -19.779 -21.323  0.00  0.00    -0.003 C 
ATOM      6  C   UNL     1      36.109 -20.473 -20.552  0.00  0.00    -0.003 C 
ENDROOT
BRANCH   1   7
ATOM      7  S   UNL     1      33.390 -22.862 -18.793  0.00  0.00    +0.077 S 
ATOM      8  O   UNL     1      33.530 -24.125 -19.492  0.00  0.00    -0.150 OA
ATOM      9  O   UNL     1      32.079 -22.373 -18.412  0.00  0.00    -0.150 OA
BRANCH   7  12
ATOM     10  O   UNL     1      33.240 -24.359 -16.075  0.00  0.00    -0.251 OA
ATOM     11  N   UNL     1      35.195 -23.410 -15.290  0.00  0.00    -0.289 N 
ATOM     12  N   UNL     1      34.414 -22.857 -17.423  0.00  0.00    -0.169 N 
ATOM     13  C   UNL     1      34.202 -23.614 -16.228  0.00  0.00    +0.319 C 
ATOM     14  H   UNL     1      35.928 -22.790 -15.507  0.00  0.00    +0.151 HD
ATOM     15  H   UNL     1      35.216 -22.286 -17.462  0.00  0.00    +0.178 HD
BRANCH  11  16
ATOM     16  C   UNL     1      35.206 -24.068 -14.001  0.00  0.00    +0.073 C 
ATOM     17  C   UNL     1      36.005 -23.256 -12.976  0.00  0.00    +0.020 C 
ATOM     18  C   UNL     1      35.743 -25.497 -14.117  0.00  0.00    +0.020 C 
ATOM     19  C   UNL     1      37.510 -23.300 -13.239  0.00  0.00    +0.002 C 
ATOM     20  C   UNL     1      37.249 -25.538 -14.379  0.00  0.00    +0.002 C 
ATOM     21  C   UNL     1      38.023 -24.734 -13.339  0.00  0.00    +0.000 C 
ENDBRANCH  11  16
ENDBRANCH   7  12
ENDBRANCH   1   7
BRANCH   2  22
ATOM     22  C   UNL     1      35.945 -18.564 -22.159  0.00  0.00    +0.048 C 
BRANCH  22  23
ATOM     23  C   UNL     1      35.177 -18.259 -23.452  0.00  0.00    +0.094 C 
BRANCH  23  25
ATOM     24  O   UNL     1      33.502 -17.047 -25.443  0.00  0.00    -0.270 OA
ATOM     25  N   UNL     1      34.906 -16.856 -23.607  0.00  0.00    -0.300 N 
ATOM     26  C   UNL     1      34.078 -16.358 -24.605  0.00  0.00    +0.249 C 
ATOM     27  H   UNL     1      35.325 -16.221 -22.981  0.00  0.00    +0.150 HD
BRANCH  26  29
ATOM     28 CL   UNL     1      33.338 -12.126 -27.460  0.00  0.00    -0.082 Cl
ATOM     29  C   UNL     1      33.921 -14.881 -24.649  0.00  0.00    +0.088 C 
ATOM     30  C   UNL     1      33.971 -14.151 -23.479  0.00  0.00    +0.143 C 
ATOM     31  C   UNL     1      33.729 -14.285 -25.880  0.00  0.00    +0.019 C 
ATOM     32  C   UNL     1      33.822 -12.766 -23.541  0.00  0.00    +0.038 C 
ATOM     33  C   UNL     1      33.579 -12.899 -25.941  0.00  0.00    +0.058 C 
ATOM     34  C   UNL     1      33.627 -12.139 -24.772  0.00  0.00    +0.015 C 
BRANCH  30  35
ATOM     35  O   UNL     1      34.161 -14.743 -22.266  0.00  0.00    -0.471 OA
ATOM     36  C   UNL     1      33.560 -14.114 -21.138  0.00  0.00    +0.252 C 
ENDBRANCH  30  35
ENDBRANCH  26  29
ENDBRANCH  23  25
ENDBRANCH  22  23
ENDBRANCH   2  22
TORSDOF 8
ENDMDL
MODEL 2
REMARK VINA RESULT:     -11.5      1.154      2.175
REMARK  Name = 3488
REMARK  8 active torsions:
REMARK  status: ('A' for Active; 'I' for Inactive)
REMARK    1  A    between atoms: C_1  and  S_7
REMARK    2  A    between atoms: C_2  and  C_22
REMARK    3  A    between atoms: S_7  and  N_12
REMARK    4  A    between atoms: N_11  and  C_16
REMARK    5  A    between atoms: C_22  and  C_23
REMARK    6  A    between atoms: C_23  and  N_25
REMARK    7  A    between atoms: C_26  and  C_29
REMARK    8  A    between atoms: C_30  and  O_35
REMARK                            x       y       z     vdW  Elec       q    Type
REMARK                         _______ _______ _______ _____ _____    ______ ____
ROOT
ATOM      1  C   UNL     1      33.942 -22.100 -19.104  0.00  0.00    +0.125 C 
ATOM      2  C   UNL     1      35.114 -20.307 -20.858  0.00  0.00    -0.020 C 
ATOM      3  C   UNL     1      35.322 -22.020 -19.166  0.00  0.00    +0.020 C 
ATOM      4  C   UNL     1      33.133 -21.305 -19.898  0.00  0.00    +0.020 C 
ATOM      5  C   UNL     1      35.913 -21.116 -20.051  0.00  0.00    -0.003 C 
ATOM      6  C   UNL     1      33.724 -20.400 -20.781  0.00  0.00    -0.003 C 
ENDROOT
BRANCH   1   7
ATOM      7  S   UNL     1      33.193 -23.245 -17.985  0.00  0.00    +0.077 S 
ATOM      8  O   UNL     1      33.226 -24.560 -18.596  0.00  0.00    -0.150 OA
ATOM      9  O   UNL     1      31.935 -22.659 -17.565  0.00  0.00    -0.150 OA
BRANCH   7  12
ATOM     10  O   UNL     1      33.310 -24.800 -15.298  0.00  0.00    -0.251 OA
ATOM     11  N   UNL     1      35.248 -23.740 -14.614  0.00  0.00    -0.289 N 
ATOM     12  N   UNL     1      34.299 -23.199 -16.682  0.00  0.00    -0.169 N 
ATOM     13  C   UNL     1      34.212 -23.991 -15.493  0.00  0.00    +0.319 C 
ATOM     14  H   UNL     1      35.924 -23.070 -14.861  0.00  0.00    +0.151 HD
ATOM     15  H   UNL     1      35.059 -22.577 -16.757  0.00  0.00    +0.178 HD
BRANCH  11  16
ATOM     16  C   UNL     1      35.382 -24.420 -13.344  0.00  0.00    +0.073 C 
ATOM     17  C   UNL     1      35.743 -23.434 -12.227  0.00  0.00    +0.020 C 
ATOM     18  C   UNL     1      36.404 -25.558 -13.433  0.00  0.00    +0.020 C 
ATOM     19  C   UNL     1      37.180 -22.927 -12.338  0.00  0.00    +0.002 C 
ATOM     20  C   UNL     1      37.840 -25.046 -13.542  0.00  0.00    +0.002 C 
ATOM     21  C   UNL     1      38.180 -24.077 -12.414  0.00  0.00    +0.000 C 
ENDBRANCH  11  16
ENDBRANCH   7  12
ENDBRANCH   1   7
BRANCH   2  22
ATOM     22  C   UNL     1      35.745 -19.341 -21.804  0.00  0.00    +0.048 C 
BRANCH  22  23
ATOM     23  C   UNL     1      35.670 -17.883 -21.332  0.00  0.00    +0.094 C 
BRANCH  23  25
ATOM     24  O   UNL     1      34.415 -15.323 -21.001  0.00  0.00    -0.270 OA
ATOM     25  N   UNL     1      35.250 -16.992 -22.378  0.00  0.00    -0.300 N 
ATOM     26  C   UNL     1      34.648 -15.766 -22.123  0.00  0.00    +0.249 C 
ATOM     27  H   UNL     1      35.395 -17.260 -23.315  0.00  0.00    +0.150 HD
BRANCH  26  29
ATOM     28 CL   UNL     1      33.400 -11.163 -24.088  0.00  0.00    -0.082 Cl
ATOM     29  C   UNL     1      34.247 -14.973 -23.313  0.00  0.00    +0.088 C 
ATOM     30  C   UNL     1      34.093 -15.598 -24.534  0.00  0.00    +0.143 C 
ATOM     31  C   UNL     1      34.041 -13.617 -23.151  0.00  0.00    +0.019 C 
ATOM     32  C   UNL     1      33.716 -14.837 -25.640  0.00  0.00    +0.038 C 
ATOM     33  C   UNL     1      33.665 -12.856 -24.258  0.00  0.00    +0.058 C 
ATOM     34  C   UNL     1      33.502 -13.466 -25.502  0.00  0.00    +0.015 C 
BRANCH  30  35
ATOM     35  O   UNL     1      34.298 -16.937 -24.690  0.00  0.00    -0.471 OA
ATOM     36  C   UNL     1      33.210 -17.702 -25.204  0.00  0.00    +0.252 C 
ENDBRANCH  30  35
ENDBRANCH  26  29
ENDBRANCH  23  25
ENDBRANCH  22  23
ENDBRANCH   2  22
TORSDOF 8
ENDMDL
MODEL 3
REMARK VINA RESULT:     -10.9      2.913      3.901
REMARK  Name = 3488
REMARK  8 active torsions:
REMARK  status: ('A' for Active; 'I' for Inactive)
REMARK    1  A    between atoms: C_1  and  S_7
REMARK    2  A    between atoms: C_2  and  C_22
REMARK    3  A    between atoms: S_7  and  N_12
REMARK    4  A    between atoms: N_11  and  C_16
REMARK    5  A    between atoms: C_22  and  C_23
REMARK    6  A    between atoms: C_23  and  N_25
REMARK    7  A    between atoms: C_26  and  C_29
REMARK    8  A    between atoms: C_30  and  O_35
REMARK                            x       y       z     vdW  Elec       q    Type
REMARK                         _______ _______ _______ _____ _____    ______ ____
ROOT
ATOM      1  C   UNL     1      34.488 -21.723 -19.832  0.00  0.00    +0.125 C 
ATOM      2  C   UNL     1      35.262 -19.554 -21.370  0.00  0.00    -0.020 C 
ATOM      3  C   UNL     1      33.519 -20.953 -20.450  0.00  0.00    +0.020 C 
ATOM      4  C   UNL     1      35.836 -21.435 -19.964  0.00  0.00    +0.020 C 
ATOM      5  C   UNL     1      33.909 -19.859 -21.225  0.00  0.00    -0.003 C 
ATOM      6  C   UNL     1      36.226 -20.343 -20.740  0.00  0.00    -0.003 C 
ENDROOT
BRANCH   1   7
ATOM      7  S   UNL     1      33.994 -23.107 -18.850  0.00  0.00    +0.077 S 
ATOM      8  O   UNL     1      34.841 -23.151 -17.674  0.00  0.00    -0.150 OA
ATOM      9  O   UNL     1      33.914 -24.247 -19.742  0.00  0.00    -0.150 OA
BRANCH   7  12
ATOM     10  O   UNL     1      32.317 -23.655 -16.294  0.00  0.00    -0.251 OA
ATOM     11  N   UNL     1      30.497 -22.457 -17.067  0.00  0.00    -0.289 N 
ATOM     12  N   UNL     1      32.415 -22.637 -18.393  0.00  0.00    -0.169 N 
ATOM     13  C   UNL     1      31.773 -22.977 -17.160  0.00  0.00    +0.319 C 
ATOM     14  H   UNL     1      30.149 -21.925 -17.818  0.00  0.00    +0.151 HD
ATOM     15  H   UNL     1      31.906 -22.086 -19.031  0.00  0.00    +0.178 HD
BRANCH  11  16
ATOM     16  C   UNL     1      29.649 -22.660 -15.912  0.00  0.00    +0.073 C 
ATOM     17  C   UNL     1      29.903 -24.031 -15.276  0.00  0.00    +0.020 C 
ATOM     18  C   UNL     1      28.172 -22.482 -16.276  0.00  0.00    +0.020 C 
ATOM     19  C   UNL     1      29.364 -25.179 -16.128  0.00  0.00    +0.002 C 
ATOM     20  C   UNL     1      27.635 -23.633 -17.126  0.00  0.00    +0.002 C 
ATOM     21  C   UNL     1      27.889 -24.985 -16.468  0.00  0.00    +0.000 C 
ENDBRANCH  11  16
ENDBRANCH   7  12
ENDBRANCH   1   7
BRANCH   2  22
ATOM     22  C   UNL     1      35.680 -18.386 -22.197  0.00  0.00    +0.048 C 
BRANCH  22  23
ATOM     23  C   UNL     1      34.746 -18.109 -23.382  0.00  0.00    +0.094 C 
BRANCH  23  25
ATOM     24  O   UNL     1      33.574 -16.859 -25.685  0.00  0.00    -0.270 OA
ATOM     25  N   UNL     1      34.493 -16.705 -23.561  0.00  0.00    -0.300 N 
ATOM     26  C   UNL     1      33.919 -16.187 -24.716  0.00  0.00    +0.249 C 
ATOM     27  H   UNL     1      34.736 -16.084 -22.836  0.00  0.00    +0.150 HD
BRANCH  26  29
ATOM     28 CL   UNL     1      33.624 -11.901 -27.570  0.00  0.00    -0.082 Cl
ATOM     29  C   UNL     1      33.748 -14.712 -24.756  0.00  0.00    +0.088 C 
ATOM     30  C   UNL     1      33.579 -14.008 -23.582  0.00  0.00    +0.143 C 
ATOM     31  C   UNL     1      33.765 -14.091 -25.990  0.00  0.00    +0.019 C 
ATOM     32  C   UNL     1      33.420 -12.624 -23.641  0.00  0.00    +0.038 C 
ATOM     33  C   UNL     1      33.606 -12.706 -26.048  0.00  0.00    +0.058 C 
ATOM     34  C   UNL     1      33.434 -11.972 -24.874  0.00  0.00    +0.015 C 
BRANCH  30  35
ATOM     35  O   UNL     1      33.562 -14.626 -22.366  0.00  0.00    -0.471 OA
ATOM     36  C   UNL     1      33.681 -13.792 -21.216  0.00  0.00    +0.252 C 
ENDBRANCH  30  35
ENDBRANCH  26  29
ENDBRANCH  23  25
ENDBRANCH  22  23
ENDBRANCH   2  22
TORSDOF 8
ENDMDL
MODEL 4
REMARK VINA RESULT:     -10.8      1.569      2.124
REMARK  Name = 3488
REMARK  8 active torsions:
REMARK  status: ('A' for Active; 'I' for Inactive)
REMARK    1  A    between atoms: C_1  and  S_7
REMARK    2  A    between atoms: C_2  and  C_22
REMARK    3  A    between atoms: S_7  and  N_12
REMARK    4  A    between atoms: N_11  and  C_16
REMARK    5  A    between atoms: C_22  and  C_23
REMARK    6  A    between atoms: C_23  and  N_25
REMARK    7  A    between atoms: C_26  and  C_29
REMARK    8  A    between atoms: C_30  and  O_35
REMARK                            x       y       z     vdW  Elec       q    Type
REMARK                         _______ _______ _______ _____ _____    ______ ____
ROOT
ATOM      1  C   UNL     1      34.292 -21.295 -20.111  0.00  0.00    +0.125 C 
ATOM      2  C   UNL     1      35.405 -19.264 -21.627  0.00  0.00    -0.020 C 
ATOM      3  C   UNL     1      33.461 -20.471 -20.849  0.00  0.00    +0.020 C 
ATOM      4  C   UNL     1      35.666 -21.130 -20.112  0.00  0.00    +0.020 C 
ATOM      5  C   UNL     1      34.022 -19.447 -21.613  0.00  0.00    -0.003 C 
ATOM      6  C   UNL     1      36.228 -20.106 -20.877  0.00  0.00    -0.003 C 
ENDROOT
BRANCH   1   7
ATOM      7  S   UNL     1      33.581 -22.593 -19.143  0.00  0.00    +0.077 S 
ATOM      8  O   UNL     1      33.737 -23.837 -19.872  0.00  0.00    -0.150 OA
ATOM      9  O   UNL     1      32.267 -22.139 -18.734  0.00  0.00    -0.150 OA
BRANCH   7  12
ATOM     10  O   UNL     1      33.326 -23.877 -16.326  0.00  0.00    -0.251 OA
ATOM     11  N   UNL     1      35.380 -23.079 -15.627  0.00  0.00    -0.289 N 
ATOM     12  N   UNL     1      34.623 -22.598 -17.787  0.00  0.00    -0.169 N 
ATOM     13  C   UNL     1      34.356 -23.245 -16.539  0.00  0.00    +0.319 C 
ATOM     14  H   UNL     1      36.168 -22.553 -15.894  0.00  0.00    +0.151 HD
ATOM     15  H   UNL     1      35.478 -22.115 -17.873  0.00  0.00    +0.178 HD
BRANCH  11  16
ATOM     16  C   UNL     1      35.346 -23.645 -14.296  0.00  0.00    +0.073 C 
ATOM     17  C   UNL     1      36.643 -23.343 -13.537  0.00  0.00    +0.020 C 
ATOM     18  C   UNL     1      35.067 -25.150 -14.344  0.00  0.00    +0.020 C 
ATOM     19  C   UNL     1      37.831 -24.145 -14.068  0.00  0.00    +0.002 C 
ATOM     20  C   UNL     1      36.258 -25.949 -14.873  0.00  0.00    +0.002 C 
ATOM     21  C   UNL     1      37.533 -25.642 -14.095  0.00  0.00    +0.000 C 
ENDBRANCH  11  16
ENDBRANCH   7  12
ENDBRANCH   1   7
BRANCH   2  22
ATOM     22  C   UNL     1      36.005 -18.169 -22.443  0.00  0.00    +0.048 C 
BRANCH  22  23
ATOM     23  C   UNL     1      35.102 -17.692 -23.587  0.00  0.00    +0.094 C 
BRANCH  23  25
ATOM     24  O   UNL     1      33.831 -15.997 -25.524  0.00  0.00    -0.270 OA
ATOM     25  N   UNL     1      34.594 -16.366 -23.365  0.00  0.00    -0.300 N 
ATOM     26  C   UNL     1      33.991 -15.616 -24.367  0.00  0.00    +0.249 C 
ATOM     27  H   UNL     1      34.677 -15.971 -22.466  0.00  0.00    +0.150 HD
BRANCH  26  29
ATOM     28 CL   UNL     1      32.027 -12.521 -20.738  0.00  0.00    -0.082 Cl
ATOM     29  C   UNL     1      33.543 -14.252 -23.984  0.00  0.00    +0.088 C 
ATOM     30  C   UNL     1      33.620 -13.222 -24.900  0.00  0.00    +0.143 C 
ATOM     31  C   UNL     1      33.060 -14.063 -22.704  0.00  0.00    +0.019 C 
ATOM     32  C   UNL     1      33.194 -11.949 -24.521  0.00  0.00    +0.038 C 
ATOM     33  C   UNL     1      32.635 -12.789 -22.326  0.00  0.00    +0.058 C 
ATOM     34  C   UNL     1      32.702 -11.732 -23.234  0.00  0.00    +0.015 C 
BRANCH  30  35
ATOM     35  O   UNL     1      34.098 -13.413 -26.162  0.00  0.00    -0.471 OA
ATOM     36  C   UNL     1      33.798 -12.406 -27.126  0.00  0.00    +0.252 C 
ENDBRANCH  30  35
ENDBRANCH  26  29
ENDBRANCH  23  25
ENDBRANCH  22  23
ENDBRANCH   2  22
TORSDOF 8
ENDMDL
MODEL 5
REMARK VINA RESULT:     -10.5      6.173      9.661
REMARK  Name = 3488
REMARK  8 active torsions:
REMARK  status: ('A' for Active; 'I' for Inactive)
REMARK    1  A    between atoms: C_1  and  S_7
REMARK    2  A    between atoms: C_2  and  C_22
REMARK    3  A    between atoms: S_7  and  N_12
REMARK    4  A    between atoms: N_11  and  C_16
REMARK    5  A    between atoms: C_22  and  C_23
REMARK    6  A    between atoms: C_23  and  N_25
REMARK    7  A    between atoms: C_26  and  C_29
REMARK    8  A    between atoms: C_30  and  O_35
REMARK                            x       y       z     vdW  Elec       q    Type
REMARK                         _______ _______ _______ _____ _____    ______ ____
ROOT
ATOM      1  C   UNL     1      32.728 -12.749 -23.253  0.00  0.00    +0.125 C 
ATOM      2  C   UNL     1      31.513 -11.227 -21.285  0.00  0.00    -0.020 C 
ATOM      3  C   UNL     1      32.523 -11.399 -23.474  0.00  0.00    +0.020 C 
ATOM      4  C   UNL     1      32.341 -13.358 -22.072  0.00  0.00    +0.020 C 
ATOM      5  C   UNL     1      31.910 -10.631 -22.482  0.00  0.00    -0.003 C 
ATOM      6  C   UNL     1      31.729 -12.591 -21.079  0.00  0.00    -0.003 C 
ENDROOT
BRANCH   1   7
ATOM      7  S   UNL     1      33.504 -13.721 -24.510  0.00  0.00    +0.077 S 
ATOM      8  O   UNL     1      34.577 -12.936 -25.088  0.00  0.00    -0.150 OA
ATOM      9  O   UNL     1      32.444 -14.248 -25.347  0.00  0.00    -0.150 OA
BRANCH   7  12
ATOM     10  O   UNL     1      34.688 -16.482 -25.297  0.00  0.00    -0.251 OA
ATOM     11  N   UNL     1      35.156 -17.058 -23.108  0.00  0.00    -0.289 N 
ATOM     12  N   UNL     1      34.170 -14.990 -23.578  0.00  0.00    -0.169 N 
ATOM     13  C   UNL     1      34.680 -16.221 -24.099  0.00  0.00    +0.319 C 
ATOM     14  H   UNL     1      35.105 -16.757 -22.172  0.00  0.00    +0.151 HD
ATOM     15  H   UNL     1      34.206 -14.861 -22.602  0.00  0.00    +0.178 HD
BRANCH  11  16
ATOM     16  C   UNL     1      35.726 -18.358 -23.385  0.00  0.00    +0.073 C 
ATOM     17  C   UNL     1      34.667 -19.460 -23.270  0.00  0.00    +0.020 C 
ATOM     18  C   UNL     1      36.923 -18.641 -22.471  0.00  0.00    +0.020 C 
ATOM     19  C   UNL     1      34.252 -19.724 -21.823  0.00  0.00    +0.002 C 
ATOM     20  C   UNL     1      36.505 -18.907 -21.025  0.00  0.00    +0.002 C 
ATOM     21  C   UNL     1      35.459 -20.014 -20.935  0.00  0.00    +0.000 C 
ENDBRANCH  11  16
ENDBRANCH   7  12
ENDBRANCH   1   7
BRANCH   2  22
ATOM     22  C   UNL     1      30.858 -10.408 -20.225  0.00  0.00    +0.048 C 
BRANCH  22  23
ATOM     23  C   UNL     1      31.606  -9.108 -19.905  0.00  0.00    +0.094 C 
BRANCH  23  25
ATOM     24  O   UNL     1      33.484  -6.947 -20.108  0.00  0.00    -0.270 OA
ATOM     25  N   UNL     1      31.926  -8.356 -21.088  0.00  0.00    -0.300 N 
ATOM     26  C   UNL     1      32.853  -7.322 -21.092  0.00  0.00    +0.249 C 
ATOM     27  H   UNL     1      31.468  -8.583 -21.931  0.00  0.00    +0.150 HD
BRANCH  26  29
ATOM     28 CL   UNL     1      31.803  -3.237 -24.063  0.00  0.00    -0.082 Cl
ATOM     29  C   UNL     1      33.050  -6.625 -22.390  0.00  0.00    +0.088 C 
ATOM     30  C   UNL     1      33.853  -7.193 -23.358  0.00  0.00    +0.143 C 
ATOM     31  C   UNL     1      32.412  -5.416 -22.581  0.00  0.00    +0.019 C 
ATOM     32  C   UNL     1      34.026  -6.524 -24.570  0.00  0.00    +0.038 C 
ATOM     33  C   UNL     1      32.586  -4.747 -23.793  0.00  0.00    +0.058 C 
ATOM     34  C   UNL     1      33.392  -5.301 -24.787  0.00  0.00    +0.015 C 
BRANCH  30  35
ATOM     35  O   UNL     1      34.482  -8.387 -23.165  0.00  0.00    -0.471 OA
ATOM     36  C   UNL     1      35.144  -8.959 -24.291  0.00  0.00    +0.252 C 
ENDBRANCH  30  35
ENDBRANCH  26  29
ENDBRANCH  23  25
ENDBRANCH  22  23
ENDBRANCH   2  22
TORSDOF 8
ENDMDL
MODEL 6
REMARK VINA RESULT:     -10.4      2.993      4.772
REMARK  Name = 3488
REMARK  8 active torsions:
REMARK  status: ('A' for Active; 'I' for Inactive)
REMARK    1  A    between atoms: C_1  and  S_7
REMARK    2  A    between atoms: C_2  and  C_22
REMARK    3  A    between atoms: S_7  and  N_12
REMARK    4  A    between atoms: N_11  and  C_16
REMARK    5  A    between atoms: C_22  and  C_23
REMARK    6  A    between atoms: C_23  and  N_25
REMARK    7  A    between atoms: C_26  and  C_29
REMARK    8  A    between atoms: C_30  and  O_35
REMARK                            x       y       z     vdW  Elec       q    Type
REMARK                         _______ _______ _______ _____ _____    ______ ____
ROOT
ATOM      1  C   UNL     1      35.209 -22.683 -17.415  0.00  0.00    +0.125 C 
ATOM      2  C   UNL     1      35.282 -21.340 -19.835  0.00  0.00    -0.020 C 
ATOM      3  C   UNL     1      36.362 -22.011 -17.779  0.00  0.00    +0.020 C 
ATOM      4  C   UNL     1      34.091 -22.701 -18.231  0.00  0.00    +0.020 C 
ATOM      5  C   UNL     1      36.399 -21.334 -18.999  0.00  0.00    -0.003 C 
ATOM      6  C   UNL     1      34.127 -22.023 -19.451  0.00  0.00    -0.003 C 
ENDROOT
BRANCH   1   7
ATOM      7  S   UNL     1      35.161 -23.541 -15.870  0.00  0.00    +0.077 S 
ATOM      8  O   UNL     1      35.260 -22.560 -14.806  0.00  0.00    -0.150 OA
ATOM      9  O   UNL     1      36.120 -24.624 -15.962  0.00  0.00    -0.150 OA
BRANCH   7  12
ATOM     10  O   UNL     1      32.546 -22.705 -14.417  0.00  0.00    -0.251 OA
ATOM     11  N   UNL     1      31.307 -24.400 -15.384  0.00  0.00    -0.289 N 
ATOM     12  N   UNL     1      33.578 -24.184 -15.901  0.00  0.00    -0.169 N 
ATOM     13  C   UNL     1      32.463 -23.678 -15.160  0.00  0.00    +0.319 C 
ATOM     14  H   UNL     1      31.342 -25.167 -16.000  0.00  0.00    +0.151 HD
ATOM     15  H   UNL     1      33.420 -24.968 -16.477  0.00  0.00    +0.178 HD
BRANCH  11  16
ATOM     16  C   UNL     1      30.045 -24.079 -14.752  0.00  0.00    +0.073 C 
ATOM     17  C   UNL     1      29.012 -25.186 -14.993  0.00  0.00    +0.020 C 
ATOM     18  C   UNL     1      29.523 -22.719 -15.225  0.00  0.00    +0.020 C 
ATOM     19  C   UNL     1      28.515 -25.216 -16.438  0.00  0.00    +0.002 C 
ATOM     20  C   UNL     1      29.024 -22.753 -16.669  0.00  0.00    +0.002 C 
ATOM     21  C   UNL     1      27.989 -23.854 -16.882  0.00  0.00    +0.000 C 
ENDBRANCH  11  16
ENDBRANCH   7  12
ENDBRANCH   1   7
BRANCH   2  22
ATOM     22  C   UNL     1      35.322 -20.618 -21.139  0.00  0.00    +0.048 C 
BRANCH  22  23
ATOM     23  C   UNL     1      36.078 -19.284 -21.078  0.00  0.00    +0.094 C 
BRANCH  23  25
ATOM     24  O   UNL     1      34.865 -16.715 -20.674  0.00  0.00    -0.270 OA
ATOM     25  N   UNL     1      35.650 -18.367 -22.099  0.00  0.00    -0.300 N 
ATOM     26  C   UNL     1      35.070 -17.139 -21.809  0.00  0.00    +0.249 C 
ATOM     27  H   UNL     1      35.772 -18.619 -23.044  0.00  0.00    +0.150 HD
BRANCH  26  29
ATOM     28 CL   UNL     1      33.875 -12.478 -23.668  0.00  0.00    -0.082 Cl
ATOM     29  C   UNL     1      34.657 -16.318 -22.976  0.00  0.00    +0.088 C 
ATOM     30  C   UNL     1      34.458 -16.919 -24.202  0.00  0.00    +0.143 C 
ATOM     31  C   UNL     1      34.485 -14.961 -22.787  0.00  0.00    +0.019 C 
ATOM     32  C   UNL     1      34.071 -16.132 -25.286  0.00  0.00    +0.038 C 
ATOM     33  C   UNL     1      34.098 -14.173 -23.871  0.00  0.00    +0.058 C 
ATOM     34  C   UNL     1      33.890 -14.758 -25.120  0.00  0.00    +0.015 C 
BRANCH  30  35
ATOM     35  O   UNL     1      34.630 -18.259 -24.384  0.00  0.00    -0.471 OA
ATOM     36  C   UNL     1      33.494 -19.003 -24.821  0.00  0.00    +0.252 C 
ENDBRANCH  30  35
ENDBRANCH  26  29
ENDBRANCH  23  25
ENDBRANCH  22  23
ENDBRANCH   2  22
TORSDOF 8
ENDMDL
MODEL 7
REMARK VINA RESULT:     -10.4      3.478      5.730
REMARK  Name = 3488
REMARK  8 active torsions:
REMARK  status: ('A' for Active; 'I' for Inactive)
REMARK    1  A    between atoms: C_1  and  S_7
REMARK    2  A    between atoms: C_2  and  C_22
REMARK    3  A    between atoms: S_7  and  N_12
REMARK    4  A    between atoms: N_11  and  C_16
REMARK    5  A    between atoms: C_22  and  C_23
REMARK    6  A    between atoms: C_23  and  N_25
REMARK    7  A    between atoms: C_26  and  C_29
REMARK    8  A    between atoms: C_30  and  O_35
REMARK                            x       y       z     vdW  Elec       q    Type
REMARK                         _______ _______ _______ _____ _____    ______ ____
ROOT
ATOM      1  C   UNL     1      35.886 -23.643 -15.353  0.00  0.00    +0.125 C 
ATOM      2  C   UNL     1      36.533 -22.017 -17.499  0.00  0.00    -0.020 C 
ATOM      3  C   UNL     1      37.192 -23.212 -15.505  0.00  0.00    +0.020 C 
ATOM      4  C   UNL     1      34.895 -23.280 -16.249  0.00  0.00    +0.020 C 
ATOM      5  C   UNL     1      37.518 -22.393 -16.586  0.00  0.00    -0.003 C 
ATOM      6  C   UNL     1      35.220 -22.460 -17.330  0.00  0.00    -0.003 C 
ENDROOT
BRANCH   1   7
ATOM      7  S   UNL     1      35.472 -24.681 -13.983  0.00  0.00    +0.077 S 
ATOM      8  O   UNL     1      35.450 -23.861 -12.787  0.00  0.00    -0.150 OA
ATOM      9  O   UNL     1      36.335 -25.843 -14.062  0.00  0.00    -0.150 OA
BRANCH   7  12
ATOM     10  O   UNL     1      32.708 -23.549 -13.131  0.00  0.00    -0.251 OA
ATOM     11  N   UNL     1      31.536 -25.086 -14.399  0.00  0.00    -0.289 N 
ATOM     12  N   UNL     1      33.874 -25.135 -14.387  0.00  0.00    -0.169 N 
ATOM     13  C   UNL     1      32.686 -24.504 -13.901  0.00  0.00    +0.319 C 
ATOM     14  H   UNL     1      31.623 -25.850 -15.013  0.00  0.00    +0.151 HD
ATOM     15  H   UNL     1      33.764 -25.893 -15.006  0.00  0.00    +0.178 HD
BRANCH  11  16
ATOM     16  C   UNL     1      30.209 -24.621 -14.058  0.00  0.00    +0.073 C 
ATOM     17  C   UNL     1      29.135 -25.530 -14.666  0.00  0.00    +0.020 C 
ATOM     18  C   UNL     1      30.009 -23.164 -14.483  0.00  0.00    +0.020 C 
ATOM     19  C   UNL     1      29.023 -25.370 -16.181  0.00  0.00    +0.002 C 
ATOM     20  C   UNL     1      29.896 -23.007 -16.000  0.00  0.00    +0.002 C 
ATOM     21  C   UNL     1      28.813 -23.912 -16.580  0.00  0.00    +0.000 C 
ENDBRANCH  11  16
ENDBRANCH   7  12
ENDBRANCH   1   7
BRANCH   2  22
ATOM     22  C   UNL     1      36.881 -21.142 -18.656  0.00  0.00    +0.048 C 
BRANCH  22  23
ATOM     23  C   UNL     1      35.929 -21.295 -19.849  0.00  0.00    +0.094 C 
BRANCH  23  25
ATOM     24  O   UNL     1      33.557 -20.124 -20.963  0.00  0.00    -0.270 OA
ATOM     25  N   UNL     1      35.854 -20.101 -20.645  0.00  0.00    -0.300 N 
ATOM     26  C   UNL     1      34.656 -19.605 -21.144  0.00  0.00    +0.249 C 
ATOM     27  H   UNL     1      36.687 -19.613 -20.845  0.00  0.00    +0.150 HD
BRANCH  26  29
ATOM     28 CL   UNL     1      34.566 -14.452 -21.337  0.00  0.00    -0.082 Cl
ATOM     29  C   UNL     1      34.751 -18.375 -21.972  0.00  0.00    +0.088 C 
ATOM     30  C   UNL     1      34.956 -18.478 -23.332  0.00  0.00    +0.143 C 
ATOM     31  C   UNL     1      34.628 -17.155 -21.338  0.00  0.00    +0.019 C 
ATOM     32  C   UNL     1      35.042 -17.312 -24.093  0.00  0.00    +0.038 C 
ATOM     33  C   UNL     1      34.715 -15.989 -22.098  0.00  0.00    +0.058 C 
ATOM     34  C   UNL     1      34.921 -16.067 -23.475  0.00  0.00    +0.015 C 
BRANCH  30  35
ATOM     35  O   UNL     1      35.077 -19.685 -23.955  0.00  0.00    -0.471 OA
ATOM     36  C   UNL     1      34.276 -19.897 -25.116  0.00  0.00    +0.252 C 
ENDBRANCH  30  35
ENDBRANCH  26  29
ENDBRANCH  23  25
ENDBRANCH  22  23
ENDBRANCH   2  22
TORSDOF 8
ENDMDL
MODEL 8
REMARK VINA RESULT:     -10.3      4.105     11.697
REMARK  Name = 3488
REMARK  8 active torsions:
REMARK  status: ('A' for Active; 'I' for Inactive)
REMARK    1  A    between atoms: C_1  and  S_7
REMARK    2  A    between atoms: C_2  and  C_22
REMARK    3  A    between atoms: S_7  and  N_12
REMARK    4  A    between atoms: N_11  and  C_16
REMARK    5  A    between atoms: C_22  and  C_23
REMARK    6  A    between atoms: C_23  and  N_25
REMARK    7  A    between atoms: C_26  and  C_29
REMARK    8  A    between atoms: C_30  and  O_35
REMARK                            x       y       z     vdW  Elec       q    Type
REMARK                         _______ _______ _______ _____ _____    ______ ____
ROOT
ATOM      1  C   UNL     1      34.802 -20.387 -20.893  0.00  0.00    +0.125 C 
ATOM      2  C   UNL     1      33.870 -22.273 -19.093  0.00  0.00    -0.020 C 
ATOM      3  C   UNL     1      35.711 -21.176 -20.210  0.00  0.00    +0.020 C 
ATOM      4  C   UNL     1      33.438 -20.517 -20.698  0.00  0.00    +0.020 C 
ATOM      5  C   UNL     1      35.241 -22.127 -19.303  0.00  0.00    -0.003 C 
ATOM      6  C   UNL     1      32.968 -21.469 -19.791  0.00  0.00    -0.003 C 
ENDROOT
BRANCH   1   7
ATOM      7  S   UNL     1      35.397 -19.182 -22.042  0.00  0.00    +0.077 S 
ATOM      8  O   UNL     1      34.787 -19.448 -23.330  0.00  0.00    -0.150 OA
ATOM      9  O   UNL     1      36.839 -19.147 -21.904  0.00  0.00    -0.150 OA
BRANCH   7  12
ATOM     10  O   UNL     1      35.691 -16.195 -22.844  0.00  0.00    -0.251 OA
ATOM     11  N   UNL     1      34.300 -15.463 -21.148  0.00  0.00    -0.289 N 
ATOM     12  N   UNL     1      34.733 -17.749 -21.386  0.00  0.00    -0.169 N 
ATOM     13  C   UNL     1      34.970 -16.426 -21.877  0.00  0.00    +0.319 C 
ATOM     14  H   UNL     1      33.745 -15.749 -20.388  0.00  0.00    +0.151 HD
ATOM     15  H   UNL     1      34.138 -17.843 -20.607  0.00  0.00    +0.178 HD
BRANCH  11  16
ATOM     16  C   UNL     1      34.378 -14.051 -21.454  0.00  0.00    +0.073 C 
ATOM     17  C   UNL     1      33.310 -13.263 -20.686  0.00  0.00    +0.020 C 
ATOM     18  C   UNL     1      34.272 -13.807 -22.962  0.00  0.00    +0.020 C 
ATOM     19  C   UNL     1      31.902 -13.510 -21.225  0.00  0.00    +0.002 C 
ATOM     20  C   UNL     1      32.861 -14.053 -23.497  0.00  0.00    +0.002 C 
ATOM     21  C   UNL     1      31.818 -13.249 -22.726  0.00  0.00    +0.000 C 
ENDBRANCH  11  16
ENDBRANCH   7  12
ENDBRANCH   1   7
BRANCH   2  22
ATOM     22  C   UNL     1      33.367 -23.288 -18.123  0.00  0.00    +0.048 C 
BRANCH  22  23
ATOM     23  C   UNL     1      33.496 -22.853 -16.658  0.00  0.00    +0.094 C 
BRANCH  23  25
ATOM     24  O   UNL     1      36.162 -22.119 -15.891  0.00  0.00    -0.270 OA
ATOM     25  N   UNL     1      34.432 -23.663 -15.927  0.00  0.00    -0.300 N 
ATOM     26  C   UNL     1      35.708 -23.222 -15.599  0.00  0.00    +0.249 C 
ATOM     27  H   UNL     1      34.159 -24.567 -15.648  0.00  0.00    +0.150 HD
BRANCH  26  29
ATOM     28 CL   UNL     1      40.229 -25.687 -15.282  0.00  0.00    -0.082 Cl
ATOM     29  C   UNL     1      36.566 -24.189 -14.866  0.00  0.00    +0.088 C 
ATOM     30  C   UNL     1      36.089 -24.801 -13.725  0.00  0.00    +0.143 C 
ATOM     31  C   UNL     1      37.829 -24.444 -15.363  0.00  0.00    +0.019 C 
ATOM     32  C   UNL     1      36.908 -25.705 -13.050  0.00  0.00    +0.038 C 
ATOM     33  C   UNL     1      38.649 -25.348 -14.687  0.00  0.00    +0.058 C 
ATOM     34  C   UNL     1      38.188 -25.979 -13.532  0.00  0.00    +0.015 C 
BRANCH  30  35
ATOM     35  O   UNL     1      34.841 -24.546 -13.238  0.00  0.00    -0.471 OA
ATOM     36  C   UNL     1      34.756 -24.043 -11.906  0.00  0.00    +0.252 C 
ENDBRANCH  30  35
ENDBRANCH  26  29
ENDBRANCH  23  25
ENDBRANCH  22  23
ENDBRANCH   2  22
TORSDOF 8
ENDMDL
MODEL 9
REMARK VINA RESULT:     -10.1      3.106      4.729
REMARK  Name = 3488
REMARK  8 active torsions:
REMARK  status: ('A' for Active; 'I' for Inactive)
REMARK    1  A    between atoms: C_1  and  S_7
REMARK    2  A    between atoms: C_2  and  C_22
REMARK    3  A    between atoms: S_7  and  N_12
REMARK    4  A    between atoms: N_11  and  C_16
REMARK    5  A    between atoms: C_22  and  C_23
REMARK    6  A    between atoms: C_23  and  N_25
REMARK    7  A    between atoms: C_26  and  C_29
REMARK    8  A    between atoms: C_30  and  O_35
REMARK                            x       y       z     vdW  Elec       q    Type
REMARK                         _______ _______ _______ _____ _____    ______ ____
ROOT
ATOM      1  C   UNL     1      32.262 -23.688 -15.698  0.00  0.00    +0.125 C 
ATOM      2  C   UNL     1      32.674 -22.641 -18.228  0.00  0.00    -0.020 C 
ATOM      3  C   UNL     1      33.539 -23.691 -16.230  0.00  0.00    +0.020 C 
ATOM      4  C   UNL     1      31.185 -23.173 -16.400  0.00  0.00    +0.020 C 
ATOM      5  C   UNL     1      33.747 -23.164 -17.506  0.00  0.00    -0.003 C 
ATOM      6  C   UNL     1      31.393 -22.645 -17.674  0.00  0.00    -0.003 C 
ENDROOT
BRANCH   1   7
ATOM      7  S   UNL     1      31.998 -24.356 -14.083  0.00  0.00    +0.077 S 
ATOM      8  O   UNL     1      30.943 -25.348 -14.172  0.00  0.00    -0.150 OA
ATOM      9  O   UNL     1      31.875 -23.231 -13.178  0.00  0.00    -0.150 OA
BRANCH   7  12
ATOM     10  O   UNL     1      34.727 -23.325 -13.016  0.00  0.00    -0.251 OA
ATOM     11  N   UNL     1      35.730 -25.401 -13.184  0.00  0.00    -0.289 N 
ATOM     12  N   UNL     1      33.491 -25.142 -13.806  0.00  0.00    -0.169 N 
ATOM     13  C   UNL     1      34.676 -24.517 -13.305  0.00  0.00    +0.319 C 
ATOM     14  H   UNL     1      35.590 -26.340 -13.442  0.00  0.00    +0.151 HD
ATOM     15  H   UNL     1      33.538 -26.105 -14.009  0.00  0.00    +0.178 HD
BRANCH  11  16
ATOM     16  C   UNL     1      37.033 -25.008 -12.693  0.00  0.00    +0.073 C 
ATOM     17  C   UNL     1      37.524 -23.735 -13.393  0.00  0.00    +0.020 C 
ATOM     18  C   UNL     1      38.045 -26.148 -12.841  0.00  0.00    +0.020 C 
ATOM     19  C   UNL     1      37.921 -23.985 -14.847  0.00  0.00    +0.002 C 
ATOM     20  C   UNL     1      38.442 -26.394 -14.296  0.00  0.00    +0.002 C 
ATOM     21  C   UNL     1      38.938 -25.117 -14.968  0.00  0.00    +0.000 C 
ENDBRANCH  11  16
ENDBRANCH   7  12
ENDBRANCH   1   7
BRANCH   2  22
ATOM     22  C   UNL     1      32.896 -22.078 -19.591  0.00  0.00    +0.048 C 
BRANCH  22  23
ATOM     23  C   UNL     1      34.249 -21.372 -19.750  0.00  0.00    +0.094 C 
BRANCH  23  25
ATOM     24  O   UNL     1      36.431 -19.699 -20.573  0.00  0.00    -0.270 OA
ATOM     25  N   UNL     1      34.188 -20.278 -20.680  0.00  0.00    -0.300 N 
ATOM     26  C   UNL     1      35.301 -19.519 -21.021  0.00  0.00    +0.249 C 
ATOM     27  H   UNL     1      33.321 -20.055 -21.093  0.00  0.00    +0.150 HD
BRANCH  26  29
ATOM     28 CL   UNL     1      34.629 -14.457 -21.748  0.00  0.00    -0.082 Cl
ATOM     29  C   UNL     1      35.067 -18.406 -21.976  0.00  0.00    +0.088 C 
ATOM     30  C   UNL     1      34.951 -18.672 -23.325  0.00  0.00    +0.143 C 
ATOM     31  C   UNL     1      34.972 -17.125 -21.468  0.00  0.00    +0.019 C 
ATOM     32  C   UNL     1      34.732 -17.613 -24.205  0.00  0.00    +0.038 C 
ATOM     33  C   UNL     1      34.753 -16.066 -22.350  0.00  0.00    +0.058 C 
ATOM     34  C   UNL     1      34.632 -16.309 -23.718  0.00  0.00    +0.015 C 
BRANCH  30  35
ATOM     35  O   UNL     1      35.046 -19.938 -23.821  0.00  0.00    -0.471 OA
ATOM     36  C   UNL     1      34.577 -20.147 -25.151  0.00  0.00    +0.252 C 
ENDBRANCH  30  35
ENDBRANCH  26  29
ENDBRANCH  23  25
ENDBRANCH  22  23
ENDBRANCH   2  22
TORSDOF 8
ENDMDL
