MODEL 1
REMARK VINA RESULT:     -11.4      0.000      0.000
REMARK  Name = 25195365
REMARK  5 active torsions:
REMARK  status: ('A' for Active; 'I' for Inactive)
REMARK    1  A    between atoms: C_1  and  C_3
REMARK    2  A    between atoms: C_1  and  C_17
REMARK    3  A    between atoms: C_4  and  C_9
REMARK    4  A    between atoms: C_6  and  O_15
REMARK    5  A    between atoms: C_18  and  C_23
REMARK                            x       y       z     vdW  Elec       q    Type
REMARK                         _______ _______ _______ _____ _____    ______ ____
ROOT
ATOM      1  C   UNL     1      32.761 -23.206 -17.923  0.00  0.00    +0.086 C 
ATOM      2  C   UNL     1      31.381 -22.879 -17.320  0.00  0.00    +0.019 C 
ENDROOT
BRANCH   1   3
ATOM      3  C   UNL     1      33.200 -22.206 -18.938  0.00  0.00    -0.007 C 
ATOM      4  C   UNL     1      34.020 -20.335 -20.838  0.00  0.00    +0.034 C 
ATOM      5  C   UNL     1      34.555 -22.067 -19.240  0.00  0.00    +0.034 C 
ATOM      6  C   UNL     1      34.965 -21.131 -20.190  0.00  0.00    +0.138 C 
ATOM      7  C   UNL     1      32.256 -21.409 -19.585  0.00  0.00    -0.003 C 
ATOM      8  C   UNL     1      32.666 -20.474 -20.535  0.00  0.00    +0.003 C 
BRANCH   4   9
ATOM      9  C   UNL     1      34.424 -19.358 -21.825  0.00  0.00    +0.003 C 
ATOM     10  C   UNL     1      34.275 -19.637 -23.184  0.00  0.00    +0.000 C 
ATOM     11  C   UNL     1      34.963 -18.137 -21.419  0.00  0.00    +0.000 C 
ATOM     12  C   UNL     1      34.664 -18.695 -24.136  0.00  0.00    +0.000 C 
ATOM     13  C   UNL     1      35.352 -17.195 -22.372  0.00  0.00    +0.000 C 
ATOM     14  C   UNL     1      35.203 -17.474 -23.730  0.00  0.00    +0.000 C 
ENDBRANCH   4   9
BRANCH   6  15
ATOM     15  O   UNL     1      36.295 -21.018 -20.467  0.00  0.00    -0.471 OA
ATOM     16  C   UNL     1      37.113 -20.403 -19.474  0.00  0.00    +0.252 C 
ENDBRANCH   6  15
ENDBRANCH   1   3
BRANCH   1  17
ATOM     17  C   UNL     1      33.753 -23.372 -16.829  0.00  0.00    -0.087 C 
ATOM     18  C   UNL     1      34.541 -23.496 -15.930  0.00  0.00    -0.076 C 
BRANCH  18  23
ATOM     19  N   UNL     1      37.689 -23.322 -13.973  0.00  0.00    -0.336 NA
ATOM     20  N   UNL     1      35.996 -24.384 -12.627  0.00  0.00    -0.317 NA
ATOM     21  N   UNL     1      33.813 -24.711 -13.475  0.00  0.00    -0.334 N 
ATOM     22  N   UNL     1      38.166 -24.054 -11.795  0.00  0.00    -0.283 N 
ATOM     23  C   UNL     1      35.473 -23.644 -14.856  0.00  0.00    +0.179 C 
ATOM     24  C   UNL     1      36.776 -23.203 -14.959  0.00  0.00    +0.120 C 
ATOM     25  C   UNL     1      35.136 -24.233 -13.655  0.00  0.00    +0.186 C 
ATOM     26  C   UNL     1      37.269 -22.548 -16.210  0.00  0.00    +0.064 C 
ATOM     27  C   UNL     1      37.238 -23.913 -12.851  0.00  0.00    +0.196 C 
ATOM     28  H   UNL     1      33.554 -25.134 -12.625  0.00  0.00    +0.144 HD
ATOM     29  H   UNL     1      33.155 -24.619 -14.202  0.00  0.00    +0.144 HD
ATOM     30  H   UNL     1      39.087 -23.728 -11.904  0.00  0.00    +0.156 HD
ATOM     31  H   UNL     1      37.890 -24.479 -10.951  0.00  0.00    +0.156 HD
ENDBRANCH  18  23
ENDBRANCH   1  17
TORSDOF 5
ENDMDL
MODEL 2
REMARK VINA RESULT:     -11.0      4.837      7.624
REMARK  Name = 25195365
REMARK  5 active torsions:
REMARK  status: ('A' for Active; 'I' for Inactive)
REMARK    1  A    between atoms: C_1  and  C_3
REMARK    2  A    between atoms: C_1  and  C_17
REMARK    3  A    between atoms: C_4  and  C_9
REMARK    4  A    between atoms: C_6  and  O_15
REMARK    5  A    between atoms: C_18  and  C_23
REMARK                            x       y       z     vdW  Elec       q    Type
REMARK                         _______ _______ _______ _____ _____    ______ ____
ROOT
ATOM      1  C   UNL     1      35.341 -17.523 -23.127  0.00  0.00    +0.086 C 
ATOM      2  C   UNL     1      35.190 -18.013 -24.579  0.00  0.00    +0.019 C 
ENDROOT
BRANCH   1   3
ATOM      3  C   UNL     1      34.612 -16.248 -22.867  0.00  0.00    -0.007 C 
ATOM      4  C   UNL     1      33.249 -13.864 -22.381  0.00  0.00    +0.034 C 
ATOM      5  C   UNL     1      33.979 -15.580 -23.916  0.00  0.00    +0.034 C 
ATOM      6  C   UNL     1      33.297 -14.387 -23.673  0.00  0.00    +0.138 C 
ATOM      7  C   UNL     1      34.563 -15.723 -21.576  0.00  0.00    -0.003 C 
ATOM      8  C   UNL     1      33.881 -14.532 -21.332  0.00  0.00    +0.003 C 
BRANCH   4   9
ATOM      9  C   UNL     1      32.548 -12.628 -22.107  0.00  0.00    +0.003 C 
ATOM     10  C   UNL     1      31.674 -12.547 -21.022  0.00  0.00    +0.000 C 
ATOM     11  C   UNL     1      32.745 -11.517 -22.927  0.00  0.00    +0.000 C 
ATOM     12  C   UNL     1      30.999 -11.356 -20.757  0.00  0.00    +0.000 C 
ATOM     13  C   UNL     1      32.069 -10.326 -22.662  0.00  0.00    +0.000 C 
ATOM     14  C   UNL     1      31.197 -10.245 -21.578  0.00  0.00    +0.000 C 
ENDBRANCH   4   9
BRANCH   6  15
ATOM     15  O   UNL     1      32.687 -13.756 -24.715  0.00  0.00    -0.471 OA
ATOM     16  C   UNL     1      33.423 -13.656 -25.932  0.00  0.00    +0.252 C 
ENDBRANCH   6  15
ENDBRANCH   1   3
BRANCH   1  17
ATOM     17  C   UNL     1      34.934 -18.605 -22.193  0.00  0.00    -0.087 C 
ATOM     18  C   UNL     1      34.599 -19.493 -21.456  0.00  0.00    -0.076 C 
BRANCH  18  23
ATOM     19  N   UNL     1      34.798 -22.312 -19.050  0.00  0.00    -0.336 NA
ATOM     20  N   UNL     1      32.481 -21.895 -19.568  0.00  0.00    -0.317 NA
ATOM     21  N   UNL     1      31.874 -20.173 -21.072  0.00  0.00    -0.334 N 
ATOM     22  N   UNL     1      33.096 -23.600 -18.076  0.00  0.00    -0.283 N 
ATOM     23  C   UNL     1      34.202 -20.554 -20.584  0.00  0.00    +0.179 C 
ATOM     24  C   UNL     1      35.126 -21.302 -19.883  0.00  0.00    +0.120 C 
ATOM     25  C   UNL     1      32.881 -20.899 -20.384  0.00  0.00    +0.186 C 
ATOM     26  C   UNL     1      36.591 -21.031 -20.011  0.00  0.00    +0.064 C 
ATOM     27  C   UNL     1      33.477 -22.550 -18.941  0.00  0.00    +0.196 C 
ATOM     28  H   UNL     1      30.927 -20.405 -20.942  0.00  0.00    +0.144 HD
ATOM     29  H   UNL     1      32.125 -19.439 -21.677  0.00  0.00    +0.144 HD
ATOM     30  H   UNL     1      33.782 -24.112 -17.592  0.00  0.00    +0.156 HD
ATOM     31  H   UNL     1      32.143 -23.818 -17.957  0.00  0.00    +0.156 HD
ENDBRANCH  18  23
ENDBRANCH   1  17
TORSDOF 5
ENDMDL
MODEL 3
REMARK VINA RESULT:     -10.3      4.699      8.693
REMARK  Name = 25195365
REMARK  5 active torsions:
REMARK  status: ('A' for Active; 'I' for Inactive)
REMARK    1  A    between atoms: C_1  and  C_3
REMARK    2  A    between atoms: C_1  and  C_17
REMARK    3  A    between atoms: C_4  and  C_9
REMARK    4  A    between atoms: C_6  and  O_15
REMARK    5  A    between atoms: C_18  and  C_23
REMARK                            x       y       z     vdW  Elec       q    Type
REMARK                         _______ _______ _______ _____ _____    ______ ____
ROOT
ATOM      1  C   UNL     1      36.318 -22.094 -18.103  0.00  0.00    +0.086 C 
ATOM      2  C   UNL     1      37.230 -21.351 -17.107  0.00  0.00    +0.019 C 
ENDROOT
BRANCH   1   3
ATOM      3  C   UNL     1      35.062 -22.594 -17.475  0.00  0.00    -0.007 C 
ATOM      4  C   UNL     1      32.710 -23.529 -16.302  0.00  0.00    +0.034 C 
ATOM      5  C   UNL     1      35.043 -22.928 -16.121  0.00  0.00    +0.034 C 
ATOM      6  C   UNL     1      33.867 -23.396 -15.534  0.00  0.00    +0.138 C 
ATOM      7  C   UNL     1      33.905 -22.728 -18.242  0.00  0.00    -0.003 C 
ATOM      8  C   UNL     1      32.729 -23.195 -17.656  0.00  0.00    +0.003 C 
BRANCH   4   9
ATOM      9  C   UNL     1      31.480 -24.014 -15.713  0.00  0.00    +0.003 C 
ATOM     10  C   UNL     1      30.251 -23.552 -16.186  0.00  0.00    +0.000 C 
ATOM     11  C   UNL     1      31.523 -24.943 -14.673  0.00  0.00    +0.000 C 
ATOM     12  C   UNL     1      29.066 -24.020 -15.619  0.00  0.00    +0.000 C 
ATOM     13  C   UNL     1      30.337 -25.409 -14.106  0.00  0.00    +0.000 C 
ATOM     14  C   UNL     1      29.109 -24.948 -14.579  0.00  0.00    +0.000 C 
ENDBRANCH   4   9
BRANCH   6  15
ATOM     15  O   UNL     1      33.877 -23.714 -14.208  0.00  0.00    -0.471 OA
ATOM     16  C   UNL     1      35.095 -24.228 -13.675  0.00  0.00    +0.252 C 
ENDBRANCH   6  15
ENDBRANCH   1   3
BRANCH   1  17
ATOM     17  C   UNL     1      36.053 -21.222 -19.277  0.00  0.00    -0.087 C 
ATOM     18  C   UNL     1      35.816 -20.522 -20.224  0.00  0.00    -0.076 C 
BRANCH  18  23
ATOM     19  N   UNL     1      33.937 -18.814 -22.931  0.00  0.00    -0.336 NA
ATOM     20  N   UNL     1      36.247 -18.134 -23.041  0.00  0.00    -0.317 NA
ATOM     21  N   UNL     1      37.825 -18.981 -21.497  0.00  0.00    -0.334 N 
ATOM     22  N   UNL     1      34.670 -17.301 -24.569  0.00  0.00    -0.283 N 
ATOM     23  C   UNL     1      35.527 -19.687 -21.349  0.00  0.00    +0.179 C 
ATOM     24  C   UNL     1      34.255 -19.588 -21.873  0.00  0.00    +0.120 C 
ATOM     25  C   UNL     1      36.492 -18.930 -21.980  0.00  0.00    +0.186 C 
ATOM     26  C   UNL     1      33.117 -20.358 -21.281  0.00  0.00    +0.064 C 
ATOM     27  C   UNL     1      34.966 -18.124 -23.459  0.00  0.00    +0.196 C 
ATOM     28  H   UNL     1      38.527 -18.448 -21.934  0.00  0.00    +0.144 HD
ATOM     29  H   UNL     1      38.046 -19.549 -20.724  0.00  0.00    +0.144 HD
ATOM     30  H   UNL     1      33.751 -17.255 -24.915  0.00  0.00    +0.156 HD
ATOM     31  H   UNL     1      35.385 -16.774 -24.994  0.00  0.00    +0.156 HD
ENDBRANCH  18  23
ENDBRANCH   1  17
TORSDOF 5
ENDMDL
MODEL 4
REMARK VINA RESULT:      -9.6      4.207      6.967
REMARK  Name = 25195365
REMARK  5 active torsions:
REMARK  status: ('A' for Active; 'I' for Inactive)
REMARK    1  A    between atoms: C_1  and  C_3
REMARK    2  A    between atoms: C_1  and  C_17
REMARK    3  A    between atoms: C_4  and  C_9
REMARK    4  A    between atoms: C_6  and  O_15
REMARK    5  A    between atoms: C_18  and  C_23
REMARK                            x       y       z     vdW  Elec       q    Type
REMARK                         _______ _______ _______ _____ _____    ______ ____
ROOT
ATOM      1  C   UNL     1      35.178 -18.647 -23.867  0.00  0.00    +0.086 C 
ATOM      2  C   UNL     1      34.646 -19.350 -25.131  0.00  0.00    +0.019 C 
ENDROOT
BRANCH   1   3
ATOM      3  C   UNL     1      34.718 -17.232 -23.756  0.00  0.00    -0.007 C 
ATOM      4  C   UNL     1      33.859 -14.587 -23.549  0.00  0.00    +0.034 C 
ATOM      5  C   UNL     1      34.846 -16.550 -22.546  0.00  0.00    +0.034 C 
ATOM      6  C   UNL     1      34.415 -15.227 -22.442  0.00  0.00    +0.138 C 
ATOM      7  C   UNL     1      34.161 -16.591 -24.862  0.00  0.00    -0.003 C 
ATOM      8  C   UNL     1      33.731 -15.269 -24.759  0.00  0.00    +0.003 C 
BRANCH   4   9
ATOM      9  C   UNL     1      33.405 -13.215 -23.463  0.00  0.00    +0.003 C 
ATOM     10  C   UNL     1      34.012 -12.230 -24.243  0.00  0.00    +0.000 C 
ATOM     11  C   UNL     1      32.362 -12.878 -22.601  0.00  0.00    +0.000 C 
ATOM     12  C   UNL     1      33.574 -10.908 -24.161  0.00  0.00    +0.000 C 
ATOM     13  C   UNL     1      31.925 -11.555 -22.519  0.00  0.00    +0.000 C 
ATOM     14  C   UNL     1      32.531 -10.571 -23.299  0.00  0.00    +0.000 C 
ENDBRANCH   4   9
BRANCH   6  15
ATOM     15  O   UNL     1      34.553 -14.584 -21.248  0.00  0.00    -0.471 OA
ATOM     16  C   UNL     1      33.710 -15.013 -20.181  0.00  0.00    +0.252 C 
ENDBRANCH   6  15
ENDBRANCH   1   3
BRANCH   1  17
ATOM     17  C   UNL     1      34.826 -19.449 -22.667  0.00  0.00    -0.087 C 
ATOM     18  C   UNL     1      34.537 -20.116 -21.711  0.00  0.00    -0.076 C 
BRANCH  18  23
ATOM     19  N   UNL     1      34.883 -22.291 -18.724  0.00  0.00    -0.336 NA
ATOM     20  N   UNL     1      32.541 -21.874 -19.113  0.00  0.00    -0.317 NA
ATOM     21  N   UNL     1      31.844 -20.526 -20.927  0.00  0.00    -0.334 N 
ATOM     22  N   UNL     1      33.246 -23.210 -17.316  0.00  0.00    -0.283 N 
ATOM     23  C   UNL     1      34.194 -20.916 -20.575  0.00  0.00    +0.179 C 
ATOM     24  C   UNL     1      35.159 -21.529 -19.802  0.00  0.00    +0.120 C 
ATOM     25  C   UNL     1      32.890 -21.125 -20.179  0.00  0.00    +0.186 C 
ATOM     26  C   UNL     1      36.611 -21.382 -20.125  0.00  0.00    +0.064 C 
ATOM     27  C   UNL     1      33.573 -22.419 -18.440  0.00  0.00    +0.196 C 
ATOM     28  H   UNL     1      30.907 -20.664 -20.659  0.00  0.00    +0.144 HD
ATOM     29  H   UNL     1      32.057 -19.972 -21.712  0.00  0.00    +0.144 HD
ATOM     30  H   UNL     1      33.959 -23.633 -16.788  0.00  0.00    +0.156 HD
ATOM     31  H   UNL     1      32.303 -23.338 -17.062  0.00  0.00    +0.156 HD
ENDBRANCH  18  23
ENDBRANCH   1  17
TORSDOF 5
ENDMDL
MODEL 5
REMARK VINA RESULT:      -9.6      9.935     13.276
REMARK  Name = 25195365
REMARK  5 active torsions:
REMARK  status: ('A' for Active; 'I' for Inactive)
REMARK    1  A    between atoms: C_1  and  C_3
REMARK    2  A    between atoms: C_1  and  C_17
REMARK    3  A    between atoms: C_4  and  C_9
REMARK    4  A    between atoms: C_6  and  O_15
REMARK    5  A    between atoms: C_18  and  C_23
REMARK                            x       y       z     vdW  Elec       q    Type
REMARK                         _______ _______ _______ _____ _____    ______ ____
ROOT
ATOM      1  C   UNL     1      31.382 -10.962 -21.694  0.00  0.00    +0.086 C 
ATOM      2  C   UNL     1      31.656 -10.781 -20.189  0.00  0.00    +0.019 C 
ENDROOT
BRANCH   1   3
ATOM      3  C   UNL     1      31.721  -9.749 -22.493  0.00  0.00    -0.007 C 
ATOM      4  C   UNL     1      32.354  -7.481 -23.987  0.00  0.00    +0.034 C 
ATOM      5  C   UNL     1      32.411  -9.878 -23.698  0.00  0.00    +0.034 C 
ATOM      6  C   UNL     1      32.728  -8.744 -24.446  0.00  0.00    +0.138 C 
ATOM      7  C   UNL     1      31.348  -8.486 -22.035  0.00  0.00    -0.003 C 
ATOM      8  C   UNL     1      31.664  -7.352 -22.782  0.00  0.00    +0.003 C 
BRANCH   4   9
ATOM      9  C   UNL     1      32.674  -6.291 -24.747  0.00  0.00    +0.003 C 
ATOM     10  C   UNL     1      34.001  -5.882 -24.878  0.00  0.00    +0.000 C 
ATOM     11  C   UNL     1      31.655  -5.552 -25.348  0.00  0.00    +0.000 C 
ATOM     12  C   UNL     1      34.310  -4.736 -25.610  0.00  0.00    +0.000 C 
ATOM     13  C   UNL     1      31.963  -4.405 -26.080  0.00  0.00    +0.000 C 
ATOM     14  C   UNL     1      33.291  -3.998 -26.211  0.00  0.00    +0.000 C 
ENDBRANCH   4   9
BRANCH   6  15
ATOM     15  O   UNL     1      33.402  -8.899 -25.621  0.00  0.00    -0.471 OA
ATOM     16  C   UNL     1      33.585 -10.233 -26.090  0.00  0.00    +0.252 C 
ENDBRANCH   6  15
ENDBRANCH   1   3
BRANCH   1  17
ATOM     17  C   UNL     1      32.086 -12.175 -22.184  0.00  0.00    -0.087 C 
ATOM     18  C   UNL     1      32.674 -13.142 -22.587  0.00  0.00    -0.076 C 
BRANCH  18  23
ATOM     19  N   UNL     1      34.823 -16.168 -22.632  0.00  0.00    -0.336 NA
ATOM     20  N   UNL     1      33.999 -15.768 -24.861  0.00  0.00    -0.317 NA
ATOM     21  N   UNL     1      32.579 -13.930 -25.308  0.00  0.00    -0.334 N 
ATOM     22  N   UNL     1      35.408 -17.589 -24.405  0.00  0.00    -0.283 N 
ATOM     23  C   UNL     1      33.379 -14.291 -23.065  0.00  0.00    +0.179 C 
ATOM     24  C   UNL     1      34.141 -15.076 -22.225  0.00  0.00    +0.120 C 
ATOM     25  C   UNL     1      33.344 -14.689 -24.385  0.00  0.00    +0.186 C 
ATOM     26  C   UNL     1      34.263 -14.753 -20.770  0.00  0.00    +0.064 C 
ATOM     27  C   UNL     1      34.708 -16.452 -23.943  0.00  0.00    +0.196 C 
ATOM     28  H   UNL     1      32.543 -14.198 -26.254  0.00  0.00    +0.144 HD
ATOM     29  H   UNL     1      32.087 -13.135 -25.001  0.00  0.00    +0.144 HD
ATOM     30  H   UNL     1      35.942 -18.126 -23.777  0.00  0.00    +0.156 HD
ATOM     31  H   UNL     1      35.359 -17.844 -25.355  0.00  0.00    +0.156 HD
ENDBRANCH  18  23
ENDBRANCH   1  17
TORSDOF 5
ENDMDL
MODEL 6
REMARK VINA RESULT:      -9.5      4.755      7.834
REMARK  Name = 25195365
REMARK  5 active torsions:
REMARK  status: ('A' for Active; 'I' for Inactive)
REMARK    1  A    between atoms: C_1  and  C_3
REMARK    2  A    between atoms: C_1  and  C_17
REMARK    3  A    between atoms: C_4  and  C_9
REMARK    4  A    between atoms: C_6  and  O_15
REMARK    5  A    between atoms: C_18  and  C_23
REMARK                            x       y       z     vdW  Elec       q    Type
REMARK                         _______ _______ _______ _____ _____    ______ ____
ROOT
ATOM      1  C   UNL     1      34.959 -17.693 -24.081  0.00  0.00    +0.086 C 
ATOM      2  C   UNL     1      34.240 -18.384 -25.256  0.00  0.00    +0.019 C 
ENDROOT
BRANCH   1   3
ATOM      3  C   UNL     1      34.396 -16.348 -23.769  0.00  0.00    -0.007 C 
ATOM      4  C   UNL     1      33.343 -13.832 -23.184  0.00  0.00    +0.034 C 
ATOM      5  C   UNL     1      33.751 -15.613 -24.764  0.00  0.00    +0.034 C 
ATOM      6  C   UNL     1      33.224 -14.355 -24.472  0.00  0.00    +0.138 C 
ATOM      7  C   UNL     1      34.514 -15.824 -22.482  0.00  0.00    -0.003 C 
ATOM      8  C   UNL     1      33.988 -14.567 -22.189  0.00  0.00    +0.003 C 
BRANCH   4   9
ATOM      9  C   UNL     1      32.805 -12.528 -22.860  0.00  0.00    +0.003 C 
ATOM     10  C   UNL     1      31.812 -12.406 -21.886  0.00  0.00    +0.000 C 
ATOM     11  C   UNL     1      33.278 -11.394 -23.519  0.00  0.00    +0.000 C 
ATOM     12  C   UNL     1      31.294 -11.149 -21.573  0.00  0.00    +0.000 C 
ATOM     13  C   UNL     1      32.759 -10.138 -23.206  0.00  0.00    +0.000 C 
ATOM     14  C   UNL     1      31.768 -10.016 -22.233  0.00  0.00    +0.000 C 
ENDBRANCH   4   9
BRANCH   6  15
ATOM     15  O   UNL     1      32.597 -13.659 -25.463  0.00  0.00    -0.471 OA
ATOM     16  C   UNL     1      33.403 -13.222 -26.556  0.00  0.00    +0.252 C 
ENDBRANCH   6  15
ENDBRANCH   1   3
BRANCH   1  17
ATOM     17  C   UNL     1      34.954 -18.593 -22.899  0.00  0.00    -0.087 C 
ATOM     18  C   UNL     1      34.935 -19.335 -21.954  0.00  0.00    -0.076 C 
BRANCH  18  23
ATOM     19  N   UNL     1      33.669 -21.633 -19.329  0.00  0.00    -0.336 NA
ATOM     20  N   UNL     1      36.054 -21.402 -19.073  0.00  0.00    -0.317 NA
ATOM     21  N   UNL     1      37.294 -20.021 -20.539  0.00  0.00    -0.334 N 
ATOM     22  N   UNL     1      34.813 -22.770 -17.625  0.00  0.00    -0.283 N 
ATOM     23  C   UNL     1      34.912 -20.222 -20.832  0.00  0.00    +0.179 C 
ATOM     24  C   UNL     1      33.738 -20.791 -20.381  0.00  0.00    +0.120 C 
ATOM     25  C   UNL     1      36.049 -20.568 -20.133  0.00  0.00    +0.186 C 
ATOM     26  C   UNL     1      32.434 -20.498 -21.052  0.00  0.00    +0.064 C 
ATOM     27  C   UNL     1      34.847 -21.891 -18.731  0.00  0.00    +0.196 C 
ATOM     28  H   UNL     1      38.116 -20.256 -20.053  0.00  0.00    +0.144 HD
ATOM     29  H   UNL     1      37.333 -19.408 -21.308  0.00  0.00    +0.144 HD
ATOM     30  H   UNL     1      33.958 -23.157 -17.331  0.00  0.00    +0.156 HD
ATOM     31  H   UNL     1      35.645 -22.995 -17.149  0.00  0.00    +0.156 HD
ENDBRANCH  18  23
ENDBRANCH   1  17
TORSDOF 5
ENDMDL
MODEL 7
REMARK VINA RESULT:      -9.5      5.042      8.937
REMARK  Name = 25195365
REMARK  5 active torsions:
REMARK  status: ('A' for Active; 'I' for Inactive)
REMARK    1  A    between atoms: C_1  and  C_3
REMARK    2  A    between atoms: C_1  and  C_17
REMARK    3  A    between atoms: C_4  and  C_9
REMARK    4  A    between atoms: C_6  and  O_15
REMARK    5  A    between atoms: C_18  and  C_23
REMARK                            x       y       z     vdW  Elec       q    Type
REMARK                         _______ _______ _______ _____ _____    ______ ____
ROOT
ATOM      1  C   UNL     1      35.715 -21.579 -20.082  0.00  0.00    +0.086 C 
ATOM      2  C   UNL     1      36.949 -21.197 -19.242  0.00  0.00    +0.019 C 
ENDROOT
BRANCH   1   3
ATOM      3  C   UNL     1      34.551 -21.991 -19.245  0.00  0.00    -0.007 C 
ATOM      4  C   UNL     1      32.373 -22.759 -17.681  0.00  0.00    +0.034 C 
ATOM      5  C   UNL     1      34.759 -22.689 -18.055  0.00  0.00    +0.034 C 
ATOM      6  C   UNL     1      33.670 -23.074 -17.273  0.00  0.00    +0.138 C 
ATOM      7  C   UNL     1      33.255 -21.678 -19.652  0.00  0.00    -0.003 C 
ATOM      8  C   UNL     1      32.166 -22.061 -18.871  0.00  0.00    +0.003 C 
BRANCH   4   9
ATOM      9  C   UNL     1      31.230 -23.150 -16.885  0.00  0.00    +0.003 C 
ATOM     10  C   UNL     1      30.018 -22.471 -17.024  0.00  0.00    +0.000 C 
ATOM     11  C   UNL     1      31.337 -24.205 -15.979  0.00  0.00    +0.000 C 
ATOM     12  C   UNL     1      28.916 -22.847 -16.257  0.00  0.00    +0.000 C 
ATOM     13  C   UNL     1      30.234 -24.581 -15.212  0.00  0.00    +0.000 C 
ATOM     14  C   UNL     1      29.024 -23.902 -15.351  0.00  0.00    +0.000 C 
ENDBRANCH   4   9
BRANCH   6  15
ATOM     15  O   UNL     1      33.901 -23.753 -16.114  0.00  0.00    -0.471 OA
ATOM     16  C   UNL     1      34.853 -23.191 -15.213  0.00  0.00    +0.252 C 
ENDBRANCH   6  15
ENDBRANCH   1   3
BRANCH   1  17
ATOM     17  C   UNL     1      35.378 -20.465 -21.005  0.00  0.00    -0.087 C 
ATOM     18  C   UNL     1      35.127 -19.567 -21.763  0.00  0.00    -0.076 C 
BRANCH  18  23
ATOM     19  N   UNL     1      34.280 -17.762 -24.894  0.00  0.00    -0.336 NA
ATOM     20  N   UNL     1      34.514 -16.157 -23.111  0.00  0.00    -0.317 NA
ATOM     21  N   UNL     1      35.054 -16.862 -20.919  0.00  0.00    -0.334 N 
ATOM     22  N   UNL     1      33.977 -15.469 -25.290  0.00  0.00    -0.283 N 
ATOM     23  C   UNL     1      34.831 -18.501 -22.670  0.00  0.00    +0.179 C 
ATOM     24  C   UNL     1      34.564 -18.735 -24.003  0.00  0.00    +0.120 C 
ATOM     25  C   UNL     1      34.790 -17.180 -22.276  0.00  0.00    +0.186 C 
ATOM     26  C   UNL     1      34.577 -20.124 -24.558  0.00  0.00    +0.064 C 
ATOM     27  C   UNL     1      34.272 -16.514 -24.387  0.00  0.00    +0.196 C 
ATOM     28  H   UNL     1      35.030 -15.925 -20.619  0.00  0.00    +0.144 HD
ATOM     29  H   UNL     1      35.260 -17.580 -20.278  0.00  0.00    +0.144 HD
ATOM     30  H   UNL     1      33.792 -15.673 -26.234  0.00  0.00    +0.156 HD
ATOM     31  H   UNL     1      33.957 -14.537 -24.974  0.00  0.00    +0.156 HD
ENDBRANCH  18  23
ENDBRANCH   1  17
TORSDOF 5
ENDMDL
MODEL 8
REMARK VINA RESULT:      -9.4      4.826      7.982
REMARK  Name = 25195365
REMARK  5 active torsions:
REMARK  status: ('A' for Active; 'I' for Inactive)
REMARK    1  A    between atoms: C_1  and  C_3
REMARK    2  A    between atoms: C_1  and  C_17
REMARK    3  A    between atoms: C_4  and  C_9
REMARK    4  A    between atoms: C_6  and  O_15
REMARK    5  A    between atoms: C_18  and  C_23
REMARK                            x       y       z     vdW  Elec       q    Type
REMARK                         _______ _______ _______ _____ _____    ______ ____
ROOT
ATOM      1  C   UNL     1      34.196 -17.751 -24.805  0.00  0.00    +0.086 C 
ATOM      2  C   UNL     1      32.919 -18.423 -25.344  0.00  0.00    +0.019 C 
ENDROOT
BRANCH   1   3
ATOM      3  C   UNL     1      34.030 -16.284 -24.591  0.00  0.00    -0.007 C 
ATOM      4  C   UNL     1      33.721 -13.541 -24.192  0.00  0.00    +0.034 C 
ATOM      5  C   UNL     1      34.374 -15.715 -23.365  0.00  0.00    +0.034 C 
ATOM      6  C   UNL     1      34.219 -14.342 -23.165  0.00  0.00    +0.138 C 
ATOM      7  C   UNL     1      33.532 -15.482 -25.617  0.00  0.00    -0.003 C 
ATOM      8  C   UNL     1      33.377 -14.110 -25.418  0.00  0.00    +0.003 C 
BRANCH   4   9
ATOM      9  C   UNL     1      33.552 -12.116 -24.006  0.00  0.00    +0.003 C 
ATOM     10  C   UNL     1      34.382 -11.220 -24.680  0.00  0.00    +0.000 C 
ATOM     11  C   UNL     1      32.558 -11.637 -23.152  0.00  0.00    +0.000 C 
ATOM     12  C   UNL     1      34.219  -9.847 -24.501  0.00  0.00    +0.000 C 
ATOM     13  C   UNL     1      32.395 -10.263 -22.973  0.00  0.00    +0.000 C 
ATOM     14  C   UNL     1      33.225  -9.369 -23.648  0.00  0.00    +0.000 C 
ENDBRANCH   4   9
BRANCH   6  15
ATOM     15  O   UNL     1      34.564 -13.812 -21.957  0.00  0.00    -0.471 OA
ATOM     16  C   UNL     1      33.817 -14.245 -20.823  0.00  0.00    +0.252 C 
ENDBRANCH   6  15
ENDBRANCH   1   3
BRANCH   1  17
ATOM     17  C   UNL     1      34.644 -18.452 -23.574  0.00  0.00    -0.087 C 
ATOM     18  C   UNL     1      34.991 -19.036 -22.583  0.00  0.00    -0.076 C 
BRANCH  18  23
ATOM     19  N   UNL     1      34.856 -21.150 -19.535  0.00  0.00    -0.336 NA
ATOM     20  N   UNL     1      37.118 -20.377 -19.844  0.00  0.00    -0.317 NA
ATOM     21  N   UNL     1      37.676 -18.988 -21.675  0.00  0.00    -0.334 N 
ATOM     22  N   UNL     1      36.552 -21.756 -18.031  0.00  0.00    -0.283 N 
ATOM     23  C   UNL     1      35.403 -19.737 -21.406  0.00  0.00    +0.179 C 
ATOM     24  C   UNL     1      34.513 -20.474 -20.651  0.00  0.00    +0.120 C 
ATOM     25  C   UNL     1      36.705 -19.725 -20.950  0.00  0.00    +0.186 C 
ATOM     26  C   UNL     1      33.071 -20.568 -21.037  0.00  0.00    +0.064 C 
ATOM     27  C   UNL     1      36.156 -21.060 -19.194  0.00  0.00    +0.196 C 
ATOM     28  H   UNL     1      38.610 -18.967 -21.365  0.00  0.00    +0.144 HD
ATOM     29  H   UNL     1      37.415 -18.497 -22.488  0.00  0.00    +0.144 HD
ATOM     30  H   UNL     1      35.890 -22.272 -17.517  0.00  0.00    +0.156 HD
ATOM     31  H   UNL     1      37.491 -21.726 -17.735  0.00  0.00    +0.156 HD
ENDBRANCH  18  23
ENDBRANCH   1  17
TORSDOF 5
ENDMDL
MODEL 9
REMARK VINA RESULT:      -9.4      9.546     13.013
REMARK  Name = 25195365
REMARK  5 active torsions:
REMARK  status: ('A' for Active; 'I' for Inactive)
REMARK    1  A    between atoms: C_1  and  C_3
REMARK    2  A    between atoms: C_1  and  C_17
REMARK    3  A    between atoms: C_4  and  C_9
REMARK    4  A    between atoms: C_6  and  O_15
REMARK    5  A    between atoms: C_18  and  C_23
REMARK                            x       y       z     vdW  Elec       q    Type
REMARK                         _______ _______ _______ _____ _____    ______ ____
ROOT
ATOM      1  C   UNL     1      31.445 -11.108 -21.712  0.00  0.00    +0.086 C 
ATOM      2  C   UNL     1      31.602 -10.879 -20.196  0.00  0.00    +0.019 C 
ENDROOT
BRANCH   1   3
ATOM      3  C   UNL     1      31.786  -9.901 -22.518  0.00  0.00    -0.007 C 
ATOM      4  C   UNL     1      32.422  -7.642 -24.025  0.00  0.00    +0.034 C 
ATOM      5  C   UNL     1      32.463 -10.039 -23.729  0.00  0.00    +0.034 C 
ATOM      6  C   UNL     1      32.781  -8.909 -24.483  0.00  0.00    +0.138 C 
ATOM      7  C   UNL     1      31.427  -8.633 -22.060  0.00  0.00    -0.003 C 
ATOM      8  C   UNL     1      31.745  -7.504 -22.813  0.00  0.00    +0.003 C 
BRANCH   4   9
ATOM      9  C   UNL     1      32.743  -6.457 -24.791  0.00  0.00    +0.003 C 
ATOM     10  C   UNL     1      34.062  -6.005 -24.857  0.00  0.00    +0.000 C 
ATOM     11  C   UNL     1      31.735  -5.766 -25.464  0.00  0.00    +0.000 C 
ATOM     12  C   UNL     1      34.372  -4.863 -25.596  0.00  0.00    +0.000 C 
ATOM     13  C   UNL     1      32.046  -4.624 -26.202  0.00  0.00    +0.000 C 
ATOM     14  C   UNL     1      33.364  -4.173 -26.268  0.00  0.00    +0.000 C 
ENDBRANCH   4   9
BRANCH   6  15
ATOM     15  O   UNL     1      33.442  -9.073 -25.665  0.00  0.00    -0.471 OA
ATOM     16  C   UNL     1      33.660 -10.412 -26.104  0.00  0.00    +0.252 C 
ENDBRANCH   6  15
ENDBRANCH   1   3
BRANCH   1  17
ATOM     17  C   UNL     1      32.236 -12.298 -22.118  0.00  0.00    -0.087 C 
ATOM     18  C   UNL     1      32.859 -13.275 -22.439  0.00  0.00    -0.076 C 
BRANCH  18  23
ATOM     19  N   UNL     1      34.393 -15.913 -24.551  0.00  0.00    -0.336 NA
ATOM     20  N   UNL     1      34.932 -16.354 -22.243  0.00  0.00    -0.317 NA
ATOM     21  N   UNL     1      34.157 -14.919 -20.531  0.00  0.00    -0.334 N 
ATOM     22  N   UNL     1      35.695 -17.771 -23.952  0.00  0.00    -0.283 N 
ATOM     23  C   UNL     1      33.594 -14.440 -22.823  0.00  0.00    +0.179 C 
ATOM     24  C   UNL     1      33.710 -14.824 -24.143  0.00  0.00    +0.120 C 
ATOM     25  C   UNL     1      34.232 -15.251 -21.908  0.00  0.00    +0.186 C 
ATOM     26  C   UNL     1      33.064 -14.030 -25.234  0.00  0.00    +0.064 C 
ATOM     27  C   UNL     1      34.971 -16.623 -23.563  0.00  0.00    +0.196 C 
ATOM     28  H   UNL     1      34.606 -15.486 -19.863  0.00  0.00    +0.144 HD
ATOM     29  H   UNL     1      33.656 -14.121 -20.244  0.00  0.00    +0.144 HD
ATOM     30  H   UNL     1      35.757 -18.014 -24.903  0.00  0.00    +0.156 HD
ATOM     31  H   UNL     1      36.139 -18.327 -23.271  0.00  0.00    +0.156 HD
ENDBRANCH  18  23
ENDBRANCH   1  17
TORSDOF 5
ENDMDL
