MODEL 1
REMARK VINA RESULT:     -11.8      0.000      0.000
REMARK  Name = 11697676
REMARK  7 active torsions:
REMARK  status: ('A' for Active; 'I' for Inactive)
REMARK    1  A    between atoms: N_1  and  C_18
REMARK    2  A    between atoms: N_2  and  C_8
REMARK    3  A    between atoms: C_18  and  C_19
REMARK    4  A    between atoms: C_19  and  C_20
REMARK    5  A    between atoms: C_20  and  C_21
REMARK    6  A    between atoms: C_21  and  O_22
REMARK    7  A    between atoms: O_22  and  C_28
REMARK                            x       y       z     vdW  Elec       q    Type
REMARK                         _______ _______ _______ _____ _____    ______ ____
ROOT
ATOM      1  N   UNL     1      34.411 -16.013 -24.656  0.00  0.00    +0.389 N 
ATOM      2  N   UNL     1      33.571 -13.346 -24.075  0.00  0.00    -0.312 N 
ATOM      3  C   UNL     1      33.367 -15.370 -25.465  0.00  0.00    -0.055 C 
ATOM      4  C   UNL     1      34.324 -15.547 -23.267  0.00  0.00    -0.055 C 
ATOM      5  C   UNL     1      33.523 -13.848 -25.453  0.00  0.00    +0.068 C 
ATOM      6  C   UNL     1      34.511 -14.030 -23.183  0.00  0.00    +0.068 C 
ATOM      7  H   UNL     1      35.324 -15.757 -25.033  0.00  0.00    -0.080 HD
ENDROOT
BRANCH   2   8
ATOM      8  C   UNL     1      33.261 -11.998 -23.855  0.00  0.00    +0.048 C 
ATOM      9  C   UNL     1      32.435 -11.563 -22.781  0.00  0.00    +0.013 C 
ATOM     10  C   UNL     1      33.786 -11.024 -24.732  0.00  0.00    +0.015 C 
ATOM     11  C   UNL     1      32.153 -10.188 -22.605  0.00  0.00    +0.001 C 
ATOM     12  C   UNL     1      31.891 -12.497 -21.885  0.00  0.00    +0.001 C 
ATOM     13  C   UNL     1      33.510  -9.671 -24.557  0.00  0.00    +0.001 C 
ATOM     14  C   UNL     1      32.699  -9.255 -23.501  0.00  0.00    +0.000 C 
ATOM     15  C   UNL     1      31.335  -9.787 -21.537  0.00  0.00    +0.000 C 
ATOM     16  C   UNL     1      31.080 -12.080 -20.829  0.00  0.00    +0.000 C 
ATOM     17  C   UNL     1      30.802 -10.728 -20.655  0.00  0.00    +0.000 C 
ENDBRANCH   2   8
BRANCH   1  18
ATOM     18  C   UNL     1      34.285 -17.468 -24.719  0.00  0.00    -0.077 C 
BRANCH  18  19
ATOM     19  C   UNL     1      35.286 -18.129 -23.773  0.00  0.00    -0.019 C 
BRANCH  19  20
ATOM     20  C   UNL     1      34.740 -19.444 -23.220  0.00  0.00    +0.045 C 
BRANCH  20  21
ATOM     21  C   UNL     1      34.570 -19.391 -21.707  0.00  0.00    +0.208 C 
BRANCH  21  22
ATOM     22  O   UNL     1      33.440 -20.162 -21.322  0.00  0.00    -0.452 OA
BRANCH  22  28
ATOM     23  O   UNL     1      30.451 -23.749 -16.133  0.00  0.00    -0.275 OA
ATOM     24  N   UNL     1      31.473 -22.626 -17.856  0.00  0.00    -0.263 N 
ATOM     25  N   UNL     1      32.477 -21.385 -19.602  0.00  0.00    -0.357 NA
ATOM     26  C   UNL     1      33.875 -22.671 -18.106  0.00  0.00    +0.090 C 
ATOM     27  C   UNL     1      33.963 -23.670 -16.992  0.00  0.00    +0.022 C 
ATOM     28  C   UNL     1      33.600 -21.000 -20.249  0.00  0.00    +0.278 C 
ATOM     29  C   UNL     1      32.632 -22.206 -18.536  0.00  0.00    +0.170 C 
ATOM     30  C   UNL     1      32.829 -23.472 -15.998  0.00  0.00    +0.086 C 
ATOM     31  C   UNL     1      35.007 -22.260 -18.810  0.00  0.00    -0.012 C 
ATOM     32  C   UNL     1      34.875 -21.403 -19.895  0.00  0.00    +0.068 C 
ATOM     33  C   UNL     1      31.478 -23.334 -16.670  0.00  0.00    +0.228 C 
ATOM     34  H   UNL     1      30.601 -22.401 -18.253  0.00  0.00    +0.157 HD
ENDBRANCH  22  28
ENDBRANCH  21  22
ENDBRANCH  20  21
ENDBRANCH  19  20
ENDBRANCH  18  19
ENDBRANCH   1  18
TORSDOF 7
ENDMDL
MODEL 2
REMARK VINA RESULT:     -11.7      0.765      2.478
REMARK  Name = 11697676
REMARK  7 active torsions:
REMARK  status: ('A' for Active; 'I' for Inactive)
REMARK    1  A    between atoms: N_1  and  C_18
REMARK    2  A    between atoms: N_2  and  C_8
REMARK    3  A    between atoms: C_18  and  C_19
REMARK    4  A    between atoms: C_19  and  C_20
REMARK    5  A    between atoms: C_20  and  C_21
REMARK    6  A    between atoms: C_21  and  O_22
REMARK    7  A    between atoms: O_22  and  C_28
REMARK                            x       y       z     vdW  Elec       q    Type
REMARK                         _______ _______ _______ _____ _____    ______ ____
ROOT
ATOM      1  N   UNL     1      33.941 -15.972 -24.186  0.00  0.00    +0.389 N 
ATOM      2  N   UNL     1      33.524 -13.161 -23.895  0.00  0.00    -0.312 N 
ATOM      3  C   UNL     1      34.607 -15.231 -23.107  0.00  0.00    -0.055 C 
ATOM      4  C   UNL     1      33.803 -15.114 -25.370  0.00  0.00    -0.055 C 
ATOM      5  C   UNL     1      33.800 -13.990 -22.715  0.00  0.00    +0.068 C 
ATOM      6  C   UNL     1      32.970 -13.869 -25.052  0.00  0.00    +0.068 C 
ATOM      7  H   UNL     1      33.012 -16.250 -23.870  0.00  0.00    -0.080 HD
ENDROOT
BRANCH   2   8
ATOM      8  C   UNL     1      33.211 -11.812 -23.691  0.00  0.00    +0.048 C 
ATOM      9  C   UNL     1      33.803 -10.762 -24.448  0.00  0.00    +0.013 C 
ATOM     10  C   UNL     1      32.271 -11.471 -22.695  0.00  0.00    +0.015 C 
ATOM     11  C   UNL     1      33.451  -9.414 -24.201  0.00  0.00    +0.001 C 
ATOM     12  C   UNL     1      34.744 -11.054 -25.448  0.00  0.00    +0.001 C 
ATOM     13  C   UNL     1      31.924 -10.145 -22.453  0.00  0.00    +0.001 C 
ATOM     14  C   UNL     1      32.509  -9.123 -23.200  0.00  0.00    +0.000 C 
ATOM     15  C   UNL     1      34.049  -8.397 -24.962  0.00  0.00    +0.000 C 
ATOM     16  C   UNL     1      35.329 -10.031 -26.195  0.00  0.00    +0.000 C 
ATOM     17  C   UNL     1      34.983  -8.705 -25.952  0.00  0.00    +0.000 C 
ENDBRANCH   2   8
BRANCH   1  18
ATOM     18  C   UNL     1      34.692 -17.183 -24.515  0.00  0.00    -0.077 C 
BRANCH  18  19
ATOM     19  C   UNL     1      35.172 -17.873 -23.240  0.00  0.00    -0.019 C 
BRANCH  19  20
ATOM     20  C   UNL     1      34.501 -19.233 -23.061  0.00  0.00    +0.045 C 
BRANCH  20  21
ATOM     21  C   UNL     1      34.704 -19.781 -21.655  0.00  0.00    +0.208 C 
BRANCH  21  22
ATOM     22  O   UNL     1      33.508 -20.398 -21.201  0.00  0.00    -0.452 OA
BRANCH  22  28
ATOM     23  O   UNL     1      30.238 -23.750 -16.024  0.00  0.00    -0.275 OA
ATOM     24  N   UNL     1      31.352 -22.706 -17.740  0.00  0.00    -0.263 N 
ATOM     25  N   UNL     1      32.451 -21.544 -19.483  0.00  0.00    -0.357 NA
ATOM     26  C   UNL     1      33.760 -22.797 -17.883  0.00  0.00    +0.090 C 
ATOM     27  C   UNL     1      33.784 -23.757 -16.732  0.00  0.00    +0.022 C 
ATOM     28  C   UNL     1      33.607 -21.200 -20.093  0.00  0.00    +0.278 C 
ATOM     29  C   UNL     1      32.546 -22.328 -18.383  0.00  0.00    +0.170 C 
ATOM     30  C   UNL     1      32.612 -23.506 -15.796  0.00  0.00    +0.086 C 
ATOM     31  C   UNL     1      34.929 -22.430 -18.552  0.00  0.00    -0.012 C 
ATOM     32  C   UNL     1      34.858 -21.609 -19.670  0.00  0.00    +0.068 C 
ATOM     33  C   UNL     1      31.294 -23.372 -16.530  0.00  0.00    +0.228 C 
ATOM     34  H   UNL     1      30.501 -22.482 -18.181  0.00  0.00    +0.157 HD
ENDBRANCH  22  28
ENDBRANCH  21  22
ENDBRANCH  20  21
ENDBRANCH  19  20
ENDBRANCH  18  19
ENDBRANCH   1  18
TORSDOF 7
ENDMDL
MODEL 3
REMARK VINA RESULT:     -11.6      1.934      2.225
REMARK  Name = 11697676
REMARK  7 active torsions:
REMARK  status: ('A' for Active; 'I' for Inactive)
REMARK    1  A    between atoms: N_1  and  C_18
REMARK    2  A    between atoms: N_2  and  C_8
REMARK    3  A    between atoms: C_18  and  C_19
REMARK    4  A    between atoms: C_19  and  C_20
REMARK    5  A    between atoms: C_20  and  C_21
REMARK    6  A    between atoms: C_21  and  O_22
REMARK    7  A    between atoms: O_22  and  C_28
REMARK                            x       y       z     vdW  Elec       q    Type
REMARK                         _______ _______ _______ _____ _____    ______ ____
ROOT
ATOM      1  N   UNL     1      34.506 -16.062 -24.498  0.00  0.00    +0.389 N 
ATOM      2  N   UNL     1      33.610 -13.396 -23.997  0.00  0.00    -0.312 N 
ATOM      3  C   UNL     1      33.462 -15.460 -25.337  0.00  0.00    -0.055 C 
ATOM      4  C   UNL     1      34.391 -15.562 -23.122  0.00  0.00    -0.055 C 
ATOM      5  C   UNL     1      33.590 -13.935 -25.362  0.00  0.00    +0.068 C 
ATOM      6  C   UNL     1      34.549 -14.040 -23.074  0.00  0.00    +0.068 C 
ATOM      7  H   UNL     1      35.419 -15.799 -24.869  0.00  0.00    -0.080 HD
ENDROOT
BRANCH   2   8
ATOM      8  C   UNL     1      33.273 -12.050 -23.816  0.00  0.00    +0.048 C 
ATOM      9  C   UNL     1      32.452 -11.599 -22.745  0.00  0.00    +0.013 C 
ATOM     10  C   UNL     1      33.763 -11.094 -24.731  0.00  0.00    +0.015 C 
ATOM     11  C   UNL     1      32.141 -10.225 -22.609  0.00  0.00    +0.001 C 
ATOM     12  C   UNL     1      31.941 -12.514 -21.811  0.00  0.00    +0.001 C 
ATOM     13  C   UNL     1      33.458  -9.742 -24.597  0.00  0.00    +0.001 C 
ATOM     14  C   UNL     1      32.654  -9.310 -23.543  0.00  0.00    +0.000 C 
ATOM     15  C   UNL     1      31.329  -9.807 -21.542  0.00  0.00    +0.000 C 
ATOM     16  C   UNL     1      31.136 -12.081 -20.757  0.00  0.00    +0.000 C 
ATOM     17  C   UNL     1      30.830 -10.730 -20.623  0.00  0.00    +0.000 C 
ENDBRANCH   2   8
BRANCH   1  18
ATOM     18  C   UNL     1      34.407 -17.521 -24.524  0.00  0.00    -0.077 C 
BRANCH  18  19
ATOM     19  C   UNL     1      35.293 -18.133 -23.441  0.00  0.00    -0.019 C 
BRANCH  19  20
ATOM     20  C   UNL     1      34.675 -19.411 -22.878  0.00  0.00    +0.045 C 
BRANCH  20  21
ATOM     21  C   UNL     1      34.798 -19.475 -21.361  0.00  0.00    +0.208 C 
BRANCH  21  22
ATOM     22  O   UNL     1      35.664 -20.539 -20.992  0.00  0.00    -0.452 OA
BRANCH  22  28
ATOM     23  O   UNL     1      37.546 -23.083 -14.770  0.00  0.00    -0.275 OA
ATOM     24  N   UNL     1      36.865 -22.224 -16.789  0.00  0.00    -0.263 N 
ATOM     25  N   UNL     1      36.248 -21.379 -18.910  0.00  0.00    -0.357 NA
ATOM     26  C   UNL     1      34.661 -22.697 -17.651  0.00  0.00    +0.090 C 
ATOM     27  C   UNL     1      34.314 -23.383 -16.364  0.00  0.00    +0.022 C 
ATOM     28  C   UNL     1      35.315 -21.263 -19.882  0.00  0.00    +0.278 C 
ATOM     29  C   UNL     1      35.911 -22.101 -17.816  0.00  0.00    +0.170 C 
ATOM     30  C   UNL     1      35.551 -24.001 -15.732  0.00  0.00    +0.086 C 
ATOM     31  C   UNL     1      33.722 -22.542 -18.672  0.00  0.00    -0.012 C 
ATOM     32  C   UNL     1      34.052 -21.822 -19.813  0.00  0.00    +0.068 C 
ATOM     33  C   UNL     1      36.726 -23.047 -15.688  0.00  0.00    +0.228 C 
ATOM     34  H   UNL     1      37.688 -21.686 -16.859  0.00  0.00    +0.157 HD
ENDBRANCH  22  28
ENDBRANCH  21  22
ENDBRANCH  20  21
ENDBRANCH  19  20
ENDBRANCH  18  19
ENDBRANCH   1  18
TORSDOF 7
ENDMDL
MODEL 4
REMARK VINA RESULT:     -11.6      2.078      3.266
REMARK  Name = 11697676
REMARK  7 active torsions:
REMARK  status: ('A' for Active; 'I' for Inactive)
REMARK    1  A    between atoms: N_1  and  C_18
REMARK    2  A    between atoms: N_2  and  C_8
REMARK    3  A    between atoms: C_18  and  C_19
REMARK    4  A    between atoms: C_19  and  C_20
REMARK    5  A    between atoms: C_20  and  C_21
REMARK    6  A    between atoms: C_21  and  O_22
REMARK    7  A    between atoms: O_22  and  C_28
REMARK                            x       y       z     vdW  Elec       q    Type
REMARK                         _______ _______ _______ _____ _____    ______ ____
ROOT
ATOM      1  N   UNL     1      34.067 -16.242 -24.032  0.00  0.00    +0.389 N 
ATOM      2  N   UNL     1      33.476 -13.468 -23.690  0.00  0.00    -0.312 N 
ATOM      3  C   UNL     1      34.673 -15.484 -22.929  0.00  0.00    -0.055 C 
ATOM      4  C   UNL     1      33.892 -15.369 -25.200  0.00  0.00    -0.055 C 
ATOM      5  C   UNL     1      33.787 -14.303 -22.524  0.00  0.00    +0.068 C 
ATOM      6  C   UNL     1      32.981 -14.184 -24.869  0.00  0.00    +0.068 C 
ATOM      7  H   UNL     1      33.153 -16.582 -23.735  0.00  0.00    -0.080 HD
ENDROOT
BRANCH   2   8
ATOM      8  C   UNL     1      33.080 -12.145 -23.464  0.00  0.00    +0.048 C 
ATOM      9  C   UNL     1      33.590 -11.049 -24.214  0.00  0.00    +0.013 C 
ATOM     10  C   UNL     1      32.134 -11.879 -22.450  0.00  0.00    +0.015 C 
ATOM     11  C   UNL     1      33.155  -9.730 -23.944  0.00  0.00    +0.001 C 
ATOM     12  C   UNL     1      34.533 -11.267 -25.232  0.00  0.00    +0.001 C 
ATOM     13  C   UNL     1      31.705 -10.581 -22.185  0.00  0.00    +0.001 C 
ATOM     14  C   UNL     1      32.211  -9.514 -22.927  0.00  0.00    +0.000 C 
ATOM     15  C   UNL     1      33.675  -8.667 -24.700  0.00  0.00    +0.000 C 
ATOM     16  C   UNL     1      35.039 -10.198 -25.973  0.00  0.00    +0.000 C 
ATOM     17  C   UNL     1      34.612  -8.901 -25.707  0.00  0.00    +0.000 C 
ENDBRANCH   2   8
BRANCH   1  18
ATOM     18  C   UNL     1      34.895 -17.398 -24.375  0.00  0.00    -0.077 C 
BRANCH  18  19
ATOM     19  C   UNL     1      35.453 -18.045 -23.109  0.00  0.00    -0.019 C 
BRANCH  19  20
ATOM     20  C   UNL     1      34.805 -19.403 -22.850  0.00  0.00    +0.045 C 
BRANCH  20  21
ATOM     21  C   UNL     1      34.610 -19.660 -21.362  0.00  0.00    +0.208 C 
BRANCH  21  22
ATOM     22  O   UNL     1      35.591 -20.576 -20.898  0.00  0.00    -0.452 OA
BRANCH  22  28
ATOM     23  O   UNL     1      37.655 -23.172 -14.755  0.00  0.00    -0.275 OA
ATOM     24  N   UNL     1      36.916 -22.296 -16.746  0.00  0.00    -0.263 N 
ATOM     25  N   UNL     1      36.236 -21.433 -18.841  0.00  0.00    -0.357 NA
ATOM     26  C   UNL     1      34.685 -22.760 -17.545  0.00  0.00    +0.090 C 
ATOM     27  C   UNL     1      34.377 -23.455 -16.254  0.00  0.00    +0.022 C 
ATOM     28  C   UNL     1      35.275 -21.309 -19.783  0.00  0.00    +0.278 C 
ATOM     29  C   UNL     1      35.931 -22.164 -17.743  0.00  0.00    +0.170 C 
ATOM     30  C   UNL     1      35.631 -24.080 -15.664  0.00  0.00    +0.086 C 
ATOM     31  C   UNL     1      33.717 -22.595 -18.536  0.00  0.00    -0.012 C 
ATOM     32  C   UNL     1      34.014 -21.867 -19.681  0.00  0.00    +0.068 C 
ATOM     33  C   UNL     1      36.808 -23.128 -15.648  0.00  0.00    +0.228 C 
ATOM     34  H   UNL     1      37.736 -21.759 -16.836  0.00  0.00    +0.157 HD
ENDBRANCH  22  28
ENDBRANCH  21  22
ENDBRANCH  20  21
ENDBRANCH  19  20
ENDBRANCH  18  19
ENDBRANCH   1  18
TORSDOF 7
ENDMDL
MODEL 5
REMARK VINA RESULT:     -11.4      3.171      5.823
REMARK  Name = 11697676
REMARK  7 active torsions:
REMARK  status: ('A' for Active; 'I' for Inactive)
REMARK    1  A    between atoms: N_1  and  C_18
REMARK    2  A    between atoms: N_2  and  C_8
REMARK    3  A    between atoms: C_18  and  C_19
REMARK    4  A    between atoms: C_19  and  C_20
REMARK    5  A    between atoms: C_20  and  C_21
REMARK    6  A    between atoms: C_21  and  O_22
REMARK    7  A    between atoms: O_22  and  C_28
REMARK                            x       y       z     vdW  Elec       q    Type
REMARK                         _______ _______ _______ _____ _____    ______ ____
ROOT
ATOM      1  N   UNL     1      35.621 -21.227 -20.058  0.00  0.00    +0.389 N 
ATOM      2  N   UNL     1      35.125 -19.047 -21.835  0.00  0.00    -0.312 N 
ATOM      3  C   UNL     1      34.246 -20.791 -20.332  0.00  0.00    -0.055 C 
ATOM      4  C   UNL     1      36.527 -20.072 -20.089  0.00  0.00    -0.055 C 
ATOM      5  C   UNL     1      34.143 -20.132 -21.709  0.00  0.00    +0.068 C 
ATOM      6  C   UNL     1      36.499 -19.388 -21.458  0.00  0.00    +0.068 C 
ATOM      7  H   UNL     1      35.907 -21.889 -20.780  0.00  0.00    -0.080 HD
ENDROOT
BRANCH   2   8
ATOM      8  C   UNL     1      34.894 -18.061 -22.802  0.00  0.00    +0.048 C 
ATOM      9  C   UNL     1      34.658 -16.698 -22.471  0.00  0.00    +0.013 C 
ATOM     10  C   UNL     1      34.894 -18.428 -24.166  0.00  0.00    +0.015 C 
ATOM     11  C   UNL     1      34.430 -15.742 -23.488  0.00  0.00    +0.001 C 
ATOM     12  C   UNL     1      34.648 -16.288 -21.128  0.00  0.00    +0.001 C 
ATOM     13  C   UNL     1      34.671 -17.487 -25.167  0.00  0.00    +0.001 C 
ATOM     14  C   UNL     1      34.441 -16.153 -24.832  0.00  0.00    +0.000 C 
ATOM     15  C   UNL     1      34.200 -14.403 -23.133  0.00  0.00    +0.000 C 
ATOM     16  C   UNL     1      34.418 -14.953 -20.793  0.00  0.00    +0.000 C 
ATOM     17  C   UNL     1      34.193 -14.012 -21.794  0.00  0.00    +0.000 C 
ENDBRANCH   2   8
BRANCH   1  18
ATOM     18  C   UNL     1      35.697 -21.904 -18.764  0.00  0.00    -0.077 C 
BRANCH  18  19
ATOM     19  C   UNL     1      36.827 -21.315 -17.922  0.00  0.00    -0.019 C 
BRANCH  19  20
ATOM     20  C   UNL     1      37.324 -22.319 -16.883  0.00  0.00    +0.045 C 
BRANCH  20  21
ATOM     21  C   UNL     1      36.273 -22.588 -15.814  0.00  0.00    +0.208 C 
BRANCH  21  22
ATOM     22  O   UNL     1      35.553 -23.770 -16.132  0.00  0.00    -0.452 OA
BRANCH  22  28
ATOM     23  O   UNL     1      28.801 -22.553 -17.420  0.00  0.00    -0.275 OA
ATOM     24  N   UNL     1      31.005 -23.019 -16.973  0.00  0.00    -0.263 N 
ATOM     25  N   UNL     1      33.298 -23.402 -16.538  0.00  0.00    -0.357 NA
ATOM     26  C   UNL     1      31.660 -23.971 -14.853  0.00  0.00    +0.090 C 
ATOM     27  C   UNL     1      30.215 -24.118 -14.483  0.00  0.00    +0.022 C 
ATOM     28  C   UNL     1      34.257 -23.842 -15.692  0.00  0.00    +0.278 C 
ATOM     29  C   UNL     1      32.018 -23.463 -16.102  0.00  0.00    +0.170 C 
ATOM     30  C   UNL     1      29.376 -23.036 -15.143  0.00  0.00    +0.086 C 
ATOM     31  C   UNL     1      32.679 -24.428 -14.017  0.00  0.00    -0.012 C 
ATOM     32  C   UNL     1      34.002 -24.356 -14.433  0.00  0.00    +0.068 C 
ATOM     33  C   UNL     1      29.677 -22.878 -16.619  0.00  0.00    +0.228 C 
ATOM     34  H   UNL     1      31.260 -22.793 -17.897  0.00  0.00    +0.157 HD
ENDBRANCH  22  28
ENDBRANCH  21  22
ENDBRANCH  20  21
ENDBRANCH  19  20
ENDBRANCH  18  19
ENDBRANCH   1  18
TORSDOF 7
ENDMDL
MODEL 6
REMARK VINA RESULT:     -11.3      3.425     12.499
REMARK  Name = 11697676
REMARK  7 active torsions:
REMARK  status: ('A' for Active; 'I' for Inactive)
REMARK    1  A    between atoms: N_1  and  C_18
REMARK    2  A    between atoms: N_2  and  C_8
REMARK    3  A    between atoms: C_18  and  C_19
REMARK    4  A    between atoms: C_19  and  C_20
REMARK    5  A    between atoms: C_20  and  C_21
REMARK    6  A    between atoms: C_21  and  O_22
REMARK    7  A    between atoms: O_22  and  C_28
REMARK                            x       y       z     vdW  Elec       q    Type
REMARK                         _______ _______ _______ _____ _____    ______ ____
ROOT
ATOM      1  N   UNL     1      34.062 -22.464 -18.059  0.00  0.00    +0.389 N 
ATOM      2  N   UNL     1      35.037 -23.646 -15.648  0.00  0.00    -0.312 N 
ATOM      3  C   UNL     1      33.468 -23.707 -17.548  0.00  0.00    -0.055 C 
ATOM      4  C   UNL     1      35.494 -22.427 -17.739  0.00  0.00    -0.055 C 
ATOM      5  C   UNL     1      33.628 -23.807 -16.029  0.00  0.00    +0.068 C 
ATOM      6  C   UNL     1      35.721 -22.486 -16.226  0.00  0.00    +0.068 C 
ATOM      7  H   UNL     1      33.603 -21.671 -17.610  0.00  0.00    -0.080 HD
ENDROOT
BRANCH   2   8
ATOM      8  C   UNL     1      35.442 -24.142 -14.404  0.00  0.00    +0.048 C 
ATOM      9  C   UNL     1      36.743 -24.667 -14.170  0.00  0.00    +0.013 C 
ATOM     10  C   UNL     1      34.526 -24.123 -13.329  0.00  0.00    +0.015 C 
ATOM     11  C   UNL     1      37.101 -25.156 -12.892  0.00  0.00    +0.001 C 
ATOM     12  C   UNL     1      37.687 -24.706 -15.209  0.00  0.00    +0.001 C 
ATOM     13  C   UNL     1      34.878 -24.604 -12.071  0.00  0.00    +0.001 C 
ATOM     14  C   UNL     1      36.157 -25.116 -11.853  0.00  0.00    +0.000 C 
ATOM     15  C   UNL     1      38.392 -25.669 -12.689  0.00  0.00    +0.000 C 
ATOM     16  C   UNL     1      38.966 -25.219 -14.990  0.00  0.00    +0.000 C 
ATOM     17  C   UNL     1      39.318 -25.701 -13.733  0.00  0.00    +0.000 C 
ENDBRANCH   2   8
BRANCH   1  18
ATOM     18  C   UNL     1      33.855 -22.353 -19.503  0.00  0.00    -0.077 C 
BRANCH  18  19
ATOM     19  C   UNL     1      32.825 -21.268 -19.809  0.00  0.00    -0.019 C 
BRANCH  19  20
ATOM     20  C   UNL     1      33.379 -20.243 -20.797  0.00  0.00    +0.045 C 
BRANCH  20  21
ATOM     21  C   UNL     1      34.885 -20.388 -20.972  0.00  0.00    +0.208 C 
BRANCH  21  22
ATOM     22  O   UNL     1      35.485 -19.104 -21.072  0.00  0.00    -0.452 OA
BRANCH  22  28
ATOM     23  O   UNL     1      34.083 -12.727 -23.540  0.00  0.00    -0.275 OA
ATOM     24  N   UNL     1      34.585 -14.837 -22.786  0.00  0.00    -0.263 N 
ATOM     25  N   UNL     1      35.036 -16.996 -21.931  0.00  0.00    -0.357 NA
ATOM     26  C   UNL     1      34.384 -16.750 -24.245  0.00  0.00    +0.090 C 
ATOM     27  C   UNL     1      34.091 -15.832 -25.393  0.00  0.00    +0.022 C 
ATOM     28  C   UNL     1      35.115 -18.329 -22.141  0.00  0.00    +0.278 C 
ATOM     29  C   UNL     1      34.662 -16.229 -22.982  0.00  0.00    +0.170 C 
ATOM     30  C   UNL     1      33.394 -14.570 -24.911  0.00  0.00    +0.086 C 
ATOM     31  C   UNL     1      34.491 -18.130 -24.423  0.00  0.00    -0.012 C 
ATOM     32  C   UNL     1      34.853 -18.940 -23.354  0.00  0.00    +0.068 C 
ATOM     33  C   UNL     1      34.076 -13.946 -23.711  0.00  0.00    +0.228 C 
ATOM     34  H   UNL     1      34.915 -14.475 -21.932  0.00  0.00    +0.157 HD
ENDBRANCH  22  28
ENDBRANCH  21  22
ENDBRANCH  20  21
ENDBRANCH  19  20
ENDBRANCH  18  19
ENDBRANCH   1  18
TORSDOF 7
ENDMDL
MODEL 7
REMARK VINA RESULT:     -11.3      4.146     12.016
REMARK  Name = 11697676
REMARK  7 active torsions:
REMARK  status: ('A' for Active; 'I' for Inactive)
REMARK    1  A    between atoms: N_1  and  C_18
REMARK    2  A    between atoms: N_2  and  C_8
REMARK    3  A    between atoms: C_18  and  C_19
REMARK    4  A    between atoms: C_19  and  C_20
REMARK    5  A    between atoms: C_20  and  C_21
REMARK    6  A    between atoms: C_21  and  O_22
REMARK    7  A    between atoms: O_22  and  C_28
REMARK                            x       y       z     vdW  Elec       q    Type
REMARK                         _______ _______ _______ _____ _____    ______ ____
ROOT
ATOM      1  N   UNL     1      34.440 -16.250 -24.676  0.00  0.00    +0.389 N 
ATOM      2  N   UNL     1      35.039 -18.179 -22.657  0.00  0.00    -0.312 N 
ATOM      3  C   UNL     1      34.564 -15.840 -23.272  0.00  0.00    -0.055 C 
ATOM      4  C   UNL     1      33.881 -17.606 -24.754  0.00  0.00    -0.055 C 
ATOM      5  C   UNL     1      35.486 -16.789 -22.503  0.00  0.00    +0.068 C 
ATOM      6  C   UNL     1      34.780 -18.613 -24.032  0.00  0.00    +0.068 C 
ATOM      7  H   UNL     1      35.367 -16.251 -25.102  0.00  0.00    -0.080 HD
ENDROOT
BRANCH   2   8
ATOM      8  C   UNL     1      35.455 -19.113 -21.701  0.00  0.00    +0.048 C 
ATOM      9  C   UNL     1      34.552 -19.989 -21.036  0.00  0.00    +0.013 C 
ATOM     10  C   UNL     1      36.826 -19.195 -21.377  0.00  0.00    +0.015 C 
ATOM     11  C   UNL     1      35.025 -20.915 -20.077  0.00  0.00    +0.001 C 
ATOM     12  C   UNL     1      33.179 -19.943 -21.327  0.00  0.00    +0.001 C 
ATOM     13  C   UNL     1      37.293 -20.107 -20.433  0.00  0.00    +0.001 C 
ATOM     14  C   UNL     1      36.399 -20.962 -19.788  0.00  0.00    +0.000 C 
ATOM     15  C   UNL     1      34.113 -21.768 -19.437  0.00  0.00    +0.000 C 
ATOM     16  C   UNL     1      32.285 -20.798 -20.681  0.00  0.00    +0.000 C 
ATOM     17  C   UNL     1      32.751 -21.709 -19.737  0.00  0.00    +0.000 C 
ENDBRANCH   2   8
BRANCH   1  18
ATOM     18  C   UNL     1      33.601 -15.306 -25.414  0.00  0.00    -0.077 C 
BRANCH  18  19
ATOM     19  C   UNL     1      33.238 -14.115 -24.529  0.00  0.00    -0.019 C 
BRANCH  19  20
ATOM     20  C   UNL     1      33.647 -12.796 -25.183  0.00  0.00    +0.045 C 
BRANCH  20  21
ATOM     21  C   UNL     1      34.130 -11.784 -24.153  0.00  0.00    +0.208 C 
BRANCH  21  22
ATOM     22  O   UNL     1      33.075 -10.891 -23.822  0.00  0.00    -0.452 OA
BRANCH  22  28
ATOM     23  O   UNL     1      30.426  -4.448 -24.266  0.00  0.00    -0.275 OA
ATOM     24  N   UNL     1      31.351  -6.543 -24.080  0.00  0.00    -0.263 N 
ATOM     25  N   UNL     1      32.232  -8.734 -23.953  0.00  0.00    -0.357 NA
ATOM     26  C   UNL     1      33.706  -6.892 -24.481  0.00  0.00    +0.090 C 
ATOM     27  C   UNL     1      33.895  -5.410 -24.607  0.00  0.00    +0.022 C 
ATOM     28  C   UNL     1      33.300  -9.558 -24.046  0.00  0.00    +0.278 C 
ATOM     29  C   UNL     1      32.449  -7.417 -24.182  0.00  0.00    +0.170 C 
ATOM     30  C   UNL     1      32.637  -4.749 -25.145  0.00  0.00    +0.086 C 
ATOM     31  C   UNL     1      34.784  -7.775 -24.553  0.00  0.00    -0.012 C 
ATOM     32  C   UNL     1      34.583  -9.133 -24.342  0.00  0.00    +0.068 C 
ATOM     33  C   UNL     1      31.383  -5.207 -24.430  0.00  0.00    +0.228 C 
ATOM     34  H   UNL     1      30.504  -6.907 -23.736  0.00  0.00    +0.157 HD
ENDBRANCH  22  28
ENDBRANCH  21  22
ENDBRANCH  20  21
ENDBRANCH  19  20
ENDBRANCH  18  19
ENDBRANCH   1  18
TORSDOF 7
ENDMDL
MODEL 8
REMARK VINA RESULT:     -11.3      3.976      7.506
REMARK  Name = 11697676
REMARK  7 active torsions:
REMARK  status: ('A' for Active; 'I' for Inactive)
REMARK    1  A    between atoms: N_1  and  C_18
REMARK    2  A    between atoms: N_2  and  C_8
REMARK    3  A    between atoms: C_18  and  C_19
REMARK    4  A    between atoms: C_19  and  C_20
REMARK    5  A    between atoms: C_20  and  C_21
REMARK    6  A    between atoms: C_21  and  O_22
REMARK    7  A    between atoms: O_22  and  C_28
REMARK                            x       y       z     vdW  Elec       q    Type
REMARK                         _______ _______ _______ _____ _____    ______ ____
ROOT
ATOM      1  N   UNL     1      32.011  -9.341 -21.532  0.00  0.00    +0.389 N 
ATOM      2  N   UNL     1      32.867  -7.329 -23.369  0.00  0.00    -0.312 N 
ATOM      3  C   UNL     1      31.392  -9.236 -22.859  0.00  0.00    -0.055 C 
ATOM      4  C   UNL     1      32.389  -8.007 -21.050  0.00  0.00    -0.055 C 
ATOM      5  C   UNL     1      32.359  -8.612 -23.868  0.00  0.00    +0.068 C 
ATOM      6  C   UNL     1      33.389  -7.342 -21.999  0.00  0.00    +0.068 C 
ATOM      7  H   UNL     1      32.851  -9.916 -21.605  0.00  0.00    -0.080 HD
ENDROOT
BRANCH   2   8
ATOM      8  C   UNL     1      33.383  -6.419 -24.299  0.00  0.00    +0.048 C 
ATOM      9  C   UNL     1      32.673  -5.260 -24.719  0.00  0.00    +0.013 C 
ATOM     10  C   UNL     1      34.662  -6.656 -24.849  0.00  0.00    +0.015 C 
ATOM     11  C   UNL     1      33.241  -4.373 -25.664  0.00  0.00    +0.001 C 
ATOM     12  C   UNL     1      31.397  -4.985 -24.200  0.00  0.00    +0.001 C 
ATOM     13  C   UNL     1      35.222  -5.782 -25.778  0.00  0.00    +0.001 C 
ATOM     14  C   UNL     1      34.517  -4.649 -26.183  0.00  0.00    +0.000 C 
ATOM     15  C   UNL     1      32.518  -3.237 -26.061  0.00  0.00    +0.000 C 
ATOM     16  C   UNL     1      30.693  -3.851 -24.605  0.00  0.00    +0.000 C 
ATOM     17  C   UNL     1      31.252  -2.979 -25.535  0.00  0.00    +0.000 C 
ENDBRANCH   2   8
BRANCH   1  18
ATOM     18  C   UNL     1      31.098  -9.988 -20.590  0.00  0.00    -0.077 C 
BRANCH  18  19
ATOM     19  C   UNL     1      30.615 -11.324 -21.151  0.00  0.00    -0.019 C 
BRANCH  19  20
ATOM     20  C   UNL     1      31.720 -12.378 -21.095  0.00  0.00    +0.045 C 
BRANCH  20  21
ATOM     21  C   UNL     1      32.119 -12.849 -22.487  0.00  0.00    +0.208 C 
BRANCH  21  22
ATOM     22  O   UNL     1      33.518 -13.088 -22.532  0.00  0.00    -0.452 OA
BRANCH  22  28
ATOM     23  O   UNL     1      36.113 -19.284 -20.631  0.00  0.00    -0.275 OA
ATOM     24  N   UNL     1      35.210 -17.279 -21.295  0.00  0.00    -0.263 N 
ATOM     25  N   UNL     1      34.356 -15.167 -21.931  0.00  0.00    -0.357 NA
ATOM     26  C   UNL     1      34.727 -16.854 -23.622  0.00  0.00    +0.090 C 
ATOM     27  C   UNL     1      35.080 -18.274 -23.946  0.00  0.00    +0.022 C 
ATOM     28  C   UNL     1      33.920 -14.343 -22.911  0.00  0.00    +0.278 C 
ATOM     29  C   UNL     1      34.762 -16.404 -22.303  0.00  0.00    +0.170 C 
ATOM     30  C   UNL     1      36.128 -18.803 -22.980  0.00  0.00    +0.086 C 
ATOM     31  C   UNL     1      34.256 -15.977 -24.600  0.00  0.00    -0.012 C 
ATOM     32  C   UNL     1      33.853 -14.696 -24.246  0.00  0.00    +0.068 C 
ATOM     33  C   UNL     1      35.793 -18.509 -21.533  0.00  0.00    +0.228 C 
ATOM     34  H   UNL     1      35.100 -16.996 -20.359  0.00  0.00    +0.157 HD
ENDBRANCH  22  28
ENDBRANCH  21  22
ENDBRANCH  20  21
ENDBRANCH  19  20
ENDBRANCH  18  19
ENDBRANCH   1  18
TORSDOF 7
ENDMDL
MODEL 9
REMARK VINA RESULT:     -11.2      3.977      7.561
REMARK  Name = 11697676
REMARK  7 active torsions:
REMARK  status: ('A' for Active; 'I' for Inactive)
REMARK    1  A    between atoms: N_1  and  C_18
REMARK    2  A    between atoms: N_2  and  C_8
REMARK    3  A    between atoms: C_18  and  C_19
REMARK    4  A    between atoms: C_19  and  C_20
REMARK    5  A    between atoms: C_20  and  C_21
REMARK    6  A    between atoms: C_21  and  O_22
REMARK    7  A    between atoms: O_22  and  C_28
REMARK                            x       y       z     vdW  Elec       q    Type
REMARK                         _______ _______ _______ _____ _____    ______ ____
ROOT
ATOM      1  N   UNL     1      31.580  -9.125 -21.008  0.00  0.00    +0.389 N 
ATOM      2  N   UNL     1      31.916  -7.085 -22.979  0.00  0.00    -0.312 N 
ATOM      3  C   UNL     1      32.689  -8.168 -20.905  0.00  0.00    -0.055 C 
ATOM      4  C   UNL     1      31.289  -9.400 -22.421  0.00  0.00    -0.055 C 
ATOM      5  C   UNL     1      32.340  -6.847 -21.594  0.00  0.00    +0.068 C 
ATOM      6  C   UNL     1      30.894  -8.119 -23.160  0.00  0.00    +0.068 C 
ATOM      7  H   UNL     1      30.752  -8.717 -20.574  0.00  0.00    -0.080 HD
ENDROOT
BRANCH   2   8
ATOM      8  C   UNL     1      31.992  -6.018 -23.882  0.00  0.00    +0.048 C 
ATOM      9  C   UNL     1      33.133  -5.780 -24.699  0.00  0.00    +0.013 C 
ATOM     10  C   UNL     1      30.895  -5.137 -23.993  0.00  0.00    +0.015 C 
ATOM     11  C   UNL     1      33.158  -4.686 -25.595  0.00  0.00    +0.001 C 
ATOM     12  C   UNL     1      34.248  -6.630 -24.621  0.00  0.00    +0.001 C 
ATOM     13  C   UNL     1      30.919  -4.061 -24.876  0.00  0.00    +0.001 C 
ATOM     14  C   UNL     1      32.042  -3.836 -25.672  0.00  0.00    +0.000 C 
ATOM     15  C   UNL     1      34.296  -4.474 -26.389  0.00  0.00    +0.000 C 
ATOM     16  C   UNL     1      35.371  -6.405 -25.418  0.00  0.00    +0.000 C 
ATOM     17  C   UNL     1      35.395  -5.329 -26.300  0.00  0.00    +0.000 C 
ENDBRANCH   2   8
BRANCH   1  18
ATOM     18  C   UNL     1      31.904 -10.363 -20.300  0.00  0.00    -0.077 C 
BRANCH  18  19
ATOM     19  C   UNL     1      31.068 -11.520 -20.846  0.00  0.00    -0.019 C 
BRANCH  19  20
ATOM     20  C   UNL     1      31.924 -12.767 -21.061  0.00  0.00    +0.045 C 
BRANCH  20  21
ATOM     21  C   UNL     1      32.246 -12.982 -22.533  0.00  0.00    +0.208 C 
BRANCH  21  22
ATOM     22  O   UNL     1      33.635 -13.231 -22.692  0.00  0.00    -0.452 OA
BRANCH  22  28
ATOM     23  O   UNL     1      36.160 -19.393 -20.599  0.00  0.00    -0.275 OA
ATOM     24  N   UNL     1      35.278 -17.399 -21.323  0.00  0.00    -0.263 N 
ATOM     25  N   UNL     1      34.448 -15.299 -22.026  0.00  0.00    -0.357 NA
ATOM     26  C   UNL     1      34.737 -17.063 -23.652  0.00  0.00    +0.090 C 
ATOM     27  C   UNL     1      35.053 -18.503 -23.924  0.00  0.00    +0.022 C 
ATOM     28  C   UNL     1      34.001 -14.509 -23.027  0.00  0.00    +0.278 C 
ATOM     29  C   UNL     1      34.819 -16.559 -22.355  0.00  0.00    +0.170 C 
ATOM     30  C   UNL     1      36.117 -19.013 -22.966  0.00  0.00    +0.086 C 
ATOM     31  C   UNL     1      34.256 -16.219 -24.654  0.00  0.00    -0.012 C 
ATOM     32  C   UNL     1      33.889 -14.916 -24.344  0.00  0.00    +0.068 C 
ATOM     33  C   UNL     1      35.830 -18.650 -21.524  0.00  0.00    +0.228 C 
ATOM     34  H   UNL     1      35.201 -17.075 -20.397  0.00  0.00    +0.157 HD
ENDBRANCH  22  28
ENDBRANCH  21  22
ENDBRANCH  20  21
ENDBRANCH  19  20
ENDBRANCH  18  19
ENDBRANCH   1  18
TORSDOF 7
ENDMDL
