MODEL 1
REMARK VINA RESULT:     -11.9      0.000      0.000
REMARK  Name = 49866474
REMARK  7 active torsions:
REMARK  status: ('A' for Active; 'I' for Inactive)
REMARK    1  A    between atoms: O_1  and  C_3
REMARK    2  A    between atoms: O_1  and  C_18
REMARK    3  A    between atoms: C_4  and  C_10
REMARK    4  A    between atoms: C_18  and  C_19
REMARK    5  A    between atoms: C_19  and  N_20
REMARK    6  A    between atoms: C_19  and  C_24
REMARK    7  A    between atoms: C_24  and  C_26
REMARK                            x       y       z     vdW  Elec       q    Type
REMARK                         _______ _______ _______ _____ _____    ______ ____
ROOT
ATOM      1  O   UNL     1      35.240 -15.300 -23.442  0.00  0.00    -0.476 OA
ENDROOT
BRANCH   1   3
ATOM      2  N   UNL     1      34.153 -18.447 -24.958  0.00  0.00    -0.239 NA
ATOM      3  C   UNL     1      34.937 -16.630 -23.569  0.00  0.00    +0.158 C 
ATOM      4  C   UNL     1      34.777 -18.851 -22.657  0.00  0.00    +0.022 C 
ATOM      5  C   UNL     1      35.092 -17.505 -22.499  0.00  0.00    +0.040 C 
ATOM      6  C   UNL     1      34.469 -17.147 -24.766  0.00  0.00    +0.136 C 
ATOM      7  C   UNL     1      34.316 -19.268 -23.896  0.00  0.00    +0.099 C 
BRANCH   4  10
ATOM      8  N   UNL     1      35.066 -22.464 -18.470  0.00  0.00    -0.236 N 
ATOM      9  N   UNL     1      33.788 -22.823 -18.262  0.00  0.00    -0.180 NA
ATOM     10  C   UNL     1      34.928 -19.784 -21.566  0.00  0.00    +0.002 C 
ATOM     11  C   UNL     1      33.959 -21.311 -19.970  0.00  0.00    +0.035 C 
ATOM     12  C   UNL     1      33.792 -20.408 -21.032  0.00  0.00    +0.003 C 
ATOM     13  C   UNL     1      35.237 -21.558 -19.481  0.00  0.00    +0.067 C 
ATOM     14  C   UNL     1      36.199 -20.051 -21.056  0.00  0.00    +0.001 C 
ATOM     15  C   UNL     1      36.381 -20.948 -19.998  0.00  0.00    +0.016 C 
ATOM     16  C   UNL     1      33.118 -22.120 -19.176  0.00  0.00    +0.119 C 
ATOM     17  H   UNL     1      35.815 -22.822 -17.940  0.00  0.00    +0.174 HD
ENDBRANCH   4  10
ENDBRANCH   1   3
BRANCH   1  18
ATOM     18  C   UNL     1      34.198 -14.444 -22.994  0.00  0.00    +0.184 C 
BRANCH  18  19
ATOM     19  C   UNL     1      33.779 -13.479 -24.109  0.00  0.00    -0.017 C 
BRANCH  19  20
ATOM     20  N   UNL     1      32.713 -14.114 -24.890  0.00  0.00    +0.384 N 
ATOM     21  H   UNL     1      31.824 -13.659 -24.685  0.00  0.00    -0.089 HD
ATOM     22  H   UNL     1      32.655 -15.102 -24.645  0.00  0.00    -0.089 HD
ATOM     23  H   UNL     1      32.920 -14.022 -25.885  0.00  0.00    -0.089 HD
ENDBRANCH  19  20
BRANCH  19  24
ATOM     24  C   UNL     1      33.272 -12.117 -23.576  0.00  0.00    +0.006 C 
BRANCH  24  26
ATOM     25  N   UNL     1      35.111  -9.888 -25.977  0.00  0.00    -0.234 NA
ATOM     26  C   UNL     1      33.705 -10.948 -24.365  0.00  0.00    -0.024 C 
ATOM     27  C   UNL     1      33.587  -9.630 -24.201  0.00  0.00    +0.065 C 
ATOM     28  C   UNL     1      34.293  -8.869 -25.287  0.00  0.00    +0.122 C 
ATOM     29  C   UNL     1      34.672 -11.003 -25.469  0.00  0.00    +0.072 C 
ATOM     30  C   UNL     1      33.047  -8.886 -23.092  0.00  0.00    -0.020 C 
ATOM     31  C   UNL     1      35.073  -7.708 -24.736  0.00  0.00    -0.004 C 
ATOM     32  C   UNL     1      33.578  -7.682 -22.808  0.00  0.00    -0.004 C 
ATOM     33  C   UNL     1      34.700  -7.150 -23.569  0.00  0.00    -0.003 C 
ENDBRANCH  24  26
ENDBRANCH  19  24
ENDBRANCH  18  19
ENDBRANCH   1  18
TORSDOF 7
ENDMDL
MODEL 2
REMARK VINA RESULT:     -11.8      2.086      3.237
REMARK  Name = 49866474
REMARK  7 active torsions:
REMARK  status: ('A' for Active; 'I' for Inactive)
REMARK    1  A    between atoms: O_1  and  C_3
REMARK    2  A    between atoms: O_1  and  C_18
REMARK    3  A    between atoms: C_4  and  C_10
REMARK    4  A    between atoms: C_18  and  C_19
REMARK    5  A    between atoms: C_19  and  N_20
REMARK    6  A    between atoms: C_19  and  C_24
REMARK    7  A    between atoms: C_24  and  C_26
REMARK                            x       y       z     vdW  Elec       q    Type
REMARK                         _______ _______ _______ _____ _____    ______ ____
ROOT
ATOM      1  O   UNL     1      34.233 -13.452 -23.635  0.00  0.00    -0.476 OA
ENDROOT
BRANCH   1   3
ATOM      2  N   UNL     1      33.810 -16.522 -25.580  0.00  0.00    -0.239 NA
ATOM      3  C   UNL     1      34.249 -14.784 -23.957  0.00  0.00    +0.158 C 
ATOM      4  C   UNL     1      34.703 -17.080 -23.403  0.00  0.00    +0.022 C 
ATOM      5  C   UNL     1      34.697 -15.735 -23.048  0.00  0.00    +0.040 C 
ATOM      6  C   UNL     1      33.819 -15.225 -25.198  0.00  0.00    +0.136 C 
ATOM      7  C   UNL     1      34.253 -17.418 -24.669  0.00  0.00    +0.099 C 
BRANCH   4  10
ATOM      8  N   UNL     1      36.196 -21.055 -19.846  0.00  0.00    -0.236 N 
ATOM      9  N   UNL     1      35.048 -21.701 -19.580  0.00  0.00    -0.180 NA
ATOM     10  C   UNL     1      35.163 -18.092 -22.481  0.00  0.00    +0.002 C 
ATOM     11  C   UNL     1      34.713 -19.980 -21.051  0.00  0.00    +0.035 C 
ATOM     12  C   UNL     1      34.245 -19.006 -21.947  0.00  0.00    +0.003 C 
ATOM     13  C   UNL     1      36.063 -20.011 -20.722  0.00  0.00    +0.067 C 
ATOM     14  C   UNL     1      36.513 -18.146 -22.133  0.00  0.00    +0.001 C 
ATOM     15  C   UNL     1      36.994 -19.110 -21.242  0.00  0.00    +0.016 C 
ATOM     16  C   UNL     1      34.149 -21.045 -20.315  0.00  0.00    +0.119 C 
ATOM     17  H   UNL     1      37.059 -21.310 -19.446  0.00  0.00    +0.174 HD
ENDBRANCH   4  10
ENDBRANCH   1   3
BRANCH   1  18
ATOM     18  C   UNL     1      33.715 -12.561 -24.615  0.00  0.00    +0.184 C 
BRANCH  18  19
ATOM     19  C   UNL     1      34.114 -11.117 -24.291  0.00  0.00    -0.017 C 
BRANCH  19  20
ATOM     20  N   UNL     1      35.215 -10.734 -25.181  0.00  0.00    +0.384 N 
ATOM     21  H   UNL     1      35.092  -9.765 -25.476  0.00  0.00    -0.089 HD
ATOM     22  H   UNL     1      35.217 -11.342 -25.999  0.00  0.00    -0.089 HD
ATOM     23  H   UNL     1      36.101 -10.828 -24.685  0.00  0.00    -0.089 HD
ENDBRANCH  19  20
BRANCH  19  24
ATOM     24  C   UNL     1      32.951 -10.110 -24.464  0.00  0.00    +0.006 C 
BRANCH  24  26
ATOM     25  N   UNL     1      32.557  -7.878 -21.468  0.00  0.00    -0.234 NA
ATOM     26  C   UNL     1      32.464  -9.510 -23.208  0.00  0.00    -0.024 C 
ATOM     27  C   UNL     1      31.757  -9.975 -22.178  0.00  0.00    +0.065 C 
ATOM     28  C   UNL     1      31.601  -8.942 -21.098  0.00  0.00    +0.122 C 
ATOM     29  C   UNL     1      32.924  -8.224 -22.668  0.00  0.00    +0.072 C 
ATOM     30  C   UNL     1      31.293 -11.312 -21.909  0.00  0.00    -0.020 C 
ATOM     31  C   UNL     1      31.816  -9.529 -19.732  0.00  0.00    -0.004 C 
ATOM     32  C   UNL     1      31.203 -11.714 -20.627  0.00  0.00    -0.004 C 
ATOM     33  C   UNL     1      31.600 -10.842 -19.530  0.00  0.00    -0.003 C 
ENDBRANCH  24  26
ENDBRANCH  19  24
ENDBRANCH  18  19
ENDBRANCH   1  18
TORSDOF 7
ENDMDL
MODEL 3
REMARK VINA RESULT:     -11.8      1.729      2.261
REMARK  Name = 49866474
REMARK  7 active torsions:
REMARK  status: ('A' for Active; 'I' for Inactive)
REMARK    1  A    between atoms: O_1  and  C_3
REMARK    2  A    between atoms: O_1  and  C_18
REMARK    3  A    between atoms: C_4  and  C_10
REMARK    4  A    between atoms: C_18  and  C_19
REMARK    5  A    between atoms: C_19  and  N_20
REMARK    6  A    between atoms: C_19  and  C_24
REMARK    7  A    between atoms: C_24  and  C_26
REMARK                            x       y       z     vdW  Elec       q    Type
REMARK                         _______ _______ _______ _____ _____    ______ ____
ROOT
ATOM      1  O   UNL     1      35.038 -15.270 -23.369  0.00  0.00    -0.476 OA
ENDROOT
BRANCH   1   3
ATOM      2  N   UNL     1      34.337 -18.474 -24.991  0.00  0.00    -0.239 NA
ATOM      3  C   UNL     1      34.857 -16.619 -23.530  0.00  0.00    +0.158 C 
ATOM      4  C   UNL     1      34.809 -18.858 -22.651  0.00  0.00    +0.022 C 
ATOM      5  C   UNL     1      34.998 -17.494 -22.458  0.00  0.00    +0.040 C 
ATOM      6  C   UNL     1      34.528 -17.155 -24.765  0.00  0.00    +0.136 C 
ATOM      7  C   UNL     1      34.483 -19.294 -23.925  0.00  0.00    +0.099 C 
BRANCH   4  10
ATOM      8  N   UNL     1      35.059 -22.472 -18.462  0.00  0.00    -0.236 N 
ATOM      9  N   UNL     1      33.780 -22.833 -18.267  0.00  0.00    -0.180 NA
ATOM     10  C   UNL     1      34.949 -19.791 -21.558  0.00  0.00    +0.002 C 
ATOM     11  C   UNL     1      33.966 -21.320 -19.973  0.00  0.00    +0.035 C 
ATOM     12  C   UNL     1      33.809 -20.417 -21.037  0.00  0.00    +0.003 C 
ATOM     13  C   UNL     1      35.240 -21.566 -19.471  0.00  0.00    +0.067 C 
ATOM     14  C   UNL     1      36.215 -20.057 -21.035  0.00  0.00    +0.001 C 
ATOM     15  C   UNL     1      36.388 -20.953 -19.976  0.00  0.00    +0.016 C 
ATOM     16  C   UNL     1      33.118 -22.131 -19.188  0.00  0.00    +0.119 C 
ATOM     17  H   UNL     1      35.803 -22.829 -17.924  0.00  0.00    +0.174 HD
ENDBRANCH   4  10
ENDBRANCH   1   3
BRANCH   1  18
ATOM     18  C   UNL     1      34.163 -14.608 -22.465  0.00  0.00    +0.184 C 
BRANCH  18  19
ATOM     19  C   UNL     1      33.338 -13.545 -23.200  0.00  0.00    -0.017 C 
BRANCH  19  20
ATOM     20  N   UNL     1      32.788 -14.150 -24.416  0.00  0.00    +0.384 N 
ATOM     21  H   UNL     1      32.714 -15.160 -24.291  0.00  0.00    -0.089 HD
ATOM     22  H   UNL     1      33.402 -13.950 -25.204  0.00  0.00    -0.089 HD
ATOM     23  H   UNL     1      31.862 -13.763 -24.600  0.00  0.00    -0.089 HD
ENDBRANCH  19  20
BRANCH  19  24
ATOM     24  C   UNL     1      32.176 -12.980 -22.347  0.00  0.00    +0.006 C 
BRANCH  24  26
ATOM     25  N   UNL     1      32.595  -9.365 -23.280  0.00  0.00    -0.234 NA
ATOM     26  C   UNL     1      32.003 -11.518 -22.435  0.00  0.00    -0.024 C 
ATOM     27  C   UNL     1      31.461 -10.604 -21.631  0.00  0.00    +0.065 C 
ATOM     28  C   UNL     1      31.622  -9.214 -22.179  0.00  0.00    +0.122 C 
ATOM     29  C   UNL     1      32.689 -10.657 -23.408  0.00  0.00    +0.072 C 
ATOM     30  C   UNL     1      30.920 -10.751 -20.303  0.00  0.00    -0.020 C 
ATOM     31  C   UNL     1      32.031  -8.239 -21.111  0.00  0.00    -0.004 C 
ATOM     32  C   UNL     1      31.035  -9.719 -19.446  0.00  0.00    -0.004 C 
ATOM     33  C   UNL     1      31.723  -8.492 -19.825  0.00  0.00    -0.003 C 
ENDBRANCH  24  26
ENDBRANCH  19  24
ENDBRANCH  18  19
ENDBRANCH   1  18
TORSDOF 7
ENDMDL
MODEL 4
REMARK VINA RESULT:     -11.7      2.140     10.482
REMARK  Name = 49866474
REMARK  7 active torsions:
REMARK  status: ('A' for Active; 'I' for Inactive)
REMARK    1  A    between atoms: O_1  and  C_3
REMARK    2  A    between atoms: O_1  and  C_18
REMARK    3  A    between atoms: C_4  and  C_10
REMARK    4  A    between atoms: C_18  and  C_19
REMARK    5  A    between atoms: C_19  and  N_20
REMARK    6  A    between atoms: C_19  and  C_24
REMARK    7  A    between atoms: C_24  and  C_26
REMARK                            x       y       z     vdW  Elec       q    Type
REMARK                         _______ _______ _______ _____ _____    ______ ____
ROOT
ATOM      1  O   UNL     1      35.718 -17.025 -22.904  0.00  0.00    -0.476 OA
ENDROOT
BRANCH   1   3
ATOM      2  N   UNL     1      33.761 -15.716 -25.704  0.00  0.00    -0.239 NA
ATOM      3  C   UNL     1      34.890 -16.202 -23.622  0.00  0.00    +0.158 C 
ATOM      4  C   UNL     1      33.506 -14.243 -23.803  0.00  0.00    +0.022 C 
ATOM      5  C   UNL     1      34.344 -15.059 -23.050  0.00  0.00    +0.040 C 
ATOM      6  C   UNL     1      34.571 -16.483 -24.941  0.00  0.00    +0.136 C 
ATOM      7  C   UNL     1      33.248 -14.613 -25.113  0.00  0.00    +0.099 C 
BRANCH   4  10
ATOM      8  N   UNL     1      31.407  -9.511 -21.833  0.00  0.00    -0.236 N 
ATOM      9  N   UNL     1      31.901  -8.570 -22.655  0.00  0.00    -0.180 NA
ATOM     10  C   UNL     1      32.923 -13.050 -23.237  0.00  0.00    +0.002 C 
ATOM     11  C   UNL     1      32.623 -10.657 -23.253  0.00  0.00    +0.035 C 
ATOM     12  C   UNL     1      33.198 -11.806 -23.820  0.00  0.00    +0.003 C 
ATOM     13  C   UNL     1      31.802 -10.785 -22.138  0.00  0.00    +0.067 C 
ATOM     14  C   UNL     1      32.095 -13.150 -22.118  0.00  0.00    +0.001 C 
ATOM     15  C   UNL     1      31.515 -12.015 -21.542  0.00  0.00    +0.016 C 
ATOM     16  C   UNL     1      32.640  -9.271 -23.517  0.00  0.00    +0.119 C 
ATOM     17  H   UNL     1      30.811  -9.302 -21.078  0.00  0.00    +0.174 HD
ENDBRANCH   4  10
ENDBRANCH   1   3
BRANCH   1  18
ATOM     18  C   UNL     1      35.667 -18.412 -23.210  0.00  0.00    +0.184 C 
BRANCH  18  19
ATOM     19  C   UNL     1      35.657 -19.245 -21.923  0.00  0.00    -0.017 C 
BRANCH  19  20
ATOM     20  N   UNL     1      36.623 -18.659 -20.989  0.00  0.00    +0.384 N 
ATOM     21  H   UNL     1      37.564 -18.744 -21.374  0.00  0.00    -0.089 HD
ATOM     22  H   UNL     1      36.574 -19.150 -20.097  0.00  0.00    -0.089 HD
ATOM     23  H   UNL     1      36.403 -17.673 -20.847  0.00  0.00    -0.089 HD
ENDBRANCH  19  20
BRANCH  19  24
ATOM     24  C   UNL     1      34.266 -19.298 -21.244  0.00  0.00    +0.006 C 
BRANCH  24  26
ATOM     25  N   UNL     1      32.491 -22.077 -19.444  0.00  0.00    -0.234 NA
ATOM     26  C   UNL     1      33.974 -20.561 -20.540  0.00  0.00    -0.024 C 
ATOM     27  C   UNL     1      34.716 -21.422 -19.844  0.00  0.00    +0.065 C 
ATOM     28  C   UNL     1      33.885 -22.531 -19.262  0.00  0.00    +0.122 C 
ATOM     29  C   UNL     1      32.623 -21.040 -20.219  0.00  0.00    +0.072 C 
ATOM     30  C   UNL     1      36.102 -21.340 -19.460  0.00  0.00    -0.020 C 
ATOM     31  C   UNL     1      34.268 -22.824 -17.839  0.00  0.00    -0.004 C 
ATOM     32  C   UNL     1      36.478 -21.896 -18.293  0.00  0.00    -0.004 C 
ATOM     33  C   UNL     1      35.510 -22.533 -17.410  0.00  0.00    -0.003 C 
ENDBRANCH  24  26
ENDBRANCH  19  24
ENDBRANCH  18  19
ENDBRANCH   1  18
TORSDOF 7
ENDMDL
MODEL 5
REMARK VINA RESULT:     -11.6      5.401     12.718
REMARK  Name = 49866474
REMARK  7 active torsions:
REMARK  status: ('A' for Active; 'I' for Inactive)
REMARK    1  A    between atoms: O_1  and  C_3
REMARK    2  A    between atoms: O_1  and  C_18
REMARK    3  A    between atoms: C_4  and  C_10
REMARK    4  A    between atoms: C_18  and  C_19
REMARK    5  A    between atoms: C_19  and  N_20
REMARK    6  A    between atoms: C_19  and  C_24
REMARK    7  A    between atoms: C_24  and  C_26
REMARK                            x       y       z     vdW  Elec       q    Type
REMARK                         _______ _______ _______ _____ _____    ______ ____
ROOT
ATOM      1  O   UNL     1      35.955 -22.715 -18.251  0.00  0.00    -0.476 OA
ENDROOT
BRANCH   1   3
ATOM      2  N   UNL     1      32.657 -21.913 -19.617  0.00  0.00    -0.239 NA
ATOM      3  C   UNL     1      34.990 -22.109 -19.012  0.00  0.00    +0.158 C 
ATOM      4  C   UNL     1      34.316 -20.510 -20.679  0.00  0.00    +0.022 C 
ATOM      5  C   UNL     1      35.317 -21.109 -19.922  0.00  0.00    +0.040 C 
ATOM      6  C   UNL     1      33.657 -22.471 -18.899  0.00  0.00    +0.136 C 
ATOM      7  C   UNL     1      33.014 -20.944 -20.491  0.00  0.00    +0.099 C 
BRANCH   4  10
ATOM      8  N   UNL     1      35.302 -16.633 -24.509  0.00  0.00    -0.236 N 
ATOM      9  N   UNL     1      34.452 -16.936 -25.504  0.00  0.00    -0.180 NA
ATOM     10  C   UNL     1      34.624 -19.470 -21.631  0.00  0.00    +0.002 C 
ATOM     11  C   UNL     1      34.250 -18.406 -23.762  0.00  0.00    +0.035 C 
ATOM     12  C   UNL     1      33.934 -19.425 -22.850  0.00  0.00    +0.003 C 
ATOM     13  C   UNL     1      35.231 -17.477 -23.434  0.00  0.00    +0.067 C 
ATOM     14  C   UNL     1      35.605 -18.525 -21.327  0.00  0.00    +0.001 C 
ATOM     15  C   UNL     1      35.931 -17.504 -22.226  0.00  0.00    +0.016 C 
ATOM     16  C   UNL     1      33.813 -18.014 -25.046  0.00  0.00    +0.119 C 
ATOM     17  H   UNL     1      35.923 -15.870 -24.549  0.00  0.00    +0.174 HD
ENDBRANCH   4  10
ENDBRANCH   1   3
BRANCH   1  18
ATOM     18  C   UNL     1      36.747 -21.871 -17.427  0.00  0.00    +0.184 C 
BRANCH  18  19
ATOM     19  C   UNL     1      36.792 -22.410 -15.993  0.00  0.00    -0.017 C 
BRANCH  19  20
ATOM     20  N   UNL     1      35.482 -22.992 -15.680  0.00  0.00    +0.384 N 
ATOM     21  H   UNL     1      35.564 -24.007 -15.631  0.00  0.00    -0.089 HD
ATOM     22  H   UNL     1      34.816 -22.738 -16.408  0.00  0.00    -0.089 HD
ATOM     23  H   UNL     1      35.157 -22.633 -14.782  0.00  0.00    -0.089 HD
ENDBRANCH  19  20
BRANCH  19  24
ATOM     24  C   UNL     1      37.885 -23.485 -15.780  0.00  0.00    +0.006 C 
BRANCH  24  26
ATOM     25  N   UNL     1      36.793 -26.499 -13.821  0.00  0.00    -0.234 NA
ATOM     26  C   UNL     1      37.615 -24.428 -14.679  0.00  0.00    -0.024 C 
ATOM     27  C   UNL     1      37.457 -24.287 -13.363  0.00  0.00    +0.065 C 
ATOM     28  C   UNL     1      37.116 -25.592 -12.700  0.00  0.00    +0.122 C 
ATOM     29  C   UNL     1      37.169 -25.816 -14.863  0.00  0.00    +0.072 C 
ATOM     30  C   UNL     1      37.408 -23.088 -12.565  0.00  0.00    -0.020 C 
ATOM     31  C   UNL     1      36.016 -25.431 -11.689  0.00  0.00    -0.004 C 
ATOM     32  C   UNL     1      36.630 -23.080 -11.466  0.00  0.00    -0.004 C 
ATOM     33  C   UNL     1      35.820 -24.235 -11.103  0.00  0.00    -0.003 C 
ENDBRANCH  24  26
ENDBRANCH  19  24
ENDBRANCH  18  19
ENDBRANCH   1  18
TORSDOF 7
ENDMDL
MODEL 6
REMARK VINA RESULT:     -11.5      3.256      5.926
REMARK  Name = 49866474
REMARK  7 active torsions:
REMARK  status: ('A' for Active; 'I' for Inactive)
REMARK    1  A    between atoms: O_1  and  C_3
REMARK    2  A    between atoms: O_1  and  C_18
REMARK    3  A    between atoms: C_4  and  C_10
REMARK    4  A    between atoms: C_18  and  C_19
REMARK    5  A    between atoms: C_19  and  N_20
REMARK    6  A    between atoms: C_19  and  C_24
REMARK    7  A    between atoms: C_24  and  C_26
REMARK                            x       y       z     vdW  Elec       q    Type
REMARK                         _______ _______ _______ _____ _____    ______ ____
ROOT
ATOM      1  O   UNL     1      34.008  -9.488 -25.356  0.00  0.00    -0.476 OA
ENDROOT
BRANCH   1   3
ATOM      2  N   UNL     1      33.207 -12.628 -27.053  0.00  0.00    -0.239 NA
ATOM      3  C   UNL     1      33.834 -10.831 -25.561  0.00  0.00    +0.158 C 
ATOM      4  C   UNL     1      33.907 -13.109 -24.789  0.00  0.00    +0.022 C 
ATOM      5  C   UNL     1      34.091 -11.751 -24.550  0.00  0.00    +0.040 C 
ATOM      6  C   UNL     1      33.398 -11.317 -26.784  0.00  0.00    +0.136 C 
ATOM      7  C   UNL     1      33.468 -13.492 -26.046  0.00  0.00    +0.099 C 
BRANCH   4  10
ATOM      8  N   UNL     1      34.978 -17.049 -21.047  0.00  0.00    -0.236 N 
ATOM      9  N   UNL     1      35.406 -18.088 -21.783  0.00  0.00    -0.180 NA
ATOM     10  C   UNL     1      34.166 -14.087 -23.760  0.00  0.00    +0.002 C 
ATOM     11  C   UNL     1      34.886 -16.293 -23.103  0.00  0.00    +0.035 C 
ATOM     12  C   UNL     1      34.643 -15.355 -24.119  0.00  0.00    +0.003 C 
ATOM     13  C   UNL     1      34.650 -15.940 -21.779  0.00  0.00    +0.067 C 
ATOM     14  C   UNL     1      33.937 -13.760 -22.423  0.00  0.00    +0.001 C 
ATOM     15  C   UNL     1      34.175 -14.683 -21.399  0.00  0.00    +0.016 C 
ATOM     16  C   UNL     1      35.349 -17.624 -23.032  0.00  0.00    +0.119 C 
ATOM     17  H   UNL     1      34.907 -17.082 -20.065  0.00  0.00    +0.174 HD
ENDBRANCH   4  10
ENDBRANCH   1   3
BRANCH   1  18
ATOM     18  C   UNL     1      34.941  -9.108 -24.353  0.00  0.00    +0.184 C 
BRANCH  18  19
ATOM     19  C   UNL     1      34.522  -7.783 -23.705  0.00  0.00    -0.017 C 
BRANCH  19  20
ATOM     20  N   UNL     1      35.017  -6.686 -24.543  0.00  0.00    +0.384 N 
ATOM     21  H   UNL     1      34.632  -6.775 -25.483  0.00  0.00    -0.089 HD
ATOM     22  H   UNL     1      36.035  -6.725 -24.587  0.00  0.00    -0.089 HD
ATOM     23  H   UNL     1      34.728  -5.794 -24.141  0.00  0.00    -0.089 HD
ENDBRANCH  19  20
BRANCH  19  24
ATOM     24  C   UNL     1      32.988  -7.642 -23.544  0.00  0.00    +0.006 C 
BRANCH  24  26
ATOM     25  N   UNL     1      32.510  -7.967 -19.832  0.00  0.00    -0.234 NA
ATOM     26  C   UNL     1      32.471  -8.030 -22.218  0.00  0.00    -0.024 C 
ATOM     27  C   UNL     1      31.753  -9.061 -21.774  0.00  0.00    +0.065 C 
ATOM     28  C   UNL     1      31.563  -9.007 -20.285  0.00  0.00    +0.122 C 
ATOM     29  C   UNL     1      32.904  -7.428 -20.950  0.00  0.00    +0.072 C 
ATOM     30  C   UNL     1      31.304 -10.238 -22.473  0.00  0.00    -0.020 C 
ATOM     31  C   UNL     1      31.763 -10.355 -19.650  0.00  0.00    -0.004 C 
ATOM     32  C   UNL     1      31.197 -11.390 -21.786  0.00  0.00    -0.004 C 
ATOM     33  C   UNL     1      31.563 -11.469 -20.378  0.00  0.00    -0.003 C 
ENDBRANCH  24  26
ENDBRANCH  19  24
ENDBRANCH  18  19
ENDBRANCH   1  18
TORSDOF 7
ENDMDL
MODEL 7
REMARK VINA RESULT:     -11.5      5.454     12.170
REMARK  Name = 49866474
REMARK  7 active torsions:
REMARK  status: ('A' for Active; 'I' for Inactive)
REMARK    1  A    between atoms: O_1  and  C_3
REMARK    2  A    between atoms: O_1  and  C_18
REMARK    3  A    between atoms: C_4  and  C_10
REMARK    4  A    between atoms: C_18  and  C_19
REMARK    5  A    between atoms: C_19  and  N_20
REMARK    6  A    between atoms: C_19  and  C_24
REMARK    7  A    between atoms: C_24  and  C_26
REMARK                            x       y       z     vdW  Elec       q    Type
REMARK                         _______ _______ _______ _____ _____    ______ ____
ROOT
ATOM      1  O   UNL     1      35.621 -22.867 -18.243  0.00  0.00    -0.476 OA
ENDROOT
BRANCH   1   3
ATOM      2  N   UNL     1      32.383 -21.814 -19.583  0.00  0.00    -0.239 NA
ATOM      3  C   UNL     1      34.699 -22.185 -18.993  0.00  0.00    +0.158 C 
ATOM      4  C   UNL     1      34.135 -20.524 -20.640  0.00  0.00    +0.022 C 
ATOM      5  C   UNL     1      35.093 -21.202 -19.894  0.00  0.00    +0.040 C 
ATOM      6  C   UNL     1      33.344 -22.451 -18.876  0.00  0.00    +0.136 C 
ATOM      7  C   UNL     1      32.806 -20.865 -20.449  0.00  0.00    +0.099 C 
BRANCH   4  10
ATOM      8  N   UNL     1      35.393 -16.698 -24.442  0.00  0.00    -0.236 N 
ATOM      9  N   UNL     1      34.570 -16.976 -25.467  0.00  0.00    -0.180 NA
ATOM     10  C   UNL     1      34.513 -19.499 -21.583  0.00  0.00    +0.002 C 
ATOM     11  C   UNL     1      34.254 -18.431 -23.729  0.00  0.00    +0.035 C 
ATOM     12  C   UNL     1      33.870 -19.436 -22.826  0.00  0.00    +0.003 C 
ATOM     13  C   UNL     1      35.254 -17.535 -23.368  0.00  0.00    +0.067 C 
ATOM     14  C   UNL     1      35.514 -18.586 -21.246  0.00  0.00    +0.001 C 
ATOM     15  C   UNL     1      35.907 -17.581 -22.135  0.00  0.00    +0.016 C 
ATOM     16  C   UNL     1      33.879 -18.030 -25.030  0.00  0.00    +0.119 C 
ATOM     17  H   UNL     1      36.040 -15.957 -24.461  0.00  0.00    +0.174 HD
ENDBRANCH   4  10
ENDBRANCH   1   3
BRANCH   1  18
ATOM     18  C   UNL     1      35.651 -22.586 -16.850  0.00  0.00    +0.184 C 
BRANCH  18  19
ATOM     19  C   UNL     1      34.699 -23.520 -16.094  0.00  0.00    -0.017 C 
BRANCH  19  20
ATOM     20  N   UNL     1      35.498 -24.572 -15.458  0.00  0.00    +0.384 N 
ATOM     21  H   UNL     1      34.882 -25.204 -14.945  0.00  0.00    -0.089 HD
ATOM     22  H   UNL     1      36.165 -24.150 -14.814  0.00  0.00    -0.089 HD
ATOM     23  H   UNL     1      36.001 -25.096 -16.174  0.00  0.00    -0.089 HD
ENDBRANCH  19  20
BRANCH  19  24
ATOM     24  C   UNL     1      33.867 -22.793 -15.010  0.00  0.00    +0.006 C 
BRANCH  24  26
ATOM     25  N   UNL     1      31.675 -25.417 -13.453  0.00  0.00    -0.234 NA
ATOM     26  C   UNL     1      32.693 -23.544 -14.529  0.00  0.00    -0.024 C 
ATOM     27  C   UNL     1      31.403 -23.554 -14.866  0.00  0.00    +0.065 C 
ATOM     28  C   UNL     1      30.634 -24.589 -14.095  0.00  0.00    +0.122 C 
ATOM     29  C   UNL     1      32.762 -24.734 -13.670  0.00  0.00    +0.072 C 
ATOM     30  C   UNL     1      30.726 -22.859 -15.930  0.00  0.00    -0.020 C 
ATOM     31  C   UNL     1      29.686 -25.351 -14.979  0.00  0.00    -0.004 C 
ATOM     32  C   UNL     1      29.664 -23.450 -16.509  0.00  0.00    -0.004 C 
ATOM     33  C   UNL     1      29.225 -24.780 -16.107  0.00  0.00    -0.003 C 
ENDBRANCH  24  26
ENDBRANCH  19  24
ENDBRANCH  18  19
ENDBRANCH   1  18
TORSDOF 7
ENDMDL
MODEL 8
REMARK VINA RESULT:     -11.5      1.360      2.220
REMARK  Name = 49866474
REMARK  7 active torsions:
REMARK  status: ('A' for Active; 'I' for Inactive)
REMARK    1  A    between atoms: O_1  and  C_3
REMARK    2  A    between atoms: O_1  and  C_18
REMARK    3  A    between atoms: C_4  and  C_10
REMARK    4  A    between atoms: C_18  and  C_19
REMARK    5  A    between atoms: C_19  and  N_20
REMARK    6  A    between atoms: C_19  and  C_24
REMARK    7  A    between atoms: C_24  and  C_26
REMARK                            x       y       z     vdW  Elec       q    Type
REMARK                         _______ _______ _______ _____ _____    ______ ____
ROOT
ATOM      1  O   UNL     1      35.035 -15.126 -23.153  0.00  0.00    -0.476 OA
ENDROOT
BRANCH   1   3
ATOM      2  N   UNL     1      34.398 -18.215 -25.006  0.00  0.00    -0.239 NA
ATOM      3  C   UNL     1      34.795 -16.452 -23.399  0.00  0.00    +0.158 C 
ATOM      4  C   UNL     1      34.462 -18.711 -22.640  0.00  0.00    +0.022 C 
ATOM      5  C   UNL     1      34.706 -17.370 -22.359  0.00  0.00    +0.040 C 
ATOM      6  C   UNL     1      34.635 -16.921 -24.694  0.00  0.00    +0.136 C 
ATOM      7  C   UNL     1      34.318 -19.078 -23.968  0.00  0.00    +0.099 C 
BRANCH   4  10
ATOM      8  N   UNL     1      34.373 -22.450 -18.555  0.00  0.00    -0.236 N 
ATOM      9  N   UNL     1      35.666 -22.593 -18.218  0.00  0.00    -0.180 NA
ATOM     10  C   UNL     1      34.364 -19.688 -21.582  0.00  0.00    +0.002 C 
ATOM     11  C   UNL     1      35.412 -21.077 -19.913  0.00  0.00    +0.035 C 
ATOM     12  C   UNL     1      35.530 -20.125 -20.939  0.00  0.00    +0.003 C 
ATOM     13  C   UNL     1      34.153 -21.555 -19.567  0.00  0.00    +0.067 C 
ATOM     14  C   UNL     1      33.113 -20.183 -21.214  0.00  0.00    +0.001 C 
ATOM     15  C   UNL     1      32.980 -21.132 -20.195  0.00  0.00    +0.016 C 
ATOM     16  C   UNL     1      36.294 -21.756 -19.045  0.00  0.00    +0.119 C 
ATOM     17  H   UNL     1      33.647 -22.946 -18.113  0.00  0.00    +0.174 HD
ENDBRANCH   4  10
ENDBRANCH   1   3
BRANCH   1  18
ATOM     18  C   UNL     1      34.414 -14.564 -22.004  0.00  0.00    +0.184 C 
BRANCH  18  19
ATOM     19  C   UNL     1      33.160 -13.778 -22.403  0.00  0.00    -0.017 C 
BRANCH  19  20
ATOM     20  N   UNL     1      32.242 -13.768 -21.260  0.00  0.00    +0.384 N 
ATOM     21  H   UNL     1      32.263 -14.677 -20.799  0.00  0.00    -0.089 HD
ATOM     22  H   UNL     1      31.296 -13.573 -21.586  0.00  0.00    -0.089 HD
ATOM     23  H   UNL     1      32.529 -13.045 -20.600  0.00  0.00    -0.089 HD
ENDBRANCH  19  20
BRANCH  19  24
ATOM     24  C   UNL     1      33.465 -12.318 -22.820  0.00  0.00    +0.006 C 
BRANCH  24  26
ATOM     25  N   UNL     1      33.632 -12.853 -26.534  0.00  0.00    -0.234 NA
ATOM     26  C   UNL     1      33.503 -12.090 -24.276  0.00  0.00    -0.024 C 
ATOM     27  C   UNL     1      33.840 -11.049 -25.038  0.00  0.00    +0.065 C 
ATOM     28  C   UNL     1      33.770 -11.383 -26.501  0.00  0.00    +0.122 C 
ATOM     29  C   UNL     1      33.411 -13.152 -25.287  0.00  0.00    +0.072 C 
ATOM     30  C   UNL     1      34.392  -9.773 -24.659  0.00  0.00    -0.020 C 
ATOM     31  C   UNL     1      34.958 -10.849 -27.251  0.00  0.00    -0.004 C 
ATOM     32  C   UNL     1      35.236  -9.161 -25.511  0.00  0.00    -0.004 C 
ATOM     33  C   UNL     1      35.623  -9.781 -26.771  0.00  0.00    -0.003 C 
ENDBRANCH  24  26
ENDBRANCH  19  24
ENDBRANCH  18  19
ENDBRANCH   1  18
TORSDOF 7
ENDMDL
MODEL 9
REMARK VINA RESULT:     -11.3      1.348      1.629
REMARK  Name = 49866474
REMARK  7 active torsions:
REMARK  status: ('A' for Active; 'I' for Inactive)
REMARK    1  A    between atoms: O_1  and  C_3
REMARK    2  A    between atoms: O_1  and  C_18
REMARK    3  A    between atoms: C_4  and  C_10
REMARK    4  A    between atoms: C_18  and  C_19
REMARK    5  A    between atoms: C_19  and  N_20
REMARK    6  A    between atoms: C_19  and  C_24
REMARK    7  A    between atoms: C_24  and  C_26
REMARK                            x       y       z     vdW  Elec       q    Type
REMARK                         _______ _______ _______ _____ _____    ______ ____
ROOT
ATOM      1  O   UNL     1      34.606 -14.176 -23.462  0.00  0.00    -0.476 OA
ENDROOT
BRANCH   1   3
ATOM      2  N   UNL     1      34.070 -17.327 -25.244  0.00  0.00    -0.239 NA
ATOM      3  C   UNL     1      34.567 -15.523 -23.711  0.00  0.00    +0.158 C 
ATOM      4  C   UNL     1      34.914 -17.804 -23.028  0.00  0.00    +0.022 C 
ATOM      5  C   UNL     1      34.963 -16.443 -22.746  0.00  0.00    +0.040 C 
ATOM      6  C   UNL     1      34.132 -16.013 -24.932  0.00  0.00    +0.136 C 
ATOM      7  C   UNL     1      34.464 -18.191 -24.280  0.00  0.00    +0.099 C 
BRANCH   4  10
ATOM      8  N   UNL     1      36.193 -21.651 -19.254  0.00  0.00    -0.236 N 
ATOM      9  N   UNL     1      35.029 -22.279 -19.023  0.00  0.00    -0.180 NA
ATOM     10  C   UNL     1      35.319 -18.783 -22.047  0.00  0.00    +0.002 C 
ATOM     11  C   UNL     1      34.781 -20.614 -20.572  0.00  0.00    +0.035 C 
ATOM     12  C   UNL     1      34.367 -19.670 -21.527  0.00  0.00    +0.003 C 
ATOM     13  C   UNL     1      36.113 -20.640 -20.174  0.00  0.00    +0.067 C 
ATOM     14  C   UNL     1      36.649 -18.832 -21.629  0.00  0.00    +0.001 C 
ATOM     15  C   UNL     1      37.076 -19.765 -20.679  0.00  0.00    +0.016 C 
ATOM     16  C   UNL     1      34.173 -21.646 -19.827  0.00  0.00    +0.119 C 
ATOM     17  H   UNL     1      37.032 -21.896 -18.801  0.00  0.00    +0.174 HD
ENDBRANCH   4  10
ENDBRANCH   1   3
BRANCH   1  18
ATOM     18  C   UNL     1      33.492 -13.410 -23.900  0.00  0.00    +0.184 C 
BRANCH  18  19
ATOM     19  C   UNL     1      33.957 -12.061 -24.462  0.00  0.00    -0.017 C 
BRANCH  19  20
ATOM     20  N   UNL     1      33.764 -12.078 -25.915  0.00  0.00    +0.384 N 
ATOM     21  H   UNL     1      33.146 -12.849 -26.167  0.00  0.00    -0.089 HD
ATOM     22  H   UNL     1      34.665 -12.199 -26.376  0.00  0.00    -0.089 HD
ATOM     23  H   UNL     1      33.346 -11.196 -26.212  0.00  0.00    -0.089 HD
ENDBRANCH  19  20
BRANCH  19  24
ATOM     24  C   UNL     1      33.190 -10.857 -23.864  0.00  0.00    +0.006 C 
BRANCH  24  26
ATOM     25  N   UNL     1      35.407  -7.929 -24.656  0.00  0.00    -0.234 NA
ATOM     26  C   UNL     1      33.677  -9.537 -24.307  0.00  0.00    -0.024 C 
ATOM     27  C   UNL     1      33.098  -8.347 -24.468  0.00  0.00    +0.065 C 
ATOM     28  C   UNL     1      34.091  -7.295 -24.877  0.00  0.00    +0.122 C 
ATOM     29  C   UNL     1      35.095  -9.172 -24.426  0.00  0.00    +0.072 C 
ATOM     30  C   UNL     1      31.755  -7.928 -24.159  0.00  0.00    -0.020 C 
ATOM     31  C   UNL     1      33.881  -6.011 -24.125  0.00  0.00    -0.004 C 
ATOM     32  C   UNL     1      31.553  -6.654 -23.774  0.00  0.00    -0.004 C 
ATOM     33  C   UNL     1      32.663  -5.721 -23.630  0.00  0.00    -0.003 C 
ENDBRANCH  24  26
ENDBRANCH  19  24
ENDBRANCH  18  19
ENDBRANCH   1  18
TORSDOF 7
ENDMDL
