MODEL 1
REMARK VINA RESULT:     -11.6      0.000      0.000
REMARK  Name = 24779724
REMARK  3 active torsions:
REMARK  status: ('A' for Active; 'I' for Inactive)
REMARK    1  A    between atoms: C_5  and  C_12
REMARK    2  A    between atoms: C_7  and  S_16
REMARK    3  A    between atoms: S_16  and  C_19
REMARK                            x       y       z     vdW  Elec       q    Type
REMARK                         _______ _______ _______ _____ _____    ______ ____
ROOT
ATOM      1  N   UNL     1      34.361 -21.670 -19.205  0.00  0.00    -0.186 N 
ATOM      2  N   UNL     1      35.389 -22.019 -18.394  0.00  0.00    -0.162 NA
ATOM      3  N   UNL     1      32.350 -21.494 -20.071  0.00  0.00    -0.126 NA
ATOM      4  N   UNL     1      33.224 -20.753 -20.840  0.00  0.00    -0.120 NA
ATOM      5  C   UNL     1      35.040 -22.792 -17.404  0.00  0.00    +0.104 C 
ATOM      6  C   UNL     1      33.041 -22.041 -19.093  0.00  0.00    +0.187 A 
ATOM      7  C   UNL     1      34.421 -20.870 -20.310  0.00  0.00    +0.217 A 
ATOM      8  C   UNL     1      33.645 -23.289 -17.168  0.00  0.00    +0.024 C 
ATOM      9  C   UNL     1      32.696 -22.890 -18.024  0.00  0.00    +0.042 C 
ENDROOT
BRANCH   5  12
ATOM     10  N   UNL     1      37.126 -24.301 -14.844  0.00  0.00    -0.208 N 
ATOM     11  N   UNL     1      38.041 -23.422 -15.287  0.00  0.00    -0.176 NA
ATOM     12  C   UNL     1      36.077 -23.239 -16.439  0.00  0.00    +0.056 C 
ATOM     13  C   UNL     1      35.933 -24.232 -15.501  0.00  0.00    +0.087 C 
ATOM     14  C   UNL     1      37.395 -22.777 -16.262  0.00  0.00    +0.121 C 
ATOM     15  C   UNL     1      37.460 -25.201 -13.766  0.00  0.00    +0.140 C 
ENDBRANCH   5  12
BRANCH   7  16
ATOM     16  S   UNL     1      35.929 -20.117 -20.901  0.00  0.00    -0.051 S 
BRANCH  16  19
ATOM     17  N   UNL     1      33.866 -16.744 -25.346  0.00  0.00    -0.248 NA
ATOM     18  C   UNL     1      34.754 -16.909 -23.112  0.00  0.00    -0.003 C 
ATOM     19  C   UNL     1      35.314 -19.098 -22.226  0.00  0.00    +0.011 C 
ATOM     20  C   UNL     1      34.337 -17.489 -24.328  0.00  0.00    +0.060 C 
ATOM     21  C   UNL     1      35.240 -17.717 -22.070  0.00  0.00    +0.060 C 
ATOM     22  C   UNL     1      34.903 -19.676 -23.420  0.00  0.00    -0.017 C 
ATOM     23  C   UNL     1      34.421 -18.873 -24.456  0.00  0.00    +0.072 C 
ATOM     24  C   UNL     1      34.669 -15.516 -22.983  0.00  0.00    -0.001 C 
ATOM     25  C   UNL     1      34.185 -14.746 -24.030  0.00  0.00    +0.020 C 
ATOM     26  C   UNL     1      33.801 -15.404 -25.181  0.00  0.00    +0.098 C 
ENDBRANCH  16  19
ENDBRANCH   7  16
TORSDOF 3
ENDMDL
MODEL 2
REMARK VINA RESULT:     -10.8      1.190      1.842
REMARK  Name = 24779724
REMARK  3 active torsions:
REMARK  status: ('A' for Active; 'I' for Inactive)
REMARK    1  A    between atoms: C_5  and  C_12
REMARK    2  A    between atoms: C_7  and  S_16
REMARK    3  A    between atoms: S_16  and  C_19
REMARK                            x       y       z     vdW  Elec       q    Type
REMARK                         _______ _______ _______ _____ _____    ______ ____
ROOT
ATOM      1  N   UNL     1      34.327 -22.376 -18.416  0.00  0.00    -0.186 N 
ATOM      2  N   UNL     1      35.299 -22.773 -17.558  0.00  0.00    -0.162 NA
ATOM      3  N   UNL     1      32.359 -22.027 -19.326  0.00  0.00    -0.126 NA
ATOM      4  N   UNL     1      33.324 -21.487 -20.151  0.00  0.00    -0.120 NA
ATOM      5  C   UNL     1      34.849 -23.390 -16.502  0.00  0.00    +0.104 C 
ATOM      6  C   UNL     1      32.970 -22.558 -18.288  0.00  0.00    +0.187 A 
ATOM      7  C   UNL     1      34.494 -21.705 -19.593  0.00  0.00    +0.217 A 
ATOM      8  C   UNL     1      33.401 -23.675 -16.239  0.00  0.00    +0.024 C 
ATOM      9  C   UNL     1      32.514 -23.244 -17.145  0.00  0.00    +0.042 C 
ENDROOT
BRANCH   5  12
ATOM     10  N   UNL     1      36.802 -25.052 -13.931  0.00  0.00    -0.208 N 
ATOM     11  N   UNL     1      37.641 -24.018 -14.115  0.00  0.00    -0.176 NA
ATOM     12  C   UNL     1      35.817 -23.870 -15.482  0.00  0.00    +0.056 C 
ATOM     13  C   UNL     1      35.693 -25.009 -14.725  0.00  0.00    +0.087 C 
ATOM     14  C   UNL     1      37.035 -23.300 -15.064  0.00  0.00    +0.121 C 
ATOM     15  C   UNL     1      37.121 -26.070 -12.959  0.00  0.00    +0.140 C 
ENDBRANCH   5  12
BRANCH   7  16
ATOM     16  S   UNL     1      36.089 -21.218 -20.233  0.00  0.00    -0.051 S 
BRANCH  16  19
ATOM     17  N   UNL     1      34.631 -16.533 -23.595  0.00  0.00    -0.248 NA
ATOM     18  C   UNL     1      34.609 -18.916 -23.245  0.00  0.00    -0.003 C 
ATOM     19  C   UNL     1      35.647 -19.822 -21.247  0.00  0.00    +0.011 C 
ATOM     20  C   UNL     1      34.950 -17.606 -22.849  0.00  0.00    +0.060 C 
ATOM     21  C   UNL     1      34.959 -20.014 -22.442  0.00  0.00    +0.060 C 
ATOM     22  C   UNL     1      35.987 -18.535 -20.851  0.00  0.00    -0.017 C 
ATOM     23  C   UNL     1      35.639 -17.443 -21.650  0.00  0.00    +0.072 C 
ATOM     24  C   UNL     1      33.917 -19.081 -24.452  0.00  0.00    -0.001 C 
ATOM     25  C   UNL     1      33.585 -17.976 -25.224  0.00  0.00    +0.020 C 
ATOM     26  C   UNL     1      33.963 -16.734 -24.754  0.00  0.00    +0.098 C 
ENDBRANCH  16  19
ENDBRANCH   7  16
TORSDOF 3
ENDMDL
MODEL 3
REMARK VINA RESULT:     -10.7      2.921      4.237
REMARK  Name = 24779724
REMARK  3 active torsions:
REMARK  status: ('A' for Active; 'I' for Inactive)
REMARK    1  A    between atoms: C_5  and  C_12
REMARK    2  A    between atoms: C_7  and  S_16
REMARK    3  A    between atoms: S_16  and  C_19
REMARK                            x       y       z     vdW  Elec       q    Type
REMARK                         _______ _______ _______ _____ _____    ______ ____
ROOT
ATOM      1  N   UNL     1      33.702 -23.906 -16.257  0.00  0.00    -0.186 N 
ATOM      2  N   UNL     1      34.874 -24.588 -16.241  0.00  0.00    -0.162 NA
ATOM      3  N   UNL     1      31.920 -22.799 -15.606  0.00  0.00    -0.126 NA
ATOM      4  N   UNL     1      31.886 -22.915 -16.981  0.00  0.00    -0.120 NA
ATOM      5  C   UNL     1      35.371 -24.750 -15.047  0.00  0.00    +0.104 C 
ATOM      6  C   UNL     1      33.013 -23.397 -15.181  0.00  0.00    +0.187 A 
ATOM      7  C   UNL     1      32.956 -23.580 -17.353  0.00  0.00    +0.217 A 
ATOM      8  C   UNL     1      34.723 -24.266 -13.785  0.00  0.00    +0.024 C 
ATOM      9  C   UNL     1      33.565 -23.604 -13.902  0.00  0.00    +0.042 C 
ENDROOT
BRANCH   5  12
ATOM     10  N   UNL     1      38.775 -25.941 -14.617  0.00  0.00    -0.208 N 
ATOM     11  N   UNL     1      38.207 -27.151 -14.754  0.00  0.00    -0.176 NA
ATOM     12  C   UNL     1      36.658 -25.477 -14.897  0.00  0.00    +0.056 C 
ATOM     13  C   UNL     1      37.890 -24.905 -14.695  0.00  0.00    +0.087 C 
ATOM     14  C   UNL     1      36.914 -26.862 -14.924  0.00  0.00    +0.121 C 
ATOM     15  C   UNL     1      40.199 -25.837 -14.409  0.00  0.00    +0.140 C 
ENDBRANCH   5  12
BRANCH   7  16
ATOM     16  S   UNL     1      33.416 -24.015 -19.023  0.00  0.00    -0.051 S 
BRANCH  16  19
ATOM     17  N   UNL     1      34.633 -18.664 -21.318  0.00  0.00    -0.248 NA
ATOM     18  C   UNL     1      35.416 -20.749 -20.398  0.00  0.00    -0.003 C 
ATOM     19  C   UNL     1      33.792 -22.415 -19.710  0.00  0.00    +0.011 C 
ATOM     20  C   UNL     1      34.380 -19.879 -20.797  0.00  0.00    +0.060 C 
ATOM     21  C   UNL     1      35.115 -22.010 -19.858  0.00  0.00    +0.060 C 
ATOM     22  C   UNL     1      32.766 -21.564 -20.100  0.00  0.00    -0.017 C 
ATOM     23  C   UNL     1      33.065 -20.310 -20.638  0.00  0.00    +0.072 C 
ATOM     24  C   UNL     1      36.739 -20.315 -20.559  0.00  0.00    -0.001 C 
ATOM     25  C   UNL     1      37.004 -19.064 -21.095  0.00  0.00    +0.020 C 
ATOM     26  C   UNL     1      35.924 -18.283 -21.456  0.00  0.00    +0.098 C 
ENDBRANCH  16  19
ENDBRANCH   7  16
TORSDOF 3
ENDMDL
MODEL 4
REMARK VINA RESULT:     -10.4      2.242      9.319
REMARK  Name = 24779724
REMARK  3 active torsions:
REMARK  status: ('A' for Active; 'I' for Inactive)
REMARK    1  A    between atoms: C_5  and  C_12
REMARK    2  A    between atoms: C_7  and  S_16
REMARK    3  A    between atoms: S_16  and  C_19
REMARK                            x       y       z     vdW  Elec       q    Type
REMARK                         _______ _______ _______ _____ _____    ______ ____
ROOT
ATOM      1  N   UNL     1      35.174 -20.331 -20.714  0.00  0.00    -0.186 N 
ATOM      2  N   UNL     1      34.493 -19.717 -21.713  0.00  0.00    -0.162 NA
ATOM      3  N   UNL     1      36.778 -20.923 -19.335  0.00  0.00    -0.126 NA
ATOM      4  N   UNL     1      35.639 -21.632 -19.012  0.00  0.00    -0.120 NA
ATOM      5  C   UNL     1      35.205 -18.855 -22.382  0.00  0.00    +0.104 C 
ATOM      6  C   UNL     1      36.488 -20.145 -20.357  0.00  0.00    +0.187 A 
ATOM      7  C   UNL     1      34.691 -21.269 -19.846  0.00  0.00    +0.217 A 
ATOM      8  C   UNL     1      36.651 -18.562 -22.117  0.00  0.00    +0.024 C 
ATOM      9  C   UNL     1      37.239 -19.220 -21.110  0.00  0.00    +0.042 C 
ENDROOT
BRANCH   5  12
ATOM     10  N   UNL     1      33.895 -16.512 -24.828  0.00  0.00    -0.208 N 
ATOM     11  N   UNL     1      33.401 -17.623 -25.401  0.00  0.00    -0.176 NA
ATOM     12  C   UNL     1      34.570 -18.111 -23.500  0.00  0.00    +0.056 C 
ATOM     13  C   UNL     1      34.602 -16.750 -23.686  0.00  0.00    +0.087 C 
ATOM     14  C   UNL     1      33.817 -18.596 -24.587  0.00  0.00    +0.121 C 
ATOM     15  C   UNL     1      33.651 -15.224 -25.431  0.00  0.00    +0.140 C 
ENDBRANCH   5  12
BRANCH   7  16
ATOM     16  S   UNL     1      33.011 -21.873 -19.882  0.00  0.00    -0.051 S 
BRANCH  16  19
ATOM     17  N   UNL     1      32.576 -24.330 -14.482  0.00  0.00    -0.248 NA
ATOM     18  C   UNL     1      31.522 -23.221 -16.343  0.00  0.00    -0.003 C 
ATOM     19  C   UNL     1      32.870 -22.607 -18.266  0.00  0.00    +0.011 C 
ATOM     20  C   UNL     1      32.653 -23.770 -15.704  0.00  0.00    +0.060 C 
ATOM     21  C   UNL     1      31.638 -22.644 -17.618  0.00  0.00    +0.060 C 
ATOM     22  C   UNL     1      33.988 -23.145 -17.642  0.00  0.00    -0.017 C 
ATOM     23  C   UNL     1      33.872 -23.719 -16.373  0.00  0.00    +0.072 C 
ATOM     24  C   UNL     1      30.294 -23.272 -15.669  0.00  0.00    -0.001 C 
ATOM     25  C   UNL     1      30.212 -23.848 -14.410  0.00  0.00    +0.020 C 
ATOM     26  C   UNL     1      31.373 -24.359 -13.865  0.00  0.00    +0.098 C 
ENDBRANCH  16  19
ENDBRANCH   7  16
TORSDOF 3
ENDMDL
MODEL 5
REMARK VINA RESULT:     -10.4      5.895     11.905
REMARK  Name = 24779724
REMARK  3 active torsions:
REMARK  status: ('A' for Active; 'I' for Inactive)
REMARK    1  A    between atoms: C_5  and  C_12
REMARK    2  A    between atoms: C_7  and  S_16
REMARK    3  A    between atoms: S_16  and  C_19
REMARK                            x       y       z     vdW  Elec       q    Type
REMARK                         _______ _______ _______ _____ _____    ______ ____
ROOT
ATOM      1  N   UNL     1      32.273 -11.613 -22.142  0.00  0.00    -0.186 N 
ATOM      2  N   UNL     1      32.451 -10.408 -22.738  0.00  0.00    -0.162 NA
ATOM      3  N   UNL     1      31.635 -13.172 -20.732  0.00  0.00    -0.126 NA
ATOM      4  N   UNL     1      32.368 -13.765 -21.740  0.00  0.00    -0.120 NA
ATOM      5  C   UNL     1      31.882  -9.419 -22.108  0.00  0.00    +0.104 C 
ATOM      6  C   UNL     1      31.584 -11.880 -20.982  0.00  0.00    +0.187 A 
ATOM      7  C   UNL     1      32.742 -12.820 -22.572  0.00  0.00    +0.217 A 
ATOM      8  C   UNL     1      31.116  -9.559 -20.826  0.00  0.00    +0.024 C 
ATOM      9  C   UNL     1      30.995 -10.790 -20.313  0.00  0.00    +0.042 C 
ENDROOT
BRANCH   5  12
ATOM     10  N   UNL     1      31.569  -6.161 -23.679  0.00  0.00    -0.208 N 
ATOM     11  N   UNL     1      32.826  -5.994 -23.232  0.00  0.00    -0.176 NA
ATOM     12  C   UNL     1      32.000  -8.047 -22.665  0.00  0.00    +0.056 C 
ATOM     13  C   UNL     1      31.030  -7.374 -23.366  0.00  0.00    +0.087 C 
ATOM     14  C   UNL     1      33.084  -7.149 -22.613  0.00  0.00    +0.121 C 
ATOM     15  C   UNL     1      30.923  -5.101 -24.415  0.00  0.00    +0.140 C 
ENDBRANCH   5  12
BRANCH   7  16
ATOM     16  S   UNL     1      33.714 -13.028 -24.056  0.00  0.00    -0.051 S 
BRANCH  16  19
ATOM     17  N   UNL     1      34.667 -18.900 -24.042  0.00  0.00    -0.248 NA
ATOM     18  C   UNL     1      34.799 -16.778 -22.908  0.00  0.00    -0.003 C 
ATOM     19  C   UNL     1      34.003 -14.785 -24.042  0.00  0.00    +0.011 C 
ATOM     20  C   UNL     1      34.459 -17.570 -24.025  0.00  0.00    +0.060 C 
ATOM     21  C   UNL     1      34.568 -15.392 -22.924  0.00  0.00    +0.060 C 
ATOM     22  C   UNL     1      33.667 -15.559 -25.145  0.00  0.00    -0.017 C 
ATOM     23  C   UNL     1      33.895 -16.936 -25.129  0.00  0.00    +0.072 C 
ATOM     24  C   UNL     1      35.366 -17.415 -21.796  0.00  0.00    -0.001 C 
ATOM     25  C   UNL     1      35.581 -18.786 -21.811  0.00  0.00    +0.020 C 
ATOM     26  C   UNL     1      35.217 -19.476 -22.949  0.00  0.00    +0.098 C 
ENDBRANCH  16  19
ENDBRANCH   7  16
TORSDOF 3
ENDMDL
MODEL 6
REMARK VINA RESULT:     -10.1      3.959      7.418
REMARK  Name = 24779724
REMARK  3 active torsions:
REMARK  status: ('A' for Active; 'I' for Inactive)
REMARK    1  A    between atoms: C_5  and  C_12
REMARK    2  A    between atoms: C_7  and  S_16
REMARK    3  A    between atoms: S_16  and  C_19
REMARK                            x       y       z     vdW  Elec       q    Type
REMARK                         _______ _______ _______ _____ _____    ______ ____
ROOT
ATOM      1  N   UNL     1      34.218 -16.215 -23.799  0.00  0.00    -0.186 N 
ATOM      2  N   UNL     1      34.738 -16.871 -22.732  0.00  0.00    -0.162 NA
ATOM      3  N   UNL     1      33.432 -15.779 -25.803  0.00  0.00    -0.126 NA
ATOM      4  N   UNL     1      33.398 -14.618 -25.057  0.00  0.00    -0.120 NA
ATOM      5  C   UNL     1      34.966 -18.135 -22.952  0.00  0.00    +0.104 C 
ATOM      6  C   UNL     1      33.926 -16.731 -25.040  0.00  0.00    +0.187 A 
ATOM      7  C   UNL     1      33.872 -14.896 -23.863  0.00  0.00    +0.217 A 
ATOM      8  C   UNL     1      34.714 -18.828 -24.258  0.00  0.00    +0.024 C 
ATOM      9  C   UNL     1      34.199 -18.096 -25.254  0.00  0.00    +0.042 C 
ENDROOT
BRANCH   5  12
ATOM     10  N   UNL     1      35.802 -20.504 -20.330  0.00  0.00    -0.208 N 
ATOM     11  N   UNL     1      36.927 -19.775 -20.241  0.00  0.00    -0.176 NA
ATOM     12  C   UNL     1      35.531 -18.966 -21.858  0.00  0.00    +0.056 C 
ATOM     13  C   UNL     1      34.932 -20.060 -21.283  0.00  0.00    +0.087 C 
ATOM     14  C   UNL     1      36.757 -18.838 -21.176  0.00  0.00    +0.121 C 
ATOM     15  C   UNL     1      35.611 -21.638 -19.458  0.00  0.00    +0.140 C 
ENDBRANCH   5  12
BRANCH   7  16
ATOM     16  S   UNL     1      34.055 -13.761 -22.497  0.00  0.00    -0.051 S 
BRANCH  16  19
ATOM     17  N   UNL     1      32.640  -8.603 -25.101  0.00  0.00    -0.248 NA
ATOM     18  C   UNL     1      32.338 -10.156 -23.283  0.00  0.00    -0.003 C 
ATOM     19  C   UNL     1      33.625 -12.214 -23.267  0.00  0.00    +0.011 C 
ATOM     20  C   UNL     1      32.946  -9.765 -24.495  0.00  0.00    +0.060 C 
ATOM     21  C   UNL     1      32.682 -11.377 -22.679  0.00  0.00    +0.060 C 
ATOM     22  C   UNL     1      34.227 -11.836 -24.460  0.00  0.00    -0.017 C 
ATOM     23  C   UNL     1      33.886 -10.622 -25.062  0.00  0.00    +0.072 C 
ATOM     24  C   UNL     1      31.392  -9.294 -22.713  0.00  0.00    -0.001 C 
ATOM     25  C   UNL     1      31.074  -8.096 -23.334  0.00  0.00    +0.020 C 
ATOM     26  C   UNL     1      31.722  -7.800 -24.517  0.00  0.00    +0.098 C 
ENDBRANCH  16  19
ENDBRANCH   7  16
TORSDOF 3
ENDMDL
MODEL 7
REMARK VINA RESULT:      -9.8      6.216     12.641
REMARK  Name = 24779724
REMARK  3 active torsions:
REMARK  status: ('A' for Active; 'I' for Inactive)
REMARK    1  A    between atoms: C_5  and  C_12
REMARK    2  A    between atoms: C_7  and  S_16
REMARK    3  A    between atoms: S_16  and  C_19
REMARK                            x       y       z     vdW  Elec       q    Type
REMARK                         _______ _______ _______ _____ _____    ______ ____
ROOT
ATOM      1  N   UNL     1      32.364 -10.584 -22.706  0.00  0.00    -0.186 N 
ATOM      2  N   UNL     1      32.981  -9.626 -23.440  0.00  0.00    -0.162 NA
ATOM      3  N   UNL     1      31.094 -11.580 -21.215  0.00  0.00    -0.126 NA
ATOM      4  N   UNL     1      31.739 -12.548 -21.959  0.00  0.00    -0.120 NA
ATOM      5  C   UNL     1      32.663  -8.411 -23.094  0.00  0.00    +0.104 C 
ATOM      6  C   UNL     1      31.475 -10.405 -21.671  0.00  0.00    +0.187 A 
ATOM      7  C   UNL     1      32.494 -11.936 -22.843  0.00  0.00    +0.217 A 
ATOM      8  C   UNL     1      31.725  -8.065 -21.977  0.00  0.00    +0.024 C 
ATOM      9  C   UNL     1      31.163  -9.080 -21.308  0.00  0.00    +0.042 C 
ENDROOT
BRANCH   5  12
ATOM     10  N   UNL     1      34.478  -6.078 -25.204  0.00  0.00    -0.208 N 
ATOM     11  N   UNL     1      33.774  -5.155 -24.527  0.00  0.00    -0.176 NA
ATOM     12  C   UNL     1      33.270  -7.271 -23.828  0.00  0.00    +0.056 C 
ATOM     13  C   UNL     1      34.213  -7.361 -24.823  0.00  0.00    +0.087 C 
ATOM     14  C   UNL     1      33.038  -5.889 -23.689  0.00  0.00    +0.121 C 
ATOM     15  C   UNL     1      35.409  -5.663 -26.226  0.00  0.00    +0.140 C 
ENDBRANCH   5  12
BRANCH   7  16
ATOM     16  S   UNL     1      33.548 -12.706 -24.062  0.00  0.00    -0.051 S 
BRANCH  16  19
ATOM     17  N   UNL     1      35.221 -17.626 -21.167  0.00  0.00    -0.248 NA
ATOM     18  C   UNL     1      34.768 -16.502 -23.250  0.00  0.00    -0.003 C 
ATOM     19  C   UNL     1      34.051 -14.184 -23.205  0.00  0.00    +0.011 C 
ATOM     20  C   UNL     1      34.845 -16.523 -21.842  0.00  0.00    +0.060 C 
ATOM     21  C   UNL     1      34.371 -15.334 -23.921  0.00  0.00    +0.060 C 
ATOM     22  C   UNL     1      34.124 -14.198 -21.818  0.00  0.00    -0.017 C 
ATOM     23  C   UNL     1      34.518 -15.360 -21.150  0.00  0.00    +0.072 C 
ATOM     24  C   UNL     1      35.097 -17.674 -23.945  0.00  0.00    -0.001 C 
ATOM     25  C   UNL     1      35.485 -18.812 -23.253  0.00  0.00    +0.020 C 
ATOM     26  C   UNL     1      35.530 -18.735 -21.876  0.00  0.00    +0.098 C 
ENDBRANCH  16  19
ENDBRANCH   7  16
TORSDOF 3
ENDMDL
MODEL 8
REMARK VINA RESULT:      -9.8      6.459     11.936
REMARK  Name = 24779724
REMARK  3 active torsions:
REMARK  status: ('A' for Active; 'I' for Inactive)
REMARK    1  A    between atoms: C_5  and  C_12
REMARK    2  A    between atoms: C_7  and  S_16
REMARK    3  A    between atoms: S_16  and  C_19
REMARK                            x       y       z     vdW  Elec       q    Type
REMARK                         _______ _______ _______ _____ _____    ______ ____
ROOT
ATOM      1  N   UNL     1      33.981 -10.444 -25.393  0.00  0.00    -0.186 N 
ATOM      2  N   UNL     1      33.151 -10.338 -24.326  0.00  0.00    -0.162 NA
ATOM      3  N   UNL     1      35.589 -10.049 -26.836  0.00  0.00    -0.126 NA
ATOM      4  N   UNL     1      34.917 -11.189 -27.230  0.00  0.00    -0.120 NA
ATOM      5  C   UNL     1      33.408  -9.316 -23.559  0.00  0.00    +0.104 C 
ATOM      6  C   UNL     1      35.020  -9.610 -25.733  0.00  0.00    +0.187 A 
ATOM      7  C   UNL     1      33.959 -11.409 -26.358  0.00  0.00    +0.217 A 
ATOM      8  C   UNL     1      34.495  -8.316 -23.815  0.00  0.00    +0.024 C 
ATOM      9  C   UNL     1      35.263  -8.504 -24.896  0.00  0.00    +0.042 C 
ENDROOT
BRANCH   5  12
ATOM     10  N   UNL     1      31.313  -9.415 -20.595  0.00  0.00    -0.208 N 
ATOM     11  N   UNL     1      31.432  -8.078 -20.653  0.00  0.00    -0.176 NA
ATOM     12  C   UNL     1      32.571  -9.094 -22.352  0.00  0.00    +0.056 C 
ATOM     13  C   UNL     1      31.977 -10.071 -21.591  0.00  0.00    +0.087 C 
ATOM     14  C   UNL     1      32.201  -7.888 -21.727  0.00  0.00    +0.121 C 
ATOM     15  C   UNL     1      30.535 -10.021 -19.541  0.00  0.00    +0.140 C 
ENDBRANCH   5  12
BRANCH   7  16
ATOM     16  S   UNL     1      32.782 -12.753 -26.383  0.00  0.00    -0.051 S 
BRANCH  16  19
ATOM     17  N   UNL     1      35.071 -16.356 -22.240  0.00  0.00    -0.248 NA
ATOM     18  C   UNL     1      34.217 -16.047 -24.472  0.00  0.00    -0.003 C 
ATOM     19  C   UNL     1      33.468 -13.840 -25.150  0.00  0.00    +0.011 C 
ATOM     20  C   UNL     1      34.552 -15.558 -23.192  0.00  0.00    +0.060 C 
ATOM     21  C   UNL     1      33.677 -15.185 -25.441  0.00  0.00    +0.060 C 
ATOM     22  C   UNL     1      33.795 -13.352 -23.892  0.00  0.00    -0.017 C 
ATOM     23  C   UNL     1      34.332 -14.209 -22.928  0.00  0.00    +0.072 C 
ATOM     24  C   UNL     1      34.438 -17.404 -24.738  0.00  0.00    -0.001 C 
ATOM     25  C   UNL     1      34.973 -18.230 -23.759  0.00  0.00    +0.020 C 
ATOM     26  C   UNL     1      35.269 -17.661 -22.537  0.00  0.00    +0.098 C 
ENDBRANCH  16  19
ENDBRANCH   7  16
TORSDOF 3
ENDMDL
MODEL 9
REMARK VINA RESULT:      -9.7      6.994     11.652
REMARK  Name = 24779724
REMARK  3 active torsions:
REMARK  status: ('A' for Active; 'I' for Inactive)
REMARK    1  A    between atoms: C_5  and  C_12
REMARK    2  A    between atoms: C_7  and  S_16
REMARK    3  A    between atoms: S_16  and  C_19
REMARK                            x       y       z     vdW  Elec       q    Type
REMARK                         _______ _______ _______ _____ _____    ______ ____
ROOT
ATOM      1  N   UNL     1      33.873 -11.691 -25.183  0.00  0.00    -0.186 N 
ATOM      2  N   UNL     1      34.170 -12.413 -24.074  0.00  0.00    -0.162 NA
ATOM      3  N   UNL     1      33.237 -11.148 -27.214  0.00  0.00    -0.126 NA
ATOM      4  N   UNL     1      33.596  -9.996 -26.544  0.00  0.00    -0.120 NA
ATOM      5  C   UNL     1      33.970 -13.693 -24.210  0.00  0.00    +0.104 C 
ATOM      6  C   UNL     1      33.407 -12.159 -26.388  0.00  0.00    +0.187 A 
ATOM      7  C   UNL     1      33.975 -10.338 -25.334  0.00  0.00    +0.217 A 
ATOM      8  C   UNL     1      33.482 -14.346 -25.469  0.00  0.00    +0.024 C 
ATOM      9  C   UNL     1      33.216 -13.550 -26.513  0.00  0.00    +0.042 C 
ENDROOT
BRANCH   5  12
ATOM     10  N   UNL     1      34.832 -16.318 -21.854  0.00  0.00    -0.208 N 
ATOM     11  N   UNL     1      34.465 -15.406 -20.938  0.00  0.00    -0.176 NA
ATOM     12  C   UNL     1      34.252 -14.592 -23.062  0.00  0.00    +0.056 C 
ATOM     13  C   UNL     1      34.722 -15.880 -23.142  0.00  0.00    +0.087 C 
ATOM     14  C   UNL     1      34.113 -14.354 -21.681  0.00  0.00    +0.121 C 
ATOM     15  C   UNL     1      35.288 -17.620 -21.428  0.00  0.00    +0.140 C 
ENDBRANCH   5  12
BRANCH   7  16
ATOM     16  S   UNL     1      34.543  -9.241 -24.043  0.00  0.00    -0.051 S 
BRANCH  16  19
ATOM     17  N   UNL     1      30.466  -4.919 -24.327  0.00  0.00    -0.248 NA
ATOM     18  C   UNL     1      32.756  -5.625 -24.578  0.00  0.00    -0.003 C 
ATOM     19  C   UNL     1      33.330  -7.940 -24.132  0.00  0.00    +0.011 C 
ATOM     20  C   UNL     1      31.404  -5.883 -24.270  0.00  0.00    +0.060 C 
ATOM     21  C   UNL     1      33.709  -6.655 -24.507  0.00  0.00    +0.060 C 
ATOM     22  C   UNL     1      32.001  -8.201 -23.826  0.00  0.00    -0.017 C 
ATOM     23  C   UNL     1      31.053  -7.177 -23.896  0.00  0.00    +0.072 C 
ATOM     24  C   UNL     1      33.109  -4.322 -24.953  0.00  0.00    -0.001 C 
ATOM     25  C   UNL     1      32.145  -3.326 -25.014  0.00  0.00    +0.020 C 
ATOM     26  C   UNL     1      30.848  -3.675 -24.693  0.00  0.00    +0.098 C 
ENDBRANCH  16  19
ENDBRANCH   7  16
TORSDOF 3
ENDMDL
