MODEL 1
REMARK VINA RESULT:     -11.8      0.000      0.000
REMARK  Name = 71360
REMARK  8 active torsions:
REMARK  status: ('A' for Active; 'I' for Inactive)
REMARK    1  A    between atoms: N_1  and  C_18
REMARK    2  A    between atoms: C_2  and  C_11
REMARK    3  A    between atoms: C_18  and  C_19
REMARK    4  A    between atoms: C_19  and  C_20
REMARK    5  A    between atoms: C_20  and  O_21
REMARK    6  A    between atoms: O_21  and  C_22
REMARK    7  A    between atoms: C_23  and  O_31
REMARK    8  A    between atoms: C_27  and  C_29
REMARK                            x       y       z     vdW  Elec       q    Type
REMARK                         _______ _______ _______ _____ _____    ______ ____
ROOT
ATOM      1  N   UNL     1      35.657 -19.741 -20.782  0.00  0.00    +0.387 N 
ATOM      2  C   UNL     1      35.201 -18.318 -23.306  0.00  0.00    +0.039 C 
ATOM      3  C   UNL     1      36.208 -17.828 -22.253  0.00  0.00    -0.017 C 
ATOM      4  C   UNL     1      34.115 -19.172 -22.632  0.00  0.00    -0.017 C 
ATOM      5  C   UNL     1      36.749 -18.992 -21.418  0.00  0.00    -0.077 C 
ATOM      6  C   UNL     1      34.732 -20.287 -21.785  0.00  0.00    -0.077 C 
ATOM      7  H   UNL     1      35.134 -19.094 -20.191  0.00  0.00    -0.080 HD
ENDROOT
BRANCH   2  11
ATOM      8  F   UNL     1      33.175 -11.921 -23.765  0.00  0.00    -0.204 F 
ATOM      9  O   UNL     1      33.829 -16.194 -25.874  0.00  0.00    -0.354 OA
ATOM     10  N   UNL     1      34.323 -17.407 -25.411  0.00  0.00    -0.081 NA
ATOM     11  C   UNL     1      34.627 -17.189 -24.134  0.00  0.00    +0.100 A 
ATOM     12  C   UNL     1      34.358 -15.876 -23.721  0.00  0.00    +0.054 A 
ATOM     13  C   UNL     1      33.851 -15.282 -24.864  0.00  0.00    +0.179 A 
ATOM     14  C   UNL     1      34.470 -15.113 -22.549  0.00  0.00    +0.007 C 
ATOM     15  C   UNL     1      33.437 -13.956 -24.941  0.00  0.00    +0.070 C 
ATOM     16  C   UNL     1      34.062 -13.772 -22.590  0.00  0.00    +0.030 C 
ATOM     17  C   UNL     1      33.555 -13.206 -23.765  0.00  0.00    +0.143 C 
ENDBRANCH   2  11
BRANCH   1  18
ATOM     18  C   UNL     1      36.194 -20.813 -19.943  0.00  0.00    -0.074 C 
BRANCH  18  19
ATOM     19  C   UNL     1      35.348 -22.073 -20.091  0.00  0.00    +0.025 C 
BRANCH  19  20
ATOM     20  C   UNL     1      34.243 -22.131 -19.046  0.00  0.00    +0.203 C 
BRANCH  20  21
ATOM     21  O   UNL     1      34.677 -22.942 -17.963  0.00  0.00    -0.472 OA
BRANCH  21  22
ATOM     22  C   UNL     1      33.729 -23.303 -17.042  0.00  0.00    +0.172 C 
ATOM     23  C   UNL     1      34.111 -23.860 -15.825  0.00  0.00    +0.172 C 
ATOM     24  C   UNL     1      32.385 -23.108 -17.340  0.00  0.00    +0.040 C 
ATOM     25  C   UNL     1      33.136 -24.224 -14.896  0.00  0.00    +0.043 C 
ATOM     26  C   UNL     1      31.410 -23.472 -16.410  0.00  0.00    +0.006 C 
ATOM     27  C   UNL     1      31.786 -24.031 -15.189  0.00  0.00    +0.038 C 
BRANCH  27  29
ATOM     28  O   UNL     1      30.909 -24.169 -13.003  0.00  0.00    -0.291 OA
ATOM     29  C   UNL     1      30.770 -24.410 -14.219  0.00  0.00    +0.174 C 
ATOM     30  C   UNL     1      29.499 -25.118 -14.675  0.00  0.00    +0.077 C 
ENDBRANCH  27  29
BRANCH  23  31
ATOM     31  O   UNL     1      35.426 -24.053 -15.527  0.00  0.00    -0.468 OA
ATOM     32  C   UNL     1      35.790 -25.325 -14.995  0.00  0.00    +0.253 C 
ENDBRANCH  23  31
ENDBRANCH  21  22
ENDBRANCH  20  21
ENDBRANCH  19  20
ENDBRANCH  18  19
ENDBRANCH   1  18
TORSDOF 8
ENDMDL
MODEL 2
REMARK VINA RESULT:     -11.5      1.557      2.762
REMARK  Name = 71360
REMARK  8 active torsions:
REMARK  status: ('A' for Active; 'I' for Inactive)
REMARK    1  A    between atoms: N_1  and  C_18
REMARK    2  A    between atoms: C_2  and  C_11
REMARK    3  A    between atoms: C_18  and  C_19
REMARK    4  A    between atoms: C_19  and  C_20
REMARK    5  A    between atoms: C_20  and  O_21
REMARK    6  A    between atoms: O_21  and  C_22
REMARK    7  A    between atoms: C_23  and  O_31
REMARK    8  A    between atoms: C_27  and  C_29
REMARK                            x       y       z     vdW  Elec       q    Type
REMARK                         _______ _______ _______ _____ _____    ______ ____
ROOT
ATOM      1  N   UNL     1      36.050 -19.848 -20.661  0.00  0.00    +0.387 N 
ATOM      2  C   UNL     1      35.218 -18.617 -23.191  0.00  0.00    +0.039 C 
ATOM      3  C   UNL     1      36.466 -18.158 -22.422  0.00  0.00    -0.017 C 
ATOM      4  C   UNL     1      34.218 -19.269 -22.221  0.00  0.00    -0.017 C 
ATOM      5  C   UNL     1      37.053 -19.298 -21.583  0.00  0.00    -0.077 C 
ATOM      6  C   UNL     1      34.885 -20.368 -21.392  0.00  0.00    -0.077 C 
ATOM      7  H   UNL     1      35.729 -19.091 -20.057  0.00  0.00    -0.080 HD
ENDROOT
BRANCH   2  11
ATOM      8  F   UNL     1      33.281 -12.200 -23.730  0.00  0.00    -0.204 F 
ATOM      9  O   UNL     1      33.677 -16.562 -25.718  0.00  0.00    -0.354 OA
ATOM     10  N   UNL     1      34.184 -17.767 -25.249  0.00  0.00    -0.081 NA
ATOM     11  C   UNL     1      34.597 -17.508 -24.011  0.00  0.00    +0.100 A 
ATOM     12  C   UNL     1      34.389 -16.175 -23.630  0.00  0.00    +0.054 A 
ATOM     13  C   UNL     1      33.799 -15.613 -24.749  0.00  0.00    +0.179 A 
ATOM     14  C   UNL     1      34.613 -15.372 -22.501  0.00  0.00    +0.007 C 
ATOM     15  C   UNL     1      33.406 -14.282 -24.843  0.00  0.00    +0.070 C 
ATOM     16  C   UNL     1      34.228 -14.024 -22.561  0.00  0.00    +0.030 C 
ATOM     17  C   UNL     1      33.636 -13.491 -23.711  0.00  0.00    +0.143 C 
ENDBRANCH   2  11
BRANCH   1  18
ATOM     18  C   UNL     1      36.640 -20.896 -19.829  0.00  0.00    -0.074 C 
BRANCH  18  19
ATOM     19  C   UNL     1      35.546 -21.712 -19.150  0.00  0.00    +0.025 C 
BRANCH  19  20
ATOM     20  C   UNL     1      35.930 -22.086 -17.725  0.00  0.00    +0.203 C 
BRANCH  20  21
ATOM     21  O   UNL     1      34.996 -23.035 -17.231  0.00  0.00    -0.472 OA
BRANCH  21  22
ATOM     22  C   UNL     1      35.228 -23.538 -15.977  0.00  0.00    +0.172 C 
ATOM     23  C   UNL     1      34.165 -23.789 -15.116  0.00  0.00    +0.172 C 
ATOM     24  C   UNL     1      36.536 -23.790 -15.579  0.00  0.00    +0.040 C 
ATOM     25  C   UNL     1      34.413 -24.300 -13.842  0.00  0.00    +0.043 C 
ATOM     26  C   UNL     1      36.785 -24.301 -14.305  0.00  0.00    +0.006 C 
ATOM     27  C   UNL     1      35.724 -24.556 -13.436  0.00  0.00    +0.038 C 
BRANCH  27  29
ATOM     28  O   UNL     1      36.485 -26.220 -11.948  0.00  0.00    -0.291 OA
ATOM     29  C   UNL     1      35.983 -25.090 -12.108  0.00  0.00    +0.174 C 
ATOM     30  C   UNL     1      35.643 -24.267 -10.870  0.00  0.00    +0.077 C 
ENDBRANCH  27  29
BRANCH  23  31
ATOM     31  O   UNL     1      32.881 -23.544 -15.501  0.00  0.00    -0.468 OA
ATOM     32  C   UNL     1      31.924 -23.331 -14.465  0.00  0.00    +0.253 C 
ENDBRANCH  23  31
ENDBRANCH  21  22
ENDBRANCH  20  21
ENDBRANCH  19  20
ENDBRANCH  18  19
ENDBRANCH   1  18
TORSDOF 8
ENDMDL
MODEL 3
REMARK VINA RESULT:     -11.5      3.901     11.198
REMARK  Name = 71360
REMARK  8 active torsions:
REMARK  status: ('A' for Active; 'I' for Inactive)
REMARK    1  A    between atoms: N_1  and  C_18
REMARK    2  A    between atoms: C_2  and  C_11
REMARK    3  A    between atoms: C_18  and  C_19
REMARK    4  A    between atoms: C_19  and  C_20
REMARK    5  A    between atoms: C_20  and  O_21
REMARK    6  A    between atoms: O_21  and  C_22
REMARK    7  A    between atoms: C_23  and  O_31
REMARK    8  A    between atoms: C_27  and  C_29
REMARK                            x       y       z     vdW  Elec       q    Type
REMARK                         _______ _______ _______ _____ _____    ______ ____
ROOT
ATOM      1  N   UNL     1      35.192 -17.048 -24.143  0.00  0.00    +0.387 N 
ATOM      2  C   UNL     1      34.674 -18.938 -21.959  0.00  0.00    +0.039 C 
ATOM      3  C   UNL     1      35.369 -17.586 -21.733  0.00  0.00    -0.017 C 
ATOM      4  C   UNL     1      34.879 -19.393 -23.413  0.00  0.00    -0.017 C 
ATOM      5  C   UNL     1      34.938 -16.557 -22.782  0.00  0.00    -0.077 C 
ATOM      6  C   UNL     1      34.464 -18.299 -24.401  0.00  0.00    -0.077 C 
ATOM      7  H   UNL     1      36.190 -17.243 -24.226  0.00  0.00    -0.080 HD
ENDROOT
BRANCH   2  11
ATOM      8  F   UNL     1      33.012 -23.749 -17.564  0.00  0.00    -0.204 F 
ATOM      9  O   UNL     1      36.437 -21.184 -19.761  0.00  0.00    -0.354 OA
ATOM     10  N   UNL     1      36.391 -20.170 -20.710  0.00  0.00    -0.081 NA
ATOM     11  C   UNL     1      35.096 -19.986 -20.954  0.00  0.00    +0.100 A 
ATOM     12  C   UNL     1      34.270 -20.838 -20.208  0.00  0.00    +0.054 A 
ATOM     13  C   UNL     1      35.169 -21.580 -19.462  0.00  0.00    +0.179 A 
ATOM     14  C   UNL     1      32.896 -21.082 -20.058  0.00  0.00    +0.007 C 
ATOM     15  C   UNL     1      34.807 -22.574 -18.558  0.00  0.00    +0.070 C 
ATOM     16  C   UNL     1      32.495 -22.076 -19.154  0.00  0.00    +0.030 C 
ATOM     17  C   UNL     1      33.434 -22.807 -18.418  0.00  0.00    +0.143 C 
ENDBRANCH   2  11
BRANCH   1  18
ATOM     18  C   UNL     1      34.828 -16.032 -25.130  0.00  0.00    -0.074 C 
BRANCH  18  19
ATOM     19  C   UNL     1      33.437 -15.483 -24.835  0.00  0.00    +0.025 C 
BRANCH  19  20
ATOM     20  C   UNL     1      33.332 -14.006 -25.191  0.00  0.00    +0.203 C 
BRANCH  20  21
ATOM     21  O   UNL     1      34.018 -13.246 -24.206  0.00  0.00    -0.472 OA
BRANCH  21  22
ATOM     22  C   UNL     1      33.415 -12.089 -23.787  0.00  0.00    +0.172 C 
ATOM     23  C   UNL     1      32.420 -12.130 -22.816  0.00  0.00    +0.172 C 
ATOM     24  C   UNL     1      33.810 -10.878 -24.344  0.00  0.00    +0.040 C 
ATOM     25  C   UNL     1      31.813 -10.946 -22.397  0.00  0.00    +0.043 C 
ATOM     26  C   UNL     1      33.203  -9.693 -23.926  0.00  0.00    +0.006 C 
ATOM     27  C   UNL     1      32.204  -9.727 -22.953  0.00  0.00    +0.038 C 
BRANCH  27  29
ATOM     28  O   UNL     1      30.710  -7.920 -23.213  0.00  0.00    -0.291 OA
ATOM     29  C   UNL     1      31.572  -8.492 -22.516  0.00  0.00    +0.174 C 
ATOM     30  C   UNL     1      31.954  -7.864 -21.180  0.00  0.00    +0.077 C 
ENDBRANCH  27  29
BRANCH  23  31
ATOM     31  O   UNL     1      32.029 -13.314 -22.265  0.00  0.00    -0.468 OA
ATOM     32  C   UNL     1      32.028 -13.397 -20.842  0.00  0.00    +0.253 C 
ENDBRANCH  23  31
ENDBRANCH  21  22
ENDBRANCH  20  21
ENDBRANCH  19  20
ENDBRANCH  18  19
ENDBRANCH   1  18
TORSDOF 8
ENDMDL
MODEL 4
REMARK VINA RESULT:     -11.4      4.530     12.698
REMARK  Name = 71360
REMARK  8 active torsions:
REMARK  status: ('A' for Active; 'I' for Inactive)
REMARK    1  A    between atoms: N_1  and  C_18
REMARK    2  A    between atoms: C_2  and  C_11
REMARK    3  A    between atoms: C_18  and  C_19
REMARK    4  A    between atoms: C_19  and  C_20
REMARK    5  A    between atoms: C_20  and  O_21
REMARK    6  A    between atoms: O_21  and  C_22
REMARK    7  A    between atoms: C_23  and  O_31
REMARK    8  A    between atoms: C_27  and  C_29
REMARK                            x       y       z     vdW  Elec       q    Type
REMARK                         _______ _______ _______ _____ _____    ______ ____
ROOT
ATOM      1  N   UNL     1      33.957 -16.170 -24.165  0.00  0.00    +0.387 N 
ATOM      2  C   UNL     1      35.552 -18.032 -22.554  0.00  0.00    +0.039 C 
ATOM      3  C   UNL     1      34.754 -18.483 -23.787  0.00  0.00    -0.017 C 
ATOM      4  C   UNL     1      34.925 -16.758 -21.964  0.00  0.00    -0.017 C 
ATOM      5  C   UNL     1      34.590 -17.339 -24.792  0.00  0.00    -0.077 C 
ATOM      6  C   UNL     1      34.756 -15.676 -23.034  0.00  0.00    -0.077 C 
ATOM      7  H   UNL     1      33.048 -16.459 -23.805  0.00  0.00    -0.080 HD
ENDROOT
BRANCH   2  11
ATOM      8  F   UNL     1      32.803 -22.850 -18.751  0.00  0.00    -0.204 F 
ATOM      9  O   UNL     1      36.726 -20.442 -20.146  0.00  0.00    -0.354 OA
ATOM     10  N   UNL     1      36.922 -19.402 -21.046  0.00  0.00    -0.081 NA
ATOM     11  C   UNL     1      35.712 -19.132 -21.528  0.00  0.00    +0.100 A 
ATOM     12  C   UNL     1      34.710 -19.951 -20.988  0.00  0.00    +0.054 A 
ATOM     13  C   UNL     1      35.404 -20.768 -20.113  0.00  0.00    +0.179 A 
ATOM     14  C   UNL     1      33.322 -20.113 -21.115  0.00  0.00    +0.007 C 
ATOM     15  C   UNL     1      34.819 -21.761 -19.334  0.00  0.00    +0.070 C 
ATOM     16  C   UNL     1      32.698 -21.105 -20.344  0.00  0.00    +0.030 C 
ATOM     17  C   UNL     1      33.434 -21.913 -19.471  0.00  0.00    +0.143 C 
ENDBRANCH   2  11
BRANCH   1  18
ATOM     18  C   UNL     1      33.756 -15.107 -25.151  0.00  0.00    -0.074 C 
BRANCH  18  19
ATOM     19  C   UNL     1      33.076 -13.907 -24.503  0.00  0.00    +0.025 C 
BRANCH  19  20
ATOM     20  C   UNL     1      33.769 -12.603 -24.876  0.00  0.00    +0.203 C 
BRANCH  20  21
ATOM     21  O   UNL     1      33.466 -11.623 -23.892  0.00  0.00    -0.472 OA
BRANCH  21  22
ATOM     22  C   UNL     1      33.697 -10.316 -24.230  0.00  0.00    +0.172 C 
ATOM     23  C   UNL     1      32.864  -9.311 -23.749  0.00  0.00    +0.172 C 
ATOM     24  C   UNL     1      34.772 -10.009 -25.057  0.00  0.00    +0.040 C 
ATOM     25  C   UNL     1      33.110  -7.983 -24.100  0.00  0.00    +0.043 C 
ATOM     26  C   UNL     1      35.018  -8.681 -25.407  0.00  0.00    +0.006 C 
ATOM     27  C   UNL     1      34.187  -7.668 -24.929  0.00  0.00    +0.038 C 
BRANCH  27  29
ATOM     28  O   UNL     1      35.333  -5.982 -26.116  0.00  0.00    -0.291 OA
ATOM     29  C   UNL     1      34.444  -6.284 -25.294  0.00  0.00    +0.174 C 
ATOM     30  C   UNL     1      33.621  -5.160 -24.673  0.00  0.00    +0.077 C 
ENDBRANCH  27  29
BRANCH  23  31
ATOM     31  O   UNL     1      31.810  -9.605 -22.938  0.00  0.00    -0.468 OA
ATOM     32  C   UNL     1      31.800  -9.005 -21.645  0.00  0.00    +0.253 C 
ENDBRANCH  23  31
ENDBRANCH  21  22
ENDBRANCH  20  21
ENDBRANCH  19  20
ENDBRANCH  18  19
ENDBRANCH   1  18
TORSDOF 8
ENDMDL
MODEL 5
REMARK VINA RESULT:     -11.2      1.910      2.564
REMARK  Name = 71360
REMARK  8 active torsions:
REMARK  status: ('A' for Active; 'I' for Inactive)
REMARK    1  A    between atoms: N_1  and  C_18
REMARK    2  A    between atoms: C_2  and  C_11
REMARK    3  A    between atoms: C_18  and  C_19
REMARK    4  A    between atoms: C_19  and  C_20
REMARK    5  A    between atoms: C_20  and  O_21
REMARK    6  A    between atoms: O_21  and  C_22
REMARK    7  A    between atoms: C_23  and  O_31
REMARK    8  A    between atoms: C_27  and  C_29
REMARK                            x       y       z     vdW  Elec       q    Type
REMARK                         _______ _______ _______ _____ _____    ______ ____
ROOT
ATOM      1  N   UNL     1      35.931 -19.802 -20.483  0.00  0.00    +0.387 N 
ATOM      2  C   UNL     1      35.151 -18.642 -23.062  0.00  0.00    +0.039 C 
ATOM      3  C   UNL     1      36.444 -18.241 -22.335  0.00  0.00    -0.017 C 
ATOM      4  C   UNL     1      34.122 -19.165 -22.047  0.00  0.00    -0.017 C 
ATOM      5  C   UNL     1      36.957 -19.378 -21.446  0.00  0.00    -0.077 C 
ATOM      6  C   UNL     1      34.718 -20.268 -21.170  0.00  0.00    -0.077 C 
ATOM      7  H   UNL     1      35.680 -18.993 -19.915  0.00  0.00    -0.080 HD
ENDROOT
BRANCH   2  11
ATOM      8  F   UNL     1      33.425 -12.185 -23.808  0.00  0.00    -0.204 F 
ATOM      9  O   UNL     1      33.790 -16.594 -25.696  0.00  0.00    -0.354 OA
ATOM     10  N   UNL     1      34.240 -17.804 -25.183  0.00  0.00    -0.081 NA
ATOM     11  C   UNL     1      34.602 -17.533 -23.931  0.00  0.00    +0.100 A 
ATOM     12  C   UNL     1      34.413 -16.187 -23.584  0.00  0.00    +0.054 A 
ATOM     13  C   UNL     1      33.893 -15.631 -24.740  0.00  0.00    +0.179 A 
ATOM     14  C   UNL     1      34.606 -15.369 -22.461  0.00  0.00    +0.007 C 
ATOM     15  C   UNL     1      33.543 -14.291 -24.876  0.00  0.00    +0.070 C 
ATOM     16  C   UNL     1      34.263 -14.013 -22.563  0.00  0.00    +0.030 C 
ATOM     17  C   UNL     1      33.741 -13.486 -23.749  0.00  0.00    +0.143 C 
ENDBRANCH   2  11
BRANCH   1  18
ATOM     18  C   UNL     1      36.456 -20.848 -19.605  0.00  0.00    -0.074 C 
BRANCH  18  19
ATOM     19  C   UNL     1      35.490 -22.026 -19.551  0.00  0.00    +0.025 C 
BRANCH  19  20
ATOM     20  C   UNL     1      35.078 -22.346 -18.120  0.00  0.00    +0.203 C 
BRANCH  20  21
ATOM     21  O   UNL     1      36.228 -22.748 -17.389  0.00  0.00    -0.472 OA
BRANCH  21  22
ATOM     22  C   UNL     1      36.033 -23.124 -16.086  0.00  0.00    +0.172 C 
ATOM     23  C   UNL     1      37.110 -23.537 -15.308  0.00  0.00    +0.172 C 
ATOM     24  C   UNL     1      34.749 -23.089 -15.555  0.00  0.00    +0.040 C 
ATOM     25  C   UNL     1      36.899 -23.919 -13.983  0.00  0.00    +0.043 C 
ATOM     26  C   UNL     1      34.538 -23.470 -14.229  0.00  0.00    +0.006 C 
ATOM     27  C   UNL     1      35.612 -23.885 -13.444  0.00  0.00    +0.038 C 
BRANCH  27  29
ATOM     28  O   UNL     1      34.491 -25.087 -11.752  0.00  0.00    -0.291 OA
ATOM     29  C   UNL     1      35.392 -24.282 -12.062  0.00  0.00    +0.174 C 
ATOM     30  C   UNL     1      36.270 -23.715 -10.951  0.00  0.00    +0.077 C 
ENDBRANCH  27  29
BRANCH  23  31
ATOM     31  O   UNL     1      38.371 -23.574 -15.823  0.00  0.00    -0.468 OA
ATOM     32  C   UNL     1      39.223 -24.625 -15.375  0.00  0.00    +0.253 C 
ENDBRANCH  23  31
ENDBRANCH  21  22
ENDBRANCH  20  21
ENDBRANCH  19  20
ENDBRANCH  18  19
ENDBRANCH   1  18
TORSDOF 8
ENDMDL
MODEL 6
REMARK VINA RESULT:     -11.0      2.408      4.707
REMARK  Name = 71360
REMARK  8 active torsions:
REMARK  status: ('A' for Active; 'I' for Inactive)
REMARK    1  A    between atoms: N_1  and  C_18
REMARK    2  A    between atoms: C_2  and  C_11
REMARK    3  A    between atoms: C_18  and  C_19
REMARK    4  A    between atoms: C_19  and  C_20
REMARK    5  A    between atoms: C_20  and  O_21
REMARK    6  A    between atoms: O_21  and  C_22
REMARK    7  A    between atoms: C_23  and  O_31
REMARK    8  A    between atoms: C_27  and  C_29
REMARK                            x       y       z     vdW  Elec       q    Type
REMARK                         _______ _______ _______ _____ _____    ______ ____
ROOT
ATOM      1  N   UNL     1      33.590 -22.288 -18.784  0.00  0.00    +0.387 N 
ATOM      2  C   UNL     1      34.578 -20.603 -20.972  0.00  0.00    +0.039 C 
ATOM      3  C   UNL     1      35.492 -21.114 -19.848  0.00  0.00    -0.017 C 
ATOM      4  C   UNL     1      33.124 -20.543 -20.476  0.00  0.00    -0.017 C 
ATOM      5  C   UNL     1      34.971 -22.431 -19.264  0.00  0.00    -0.077 C 
ATOM      6  C   UNL     1      32.689 -21.880 -19.871  0.00  0.00    -0.077 C 
ATOM      7  H   UNL     1      33.578 -21.555 -18.074  0.00  0.00    -0.080 HD
ENDROOT
BRANCH   2  11
ATOM      8  F   UNL     1      34.300 -16.013 -25.880  0.00  0.00    -0.204 F 
ATOM      9  O   UNL     1      36.168 -17.449 -21.686  0.00  0.00    -0.354 OA
ATOM     10  N   UNL     1      35.958 -18.574 -20.898  0.00  0.00    -0.081 NA
ATOM     11  C   UNL     1      35.050 -19.289 -21.556  0.00  0.00    +0.100 A 
ATOM     12  C   UNL     1      34.640 -18.689 -22.755  0.00  0.00    +0.054 A 
ATOM     13  C   UNL     1      35.380 -17.520 -22.795  0.00  0.00    +0.179 A 
ATOM     14  C   UNL     1      33.753 -18.970 -23.805  0.00  0.00    +0.007 C 
ATOM     15  C   UNL     1      35.309 -16.581 -23.818  0.00  0.00    +0.070 C 
ATOM     16  C   UNL     1      33.656 -18.044 -24.855  0.00  0.00    +0.030 C 
ATOM     17  C   UNL     1      34.420 -16.873 -24.859  0.00  0.00    +0.143 C 
ENDBRANCH   2  11
BRANCH   1  18
ATOM     18  C   UNL     1      33.127 -23.537 -18.178  0.00  0.00    -0.074 C 
BRANCH  18  19
ATOM     19  C   UNL     1      32.123 -23.247 -17.069  0.00  0.00    +0.025 C 
BRANCH  19  20
ATOM     20  C   UNL     1      32.690 -23.587 -15.698  0.00  0.00    +0.203 C 
BRANCH  20  21
ATOM     21  O   UNL     1      33.914 -22.888 -15.520  0.00  0.00    -0.472 OA
BRANCH  21  22
ATOM     22  C   UNL     1      35.038 -23.648 -15.326  0.00  0.00    +0.172 C 
ATOM     23  C   UNL     1      36.298 -23.102 -15.546  0.00  0.00    +0.172 C 
ATOM     24  C   UNL     1      34.901 -24.968 -14.910  0.00  0.00    +0.040 C 
ATOM     25  C   UNL     1      37.435 -23.886 -15.346  0.00  0.00    +0.043 C 
ATOM     26  C   UNL     1      36.038 -25.752 -14.710  0.00  0.00    +0.006 C 
ATOM     27  C   UNL     1      37.305 -25.211 -14.928  0.00  0.00    +0.038 C 
BRANCH  27  29
ATOM     28  O   UNL     1      38.470 -27.262 -14.899  0.00  0.00    -0.291 OA
ATOM     29  C   UNL     1      38.490 -26.027 -14.719  0.00  0.00    +0.174 C 
ATOM     30  C   UNL     1      39.798 -25.383 -14.271  0.00  0.00    +0.077 C 
ENDBRANCH  27  29
BRANCH  23  31
ATOM     31  O   UNL     1      36.439 -21.810 -15.953  0.00  0.00    -0.468 OA
ATOM     32  C   UNL     1      37.513 -21.525 -16.847  0.00  0.00    +0.253 C 
ENDBRANCH  23  31
ENDBRANCH  21  22
ENDBRANCH  20  21
ENDBRANCH  19  20
ENDBRANCH  18  19
ENDBRANCH   1  18
TORSDOF 8
ENDMDL
MODEL 7
REMARK VINA RESULT:     -10.9      4.311     12.314
REMARK  Name = 71360
REMARK  8 active torsions:
REMARK  status: ('A' for Active; 'I' for Inactive)
REMARK    1  A    between atoms: N_1  and  C_18
REMARK    2  A    between atoms: C_2  and  C_11
REMARK    3  A    between atoms: C_18  and  C_19
REMARK    4  A    between atoms: C_19  and  C_20
REMARK    5  A    between atoms: C_20  and  O_21
REMARK    6  A    between atoms: O_21  and  C_22
REMARK    7  A    between atoms: C_23  and  O_31
REMARK    8  A    between atoms: C_27  and  C_29
REMARK                            x       y       z     vdW  Elec       q    Type
REMARK                         _______ _______ _______ _____ _____    ______ ____
ROOT
ATOM      1  N   UNL     1      34.646 -16.458 -24.513  0.00  0.00    +0.387 N 
ATOM      2  C   UNL     1      34.529 -18.351 -22.275  0.00  0.00    +0.039 C 
ATOM      3  C   UNL     1      35.167 -16.958 -22.145  0.00  0.00    -0.017 C 
ATOM      4  C   UNL     1      34.569 -18.808 -23.742  0.00  0.00    -0.017 C 
ATOM      5  C   UNL     1      34.542 -15.967 -23.132  0.00  0.00    -0.077 C 
ATOM      6  C   UNL     1      33.966 -17.751 -24.670  0.00  0.00    -0.077 C 
ATOM      7  H   UNL     1      35.634 -16.595 -24.725  0.00  0.00    -0.080 HD
ENDROOT
BRANCH   2  11
ATOM      8  F   UNL     1      33.767 -23.520 -18.041  0.00  0.00    -0.204 F 
ATOM      9  O   UNL     1      36.688 -20.391 -20.235  0.00  0.00    -0.354 OA
ATOM     10  N   UNL     1      36.456 -19.361 -21.137  0.00  0.00    -0.081 NA
ATOM     11  C   UNL     1      35.140 -19.363 -21.331  0.00  0.00    +0.100 A 
ATOM     12  C   UNL     1      34.478 -20.356 -20.595  0.00  0.00    +0.054 A 
ATOM     13  C   UNL     1      35.505 -20.984 -19.912  0.00  0.00    +0.179 A 
ATOM     14  C   UNL     1      33.162 -20.807 -20.411  0.00  0.00    +0.007 C 
ATOM     15  C   UNL     1      35.329 -22.054 -19.041  0.00  0.00    +0.070 C 
ATOM     16  C   UNL     1      32.947 -21.884 -19.539  0.00  0.00    +0.030 C 
ATOM     17  C   UNL     1      34.012 -22.494 -18.867  0.00  0.00    +0.143 C 
ENDBRANCH   2  11
BRANCH   1  18
ATOM     18  C   UNL     1      34.096 -15.475 -25.447  0.00  0.00    -0.074 C 
BRANCH  18  19
ATOM     19  C   UNL     1      33.396 -14.355 -24.685  0.00  0.00    +0.025 C 
BRANCH  19  20
ATOM     20  C   UNL     1      33.569 -13.012 -25.382  0.00  0.00    +0.203 C 
BRANCH  20  21
ATOM     21  O   UNL     1      34.092 -12.075 -24.451  0.00  0.00    -0.472 OA
BRANCH  21  22
ATOM     22  C   UNL     1      33.406 -10.898 -24.305  0.00  0.00    +0.172 C 
ATOM     23  C   UNL     1      33.471  -9.922 -25.294  0.00  0.00    +0.172 C 
ATOM     24  C   UNL     1      32.647 -10.694 -23.158  0.00  0.00    +0.040 C 
ATOM     25  C   UNL     1      32.768  -8.728 -25.133  0.00  0.00    +0.043 C 
ATOM     26  C   UNL     1      31.943  -9.500 -22.997  0.00  0.00    +0.006 C 
ATOM     27  C   UNL     1      32.005  -8.517 -23.985  0.00  0.00    +0.038 C 
BRANCH  27  29
ATOM     28  O   UNL     1      30.691  -6.997 -22.748  0.00  0.00    -0.291 OA
ATOM     29  C   UNL     1      31.271  -7.272 -23.818  0.00  0.00    +0.174 C 
ATOM     30  C   UNL     1      31.195  -6.266 -24.961  0.00  0.00    +0.077 C 
ENDBRANCH  27  29
BRANCH  23  31
ATOM     31  O   UNL     1      34.213 -10.117 -26.420  0.00  0.00    -0.468 OA
ATOM     32  C   UNL     1      35.438  -9.394 -26.522  0.00  0.00    +0.253 C 
ENDBRANCH  23  31
ENDBRANCH  21  22
ENDBRANCH  20  21
ENDBRANCH  19  20
ENDBRANCH  18  19
ENDBRANCH   1  18
TORSDOF 8
ENDMDL
MODEL 8
REMARK VINA RESULT:     -10.9      3.624     10.652
REMARK  Name = 71360
REMARK  8 active torsions:
REMARK  status: ('A' for Active; 'I' for Inactive)
REMARK    1  A    between atoms: N_1  and  C_18
REMARK    2  A    between atoms: C_2  and  C_11
REMARK    3  A    between atoms: C_18  and  C_19
REMARK    4  A    between atoms: C_19  and  C_20
REMARK    5  A    between atoms: C_20  and  O_21
REMARK    6  A    between atoms: O_21  and  C_22
REMARK    7  A    between atoms: C_23  and  O_31
REMARK    8  A    between atoms: C_27  and  C_29
REMARK                            x       y       z     vdW  Elec       q    Type
REMARK                         _______ _______ _______ _____ _____    ______ ____
ROOT
ATOM      1  N   UNL     1      35.446 -18.890 -21.516  0.00  0.00    +0.387 N 
ATOM      2  C   UNL     1      34.988 -21.433 -20.125  0.00  0.00    +0.039 C 
ATOM      3  C   UNL     1      33.836 -20.536 -20.605  0.00  0.00    -0.017 C 
ATOM      4  C   UNL     1      36.251 -20.584 -19.901  0.00  0.00    -0.017 C 
ATOM      5  C   UNL     1      34.254 -19.696 -21.815  0.00  0.00    -0.077 C 
ATOM      6  C   UNL     1      36.581 -19.743 -21.136  0.00  0.00    -0.077 C 
ATOM      7  H   UNL     1      35.227 -18.287 -20.723  0.00  0.00    -0.080 HD
ENDROOT
BRANCH   2  11
ATOM      8  F   UNL     1      36.519 -23.728 -13.991  0.00  0.00    -0.204 F 
ATOM      9  O   UNL     1      33.425 -23.557 -17.670  0.00  0.00    -0.354 OA
ATOM     10  N   UNL     1      33.458 -22.909 -18.898  0.00  0.00    -0.081 NA
ATOM     11  C   UNL     1      34.619 -22.260 -18.913  0.00  0.00    +0.100 A 
ATOM     12  C   UNL     1      35.367 -22.444 -17.742  0.00  0.00    +0.054 A 
ATOM     13  C   UNL     1      34.567 -23.279 -16.982  0.00  0.00    +0.179 A 
ATOM     14  C   UNL     1      36.602 -22.027 -17.224  0.00  0.00    +0.007 C 
ATOM     15  C   UNL     1      34.899 -23.743 -15.713  0.00  0.00    +0.070 C 
ATOM     16  C   UNL     1      36.970 -22.477 -15.947  0.00  0.00    +0.030 C 
ATOM     17  C   UNL     1      36.133 -23.319 -15.207  0.00  0.00    +0.143 C 
ENDBRANCH   2  11
BRANCH   1  18
ATOM     18  C   UNL     1      35.797 -18.052 -22.662  0.00  0.00    -0.074 C 
BRANCH  18  19
ATOM     19  C   UNL     1      34.707 -18.124 -23.725  0.00  0.00    +0.025 C 
BRANCH  19  20
ATOM     20  C   UNL     1      34.647 -16.848 -24.552  0.00  0.00    +0.203 C 
BRANCH  20  21
ATOM     21  O   UNL     1      35.202 -15.782 -23.795  0.00  0.00    -0.472 OA
BRANCH  21  22
ATOM     22  C   UNL     1      34.320 -14.885 -23.249  0.00  0.00    +0.172 C 
ATOM     23  C   UNL     1      33.525 -14.096 -24.073  0.00  0.00    +0.172 C 
ATOM     24  C   UNL     1      34.234 -14.776 -21.866  0.00  0.00    +0.040 C 
ATOM     25  C   UNL     1      32.631 -13.187 -23.506  0.00  0.00    +0.043 C 
ATOM     26  C   UNL     1      33.340 -13.867 -21.299  0.00  0.00    +0.006 C 
ATOM     27  C   UNL     1      32.539 -13.072 -22.119  0.00  0.00    +0.038 C 
BRANCH  27  29
ATOM     28  O   UNL     1      30.732 -11.559 -22.214  0.00  0.00    -0.291 OA
ATOM     29  C   UNL     1      31.607 -12.125 -21.528  0.00  0.00    +0.174 C 
ATOM     30  C   UNL     1      31.681 -11.801 -20.040  0.00  0.00    +0.077 C 
ENDBRANCH  27  29
BRANCH  23  31
ATOM     31  O   UNL     1      33.605 -14.200 -25.429  0.00  0.00    -0.468 OA
ATOM     32  C   UNL     1      33.525 -12.989 -26.177  0.00  0.00    +0.253 C 
ENDBRANCH  23  31
ENDBRANCH  21  22
ENDBRANCH  20  21
ENDBRANCH  19  20
ENDBRANCH  18  19
ENDBRANCH   1  18
TORSDOF 8
ENDMDL
MODEL 9
REMARK VINA RESULT:     -10.9      3.630     10.930
REMARK  Name = 71360
REMARK  8 active torsions:
REMARK  status: ('A' for Active; 'I' for Inactive)
REMARK    1  A    between atoms: N_1  and  C_18
REMARK    2  A    between atoms: C_2  and  C_11
REMARK    3  A    between atoms: C_18  and  C_19
REMARK    4  A    between atoms: C_19  and  C_20
REMARK    5  A    between atoms: C_20  and  O_21
REMARK    6  A    between atoms: O_21  and  C_22
REMARK    7  A    between atoms: C_23  and  O_31
REMARK    8  A    between atoms: C_27  and  C_29
REMARK                            x       y       z     vdW  Elec       q    Type
REMARK                         _______ _______ _______ _____ _____    ______ ____
ROOT
ATOM      1  N   UNL     1      34.442 -19.958 -21.013  0.00  0.00    +0.387 N 
ATOM      2  C   UNL     1      34.164 -22.237 -19.187  0.00  0.00    +0.039 C 
ATOM      3  C   UNL     1      33.008 -21.268 -19.479  0.00  0.00    -0.017 C 
ATOM      4  C   UNL     1      35.509 -21.533 -19.429  0.00  0.00    -0.017 C 
ATOM      5  C   UNL     1      33.148 -20.638 -20.868  0.00  0.00    -0.077 C 
ATOM      6  C   UNL     1      35.559 -20.895 -20.819  0.00  0.00    -0.077 C 
ATOM      7  H   UNL     1      34.505 -19.241 -20.290  0.00  0.00    -0.080 HD
ENDROOT
BRANCH   2  11
ATOM      8  F   UNL     1      30.398 -24.387 -14.047  0.00  0.00    -0.204 F 
ATOM      9  O   UNL     1      34.760 -23.741 -15.967  0.00  0.00    -0.354 OA
ATOM     10  N   UNL     1      35.186 -23.210 -17.178  0.00  0.00    -0.081 NA
ATOM     11  C   UNL     1      34.070 -22.860 -17.812  0.00  0.00    +0.100 A 
ATOM     12  C   UNL     1      32.910 -23.136 -17.074  0.00  0.00    +0.054 A 
ATOM     13  C   UNL     1      33.401 -23.695 -15.907  0.00  0.00    +0.179 A 
ATOM     14  C   UNL     1      31.523 -22.990 -17.229  0.00  0.00    +0.007 C 
ATOM     15  C   UNL     1      32.606 -24.136 -14.854  0.00  0.00    +0.070 C 
ATOM     16  C   UNL     1      30.691 -23.424 -16.186  0.00  0.00    +0.030 C 
ATOM     17  C   UNL     1      31.225 -23.985 -15.021  0.00  0.00    +0.143 C 
ENDBRANCH   2  11
BRANCH   1  18
ATOM     18  C   UNL     1      34.537 -19.314 -22.324  0.00  0.00    -0.074 C 
BRANCH  18  19
ATOM     19  C   UNL     1      35.177 -17.937 -22.191  0.00  0.00    +0.025 C 
BRANCH  19  20
ATOM     20  C   UNL     1      34.685 -16.985 -23.273  0.00  0.00    +0.203 C 
BRANCH  20  21
ATOM     21  O   UNL     1      35.199 -15.687 -23.011  0.00  0.00    -0.472 OA
BRANCH  21  22
ATOM     22  C   UNL     1      34.299 -14.734 -22.612  0.00  0.00    +0.172 C 
ATOM     23  C   UNL     1      33.811 -13.806 -23.526  0.00  0.00    +0.172 C 
ATOM     24  C   UNL     1      33.882 -14.707 -21.285  0.00  0.00    +0.040 C 
ATOM     25  C   UNL     1      32.895 -12.840 -23.107  0.00  0.00    +0.043 C 
ATOM     26  C   UNL     1      32.966 -13.742 -20.867  0.00  0.00    +0.006 C 
ATOM     27  C   UNL     1      32.473 -12.808 -21.778  0.00  0.00    +0.038 C 
BRANCH  27  29
ATOM     28  O   UNL     1      30.659 -11.339 -22.120  0.00  0.00    -0.291 OA
ATOM     29  C   UNL     1      31.517 -11.801 -21.342  0.00  0.00    +0.174 C 
ATOM     30  C   UNL     1      31.545 -11.286 -19.907  0.00  0.00    +0.077 C 
ENDBRANCH  27  29
BRANCH  23  31
ATOM     31  O   UNL     1      34.214 -13.827 -24.827  0.00  0.00    -0.468 OA
ATOM     32  C   UNL     1      33.215 -14.082 -25.811  0.00  0.00    +0.253 C 
ENDBRANCH  23  31
ENDBRANCH  21  22
ENDBRANCH  20  21
ENDBRANCH  19  20
ENDBRANCH  18  19
ENDBRANCH   1  18
TORSDOF 8
ENDMDL
