MODEL 1
REMARK VINA RESULT:     -11.3      0.000      0.000
REMARK  Name = 11314340
REMARK  7 active torsions:
REMARK  status: ('A' for Active; 'I' for Inactive)
REMARK    1  A    between atoms: C_2  and  C_10
REMARK    2  A    between atoms: C_3  and  O_18
REMARK    3  A    between atoms: O_18  and  C_19
REMARK    4  A    between atoms: C_19  and  C_20
REMARK    5  A    between atoms: C_20  and  N_21
REMARK    6  A    between atoms: C_20  and  C_25
REMARK    7  A    between atoms: C_25  and  C_26
REMARK                            x       y       z     vdW  Elec       q    Type
REMARK                         _______ _______ _______ _____ _____    ______ ____
ROOT
ATOM      1  N   UNL     1      33.447 -14.912 -26.086  0.00  0.00    -0.239 NA
ATOM      2  C   UNL     1      33.849 -12.951 -24.741  0.00  0.00    +0.022 C 
ATOM      3  C   UNL     1      34.210 -15.129 -23.803  0.00  0.00    +0.158 C 
ATOM      4  C   UNL     1      34.223 -13.745 -23.667  0.00  0.00    +0.040 C 
ATOM      5  C   UNL     1      33.472 -13.571 -25.917  0.00  0.00    +0.099 C 
ATOM      6  C   UNL     1      33.817 -15.658 -25.021  0.00  0.00    +0.136 C 
ENDROOT
BRANCH   2  10
ATOM      7  N   UNL     1      32.972  -7.428 -23.203  0.00  0.00    -0.280 N 
ATOM      8  N   UNL     1      33.810  -7.434 -24.259  0.00  0.00    -0.173 NA
ATOM      9  C   UNL     1      33.189  -9.531 -23.641  0.00  0.00    +0.032 A 
ATOM     10  C   UNL     1      33.851 -11.504 -24.631  0.00  0.00    +0.002 C 
ATOM     11  C   UNL     1      33.968  -8.736 -24.560  0.00  0.00    +0.102 A 
ATOM     12  C   UNL     1      33.079 -10.915 -23.612  0.00  0.00    +0.003 C 
ATOM     13  C   UNL     1      32.566  -8.664 -22.789  0.00  0.00    +0.053 A 
ATOM     14  C   UNL     1      34.640 -10.761 -25.565  0.00  0.00    +0.002 C 
ATOM     15  C   UNL     1      34.731  -9.351 -25.569  0.00  0.00    +0.021 C 
ATOM     16  C   UNL     1      31.652  -8.843 -21.649  0.00  0.00    +0.051 C 
ATOM     17  H   UNL     1      32.676  -6.597 -22.765  0.00  0.00    +0.189 HD
ENDBRANCH   2  10
BRANCH   3  18
ATOM     18  O   UNL     1      34.572 -15.934 -22.773  0.00  0.00    -0.476 OA
BRANCH  18  19
ATOM     19  C   UNL     1      35.463 -17.011 -23.066  0.00  0.00    +0.184 C 
BRANCH  19  20
ATOM     20  C   UNL     1      34.802 -18.354 -22.735  0.00  0.00    -0.017 C 
BRANCH  20  21
ATOM     21  N   UNL     1      34.586 -19.084 -23.987  0.00  0.00    +0.384 N 
ATOM     22  H   UNL     1      34.757 -18.463 -24.777  0.00  0.00    -0.089 HD
ATOM     23  H   UNL     1      33.623 -19.422 -24.022  0.00  0.00    -0.089 HD
ATOM     24  H   UNL     1      35.226 -19.878 -24.033  0.00  0.00    -0.089 HD
ENDBRANCH  20  21
BRANCH  20  25
ATOM     25  C   UNL     1      35.655 -19.239 -21.801  0.00  0.00    +0.008 C 
BRANCH  25  26
ATOM     26  C   UNL     1      34.864 -20.209 -20.958  0.00  0.00    -0.024 C 
ATOM     27  C   UNL     1      35.536 -21.171 -20.218  0.00  0.00    -0.004 C 
ATOM     28  C   UNL     1      33.481 -20.122 -20.937  0.00  0.00    -0.004 C 
ATOM     29  C   UNL     1      34.806 -22.067 -19.438  0.00  0.00    -0.000 C 
ATOM     30  C   UNL     1      32.751 -21.020 -20.157  0.00  0.00    -0.000 C 
ATOM     31  C   UNL     1      33.413 -21.992 -19.408  0.00  0.00    -0.000 C 
ENDBRANCH  25  26
ENDBRANCH  20  25
ENDBRANCH  19  20
ENDBRANCH  18  19
ENDBRANCH   3  18
TORSDOF 7
ENDMDL
MODEL 2
REMARK VINA RESULT:     -11.2      1.240      2.243
REMARK  Name = 11314340
REMARK  7 active torsions:
REMARK  status: ('A' for Active; 'I' for Inactive)
REMARK    1  A    between atoms: C_2  and  C_10
REMARK    2  A    between atoms: C_3  and  O_18
REMARK    3  A    between atoms: O_18  and  C_19
REMARK    4  A    between atoms: C_19  and  C_20
REMARK    5  A    between atoms: C_20  and  N_21
REMARK    6  A    between atoms: C_20  and  C_25
REMARK    7  A    between atoms: C_25  and  C_26
REMARK                            x       y       z     vdW  Elec       q    Type
REMARK                         _______ _______ _______ _____ _____    ______ ____
ROOT
ATOM      1  N   UNL     1      33.782 -15.250 -25.891  0.00  0.00    -0.239 NA
ATOM      2  C   UNL     1      33.568 -13.681 -24.073  0.00  0.00    +0.022 C 
ATOM      3  C   UNL     1      34.691 -15.769 -23.712  0.00  0.00    +0.158 C 
ATOM      4  C   UNL     1      34.243 -14.546 -23.225  0.00  0.00    +0.040 C 
ATOM      5  C   UNL     1      33.362 -14.070 -25.383  0.00  0.00    +0.099 C 
ATOM      6  C   UNL     1      34.437 -16.071 -25.040  0.00  0.00    +0.136 C 
ENDROOT
BRANCH   2  10
ATOM      7  N   UNL     1      32.472  -8.049 -23.226  0.00  0.00    -0.280 N 
ATOM      8  N   UNL     1      31.776  -8.747 -22.307  0.00  0.00    -0.173 NA
ATOM      9  C   UNL     1      32.986 -10.096 -23.677  0.00  0.00    +0.032 A 
ATOM     10  C   UNL     1      33.087 -12.398 -23.595  0.00  0.00    +0.002 C 
ATOM     11  C   UNL     1      32.075 -10.034 -22.560  0.00  0.00    +0.102 A 
ATOM     12  C   UNL     1      33.536 -11.235 -24.251  0.00  0.00    +0.003 C 
ATOM     13  C   UNL     1      33.218  -8.811 -24.077  0.00  0.00    +0.053 A 
ATOM     14  C   UNL     1      32.184 -12.389 -22.485  0.00  0.00    +0.002 C 
ATOM     15  C   UNL     1      31.642 -11.212 -21.923  0.00  0.00    +0.021 C 
ATOM     16  C   UNL     1      34.039  -8.213 -25.143  0.00  0.00    +0.051 C 
ATOM     17  H   UNL     1      32.443  -7.066 -23.279  0.00  0.00    +0.189 HD
ENDBRANCH   2  10
BRANCH   3  18
ATOM     18  O   UNL     1      35.355 -16.638 -22.910  0.00  0.00    -0.476 OA
BRANCH  18  19
ATOM     19  C   UNL     1      35.416 -18.002 -23.331  0.00  0.00    +0.184 C 
BRANCH  19  20
ATOM     20  C   UNL     1      35.461 -18.932 -22.113  0.00  0.00    -0.017 C 
BRANCH  20  21
ATOM     21  N   UNL     1      35.830 -18.137 -20.938  0.00  0.00    +0.384 N 
ATOM     22  H   UNL     1      34.986 -17.825 -20.459  0.00  0.00    -0.089 HD
ATOM     23  H   UNL     1      36.374 -17.326 -21.234  0.00  0.00    -0.089 HD
ATOM     24  H   UNL     1      36.390 -18.708 -20.303  0.00  0.00    -0.089 HD
ENDBRANCH  20  21
BRANCH  20  25
ATOM     25  C   UNL     1      34.112 -19.623 -21.824  0.00  0.00    +0.008 C 
BRANCH  25  26
ATOM     26  C   UNL     1      34.153 -20.645 -20.714  0.00  0.00    -0.024 C 
ATOM     27  C   UNL     1      32.965 -21.078 -20.144  0.00  0.00    -0.004 C 
ATOM     28  C   UNL     1      35.377 -21.135 -20.285  0.00  0.00    -0.004 C 
ATOM     29  C   UNL     1      33.002 -22.022 -19.119  0.00  0.00    -0.000 C 
ATOM     30  C   UNL     1      35.413 -22.080 -19.260  0.00  0.00    -0.000 C 
ATOM     31  C   UNL     1      34.227 -22.524 -18.677  0.00  0.00    -0.000 C 
ENDBRANCH  25  26
ENDBRANCH  20  25
ENDBRANCH  19  20
ENDBRANCH  18  19
ENDBRANCH   3  18
TORSDOF 7
ENDMDL
MODEL 3
REMARK VINA RESULT:     -11.1      1.894      9.823
REMARK  Name = 11314340
REMARK  7 active torsions:
REMARK  status: ('A' for Active; 'I' for Inactive)
REMARK    1  A    between atoms: C_2  and  C_10
REMARK    2  A    between atoms: C_3  and  O_18
REMARK    3  A    between atoms: O_18  and  C_19
REMARK    4  A    between atoms: C_19  and  C_20
REMARK    5  A    between atoms: C_20  and  N_21
REMARK    6  A    between atoms: C_20  and  C_25
REMARK    7  A    between atoms: C_25  and  C_26
REMARK                            x       y       z     vdW  Elec       q    Type
REMARK                         _______ _______ _______ _____ _____    ______ ____
ROOT
ATOM      1  N   UNL     1      33.787 -16.451 -25.582  0.00  0.00    -0.239 NA
ATOM      2  C   UNL     1      34.705 -17.040 -23.431  0.00  0.00    +0.022 C 
ATOM      3  C   UNL     1      34.332 -14.733 -23.971  0.00  0.00    +0.158 C 
ATOM      4  C   UNL     1      34.764 -15.703 -23.072  0.00  0.00    +0.040 C 
ATOM      5  C   UNL     1      34.215 -17.365 -24.682  0.00  0.00    +0.099 C 
ATOM      6  C   UNL     1      33.858 -15.155 -25.202  0.00  0.00    +0.136 C 
ENDROOT
BRANCH   2  10
ATOM      7  N   UNL     1      35.069 -21.453 -19.685  0.00  0.00    -0.280 N 
ATOM      8  N   UNL     1      36.320 -21.014 -19.928  0.00  0.00    -0.173 NA
ATOM      9  C   UNL     1      34.755 -19.834 -21.078  0.00  0.00    +0.032 A 
ATOM     10  C   UNL     1      35.148 -18.076 -22.516  0.00  0.00    +0.002 C 
ATOM     11  C   UNL     1      36.162 -19.999 -20.797  0.00  0.00    +0.102 A 
ATOM     12  C   UNL     1      34.171 -18.899 -21.922  0.00  0.00    +0.003 C 
ATOM     13  C   UNL     1      34.088 -20.778 -20.351  0.00  0.00    +0.053 A 
ATOM     14  C   UNL     1      36.552 -18.200 -22.271  0.00  0.00    +0.002 C 
ATOM     15  C   UNL     1      37.116 -19.163 -21.405  0.00  0.00    +0.021 C 
ATOM     16  C   UNL     1      32.664 -21.125 -20.204  0.00  0.00    +0.051 C 
ATOM     17  H   UNL     1      34.879 -22.202 -19.075  0.00  0.00    +0.189 HD
ENDBRANCH   2  10
BRANCH   3  18
ATOM     18  O   UNL     1      34.376 -13.416 -23.651  0.00  0.00    -0.476 OA
BRANCH  18  19
ATOM     19  C   UNL     1      33.540 -12.532 -24.400  0.00  0.00    +0.184 C 
BRANCH  19  20
ATOM     20  C   UNL     1      34.081 -11.100 -24.326  0.00  0.00    -0.017 C 
BRANCH  20  21
ATOM     21  N   UNL     1      35.034 -10.908 -25.424  0.00  0.00    +0.384 N 
ATOM     22  H   UNL     1      35.948 -10.665 -25.043  0.00  0.00    -0.089 HD
ATOM     23  H   UNL     1      34.707 -10.155 -26.030  0.00  0.00    -0.089 HD
ATOM     24  H   UNL     1      35.108 -11.771 -25.964  0.00  0.00    -0.089 HD
ENDBRANCH  20  21
BRANCH  20  25
ATOM     25  C   UNL     1      32.979 -10.026 -24.452  0.00  0.00    +0.008 C 
BRANCH  25  26
ATOM     26  C   UNL     1      32.711  -9.248 -23.186  0.00  0.00    -0.024 C 
ATOM     27  C   UNL     1      31.801  -9.744 -22.264  0.00  0.00    -0.004 C 
ATOM     28  C   UNL     1      33.379  -8.053 -22.968  0.00  0.00    -0.004 C 
ATOM     29  C   UNL     1      31.553  -9.026 -21.095  0.00  0.00    -0.000 C 
ATOM     30  C   UNL     1      33.130  -7.336 -21.798  0.00  0.00    -0.000 C 
ATOM     31  C   UNL     1      32.218  -7.821 -20.861  0.00  0.00    -0.000 C 
ENDBRANCH  25  26
ENDBRANCH  20  25
ENDBRANCH  19  20
ENDBRANCH  18  19
ENDBRANCH   3  18
TORSDOF 7
ENDMDL
MODEL 4
REMARK VINA RESULT:     -11.1      2.214      9.811
REMARK  Name = 11314340
REMARK  7 active torsions:
REMARK  status: ('A' for Active; 'I' for Inactive)
REMARK    1  A    between atoms: C_2  and  C_10
REMARK    2  A    between atoms: C_3  and  O_18
REMARK    3  A    between atoms: O_18  and  C_19
REMARK    4  A    between atoms: C_19  and  C_20
REMARK    5  A    between atoms: C_20  and  N_21
REMARK    6  A    between atoms: C_20  and  C_25
REMARK    7  A    between atoms: C_25  and  C_26
REMARK                            x       y       z     vdW  Elec       q    Type
REMARK                         _______ _______ _______ _____ _____    ______ ____
ROOT
ATOM      1  N   UNL     1      33.742 -17.529 -25.223  0.00  0.00    -0.239 NA
ATOM      2  C   UNL     1      34.799 -17.906 -23.088  0.00  0.00    +0.022 C 
ATOM      3  C   UNL     1      34.555 -15.667 -23.913  0.00  0.00    +0.158 C 
ATOM      4  C   UNL     1      34.990 -16.543 -22.924  0.00  0.00    +0.040 C 
ATOM      5  C   UNL     1      34.177 -18.350 -24.240  0.00  0.00    +0.099 C 
ATOM      6  C   UNL     1      33.943 -16.206 -25.033  0.00  0.00    +0.136 C 
ENDROOT
BRANCH   2  10
ATOM      7  N   UNL     1      35.184 -22.031 -19.030  0.00  0.00    -0.280 N 
ATOM      8  N   UNL     1      36.416 -21.518 -19.214  0.00  0.00    -0.173 NA
ATOM      9  C   UNL     1      34.865 -20.532 -20.550  0.00  0.00    +0.032 A 
ATOM     10  C   UNL     1      35.242 -18.845 -22.075  0.00  0.00    +0.002 C 
ATOM     11  C   UNL     1      36.254 -20.576 -20.160  0.00  0.00    +0.102 A 
ATOM     12  C   UNL     1      34.283 -19.698 -21.496  0.00  0.00    +0.003 C 
ATOM     13  C   UNL     1      34.211 -21.474 -19.808  0.00  0.00    +0.053 A 
ATOM     14  C   UNL     1      36.630 -18.850 -21.724  0.00  0.00    +0.002 C 
ATOM     15  C   UNL     1      37.191 -19.712 -20.756  0.00  0.00    +0.021 C 
ATOM     16  C   UNL     1      32.808 -21.915 -19.738  0.00  0.00    +0.051 C 
ATOM     17  H   UNL     1      35.000 -22.752 -18.384  0.00  0.00    +0.189 HD
ENDBRANCH   2  10
BRANCH   3  18
ATOM     18  O   UNL     1      34.725 -14.328 -23.784  0.00  0.00    -0.476 OA
BRANCH  18  19
ATOM     19  C   UNL     1      34.032 -13.679 -22.717  0.00  0.00    +0.184 C 
BRANCH  19  20
ATOM     20  C   UNL     1      32.821 -12.911 -23.259  0.00  0.00    -0.017 C 
BRANCH  20  21
ATOM     21  N   UNL     1      31.706 -13.086 -22.324  0.00  0.00    +0.384 N 
ATOM     22  H   UNL     1      31.224 -12.197 -22.197  0.00  0.00    -0.089 HD
ATOM     23  H   UNL     1      32.063 -13.411 -21.425  0.00  0.00    -0.089 HD
ATOM     24  H   UNL     1      31.053 -13.776 -22.699  0.00  0.00    -0.089 HD
ENDBRANCH  20  21
BRANCH  20  25
ATOM     25  C   UNL     1      33.083 -11.398 -23.419  0.00  0.00    +0.008 C 
BRANCH  25  26
ATOM     26  C   UNL     1      33.865 -11.022 -24.653  0.00  0.00    -0.024 C 
ATOM     27  C   UNL     1      33.657 -11.725 -25.831  0.00  0.00    -0.004 C 
ATOM     28  C   UNL     1      34.778  -9.980 -24.589  0.00  0.00    -0.004 C 
ATOM     29  C   UNL     1      34.380 -11.378 -26.971  0.00  0.00    -0.000 C 
ATOM     30  C   UNL     1      35.500  -9.634 -25.731  0.00  0.00    -0.000 C 
ATOM     31  C   UNL     1      35.302 -10.332 -26.922  0.00  0.00    -0.000 C 
ENDBRANCH  25  26
ENDBRANCH  20  25
ENDBRANCH  19  20
ENDBRANCH  18  19
ENDBRANCH   3  18
TORSDOF 7
ENDMDL
MODEL 5
REMARK VINA RESULT:     -10.9      4.062      7.817
REMARK  Name = 11314340
REMARK  7 active torsions:
REMARK  status: ('A' for Active; 'I' for Inactive)
REMARK    1  A    between atoms: C_2  and  C_10
REMARK    2  A    between atoms: C_3  and  O_18
REMARK    3  A    between atoms: O_18  and  C_19
REMARK    4  A    between atoms: C_19  and  C_20
REMARK    5  A    between atoms: C_20  and  N_21
REMARK    6  A    between atoms: C_20  and  C_25
REMARK    7  A    between atoms: C_25  and  C_26
REMARK                            x       y       z     vdW  Elec       q    Type
REMARK                         _______ _______ _______ _____ _____    ______ ____
ROOT
ATOM      1  N   UNL     1      37.163 -20.132 -19.658  0.00  0.00    -0.239 NA
ATOM      2  C   UNL     1      35.500 -19.692 -21.347  0.00  0.00    +0.022 C 
ATOM      3  C   UNL     1      35.207 -21.539 -19.846  0.00  0.00    +0.158 C 
ATOM      4  C   UNL     1      34.749 -20.774 -20.913  0.00  0.00    +0.040 C 
ATOM      5  C   UNL     1      36.687 -19.411 -20.698  0.00  0.00    +0.099 C 
ATOM      6  C   UNL     1      36.409 -21.181 -19.259  0.00  0.00    +0.136 C 
ENDROOT
BRANCH   2  10
ATOM      7  N   UNL     1      33.908 -15.355 -24.853  0.00  0.00    -0.280 N 
ATOM      8  N   UNL     1      33.791 -16.507 -25.543  0.00  0.00    -0.173 NA
ATOM      9  C   UNL     1      34.531 -16.846 -23.421  0.00  0.00    +0.032 A 
ATOM     10  C   UNL     1      35.049 -18.875 -22.458  0.00  0.00    +0.002 C 
ATOM     11  C   UNL     1      34.174 -17.462 -24.677  0.00  0.00    +0.102 A 
ATOM     12  C   UNL     1      34.975 -17.481 -22.269  0.00  0.00    +0.003 C 
ATOM     13  C   UNL     1      34.349 -15.500 -23.570  0.00  0.00    +0.053 A 
ATOM     14  C   UNL     1      34.708 -19.533 -23.682  0.00  0.00    +0.002 C 
ATOM     15  C   UNL     1      34.257 -18.857 -24.838  0.00  0.00    +0.021 C 
ATOM     16  C   UNL     1      34.535 -14.347 -22.674  0.00  0.00    +0.051 C 
ATOM     17  H   UNL     1      33.692 -14.478 -25.245  0.00  0.00    +0.189 HD
ENDBRANCH   2  10
BRANCH   3  18
ATOM     18  O   UNL     1      34.498 -22.604 -19.395  0.00  0.00    -0.476 OA
BRANCH  18  19
ATOM     19  C   UNL     1      33.131 -22.379 -19.044  0.00  0.00    +0.184 C 
BRANCH  19  20
ATOM     20  C   UNL     1      32.749 -23.229 -17.827  0.00  0.00    -0.017 C 
BRANCH  20  21
ATOM     21  N   UNL     1      33.842 -23.162 -16.854  0.00  0.00    +0.384 N 
ATOM     22  H   UNL     1      33.635 -22.448 -16.156  0.00  0.00    -0.089 HD
ATOM     23  H   UNL     1      34.711 -22.927 -17.334  0.00  0.00    -0.089 HD
ATOM     24  H   UNL     1      33.944 -24.068 -16.393  0.00  0.00    -0.089 HD
ENDBRANCH  20  21
BRANCH  20  25
ATOM     25  C   UNL     1      31.455 -22.751 -17.133  0.00  0.00    +0.008 C 
BRANCH  25  26
ATOM     26  C   UNL     1      31.107 -23.497 -15.868  0.00  0.00    -0.024 C 
ATOM     27  C   UNL     1      30.413 -24.695 -15.954  0.00  0.00    -0.004 C 
ATOM     28  C   UNL     1      31.487 -22.972 -14.643  0.00  0.00    -0.004 C 
ATOM     29  C   UNL     1      30.091 -25.384 -14.786  0.00  0.00    -0.000 C 
ATOM     30  C   UNL     1      31.164 -23.663 -13.474  0.00  0.00    -0.000 C 
ATOM     31  C   UNL     1      30.467 -24.868 -13.545  0.00  0.00    -0.000 C 
ENDBRANCH  25  26
ENDBRANCH  20  25
ENDBRANCH  19  20
ENDBRANCH  18  19
ENDBRANCH   3  18
TORSDOF 7
ENDMDL
MODEL 6
REMARK VINA RESULT:     -10.8      6.294     13.161
REMARK  Name = 11314340
REMARK  7 active torsions:
REMARK  status: ('A' for Active; 'I' for Inactive)
REMARK    1  A    between atoms: C_2  and  C_10
REMARK    2  A    between atoms: C_3  and  O_18
REMARK    3  A    between atoms: O_18  and  C_19
REMARK    4  A    between atoms: C_19  and  C_20
REMARK    5  A    between atoms: C_20  and  N_21
REMARK    6  A    between atoms: C_20  and  C_25
REMARK    7  A    between atoms: C_25  and  C_26
REMARK                            x       y       z     vdW  Elec       q    Type
REMARK                         _______ _______ _______ _____ _____    ______ ____
ROOT
ATOM      1  N   UNL     1      31.311 -23.465 -15.653  0.00  0.00    -0.239 NA
ATOM      2  C   UNL     1      33.722 -23.486 -15.678  0.00  0.00    +0.022 C 
ATOM      3  C   UNL     1      32.519 -22.925 -17.675  0.00  0.00    +0.158 C 
ATOM      4  C   UNL     1      33.727 -23.120 -17.015  0.00  0.00    +0.040 C 
ATOM      5  C   UNL     1      32.504 -23.646 -15.044  0.00  0.00    +0.099 C 
ATOM      6  C   UNL     1      31.350 -23.109 -16.956  0.00  0.00    +0.136 C 
ENDROOT
BRANCH   2  10
ATOM      7  N   UNL     1      37.819 -24.403 -11.677  0.00  0.00    -0.280 N 
ATOM      8  N   UNL     1      38.428 -24.301 -12.875  0.00  0.00    -0.173 NA
ATOM      9  C   UNL     1      36.173 -24.068 -13.033  0.00  0.00    +0.032 A 
ATOM     10  C   UNL     1      34.966 -23.698 -14.961  0.00  0.00    +0.002 C 
ATOM     11  C   UNL     1      37.427 -24.091 -13.748  0.00  0.00    +0.102 A 
ATOM     12  C   UNL     1      34.905 -23.877 -13.566  0.00  0.00    +0.003 C 
ATOM     13  C   UNL     1      36.461 -24.270 -11.713  0.00  0.00    +0.053 A 
ATOM     14  C   UNL     1      36.182 -23.713 -15.716  0.00  0.00    +0.002 C 
ATOM     15  C   UNL     1      37.458 -23.909 -15.143  0.00  0.00    +0.021 C 
ATOM     16  C   UNL     1      35.636 -24.355 -10.497  0.00  0.00    +0.051 C 
ATOM     17  H   UNL     1      38.315 -24.561 -10.841  0.00  0.00    +0.189 HD
ENDBRANCH   2  10
BRANCH   3  18
ATOM     18  O   UNL     1      32.488 -22.566 -18.983  0.00  0.00    -0.476 OA
BRANCH  18  19
ATOM     19  C   UNL     1      33.738 -22.280 -19.613  0.00  0.00    +0.184 C 
BRANCH  19  20
ATOM     20  C   UNL     1      33.572 -21.148 -20.634  0.00  0.00    -0.017 C 
BRANCH  20  21
ATOM     21  N   UNL     1      32.356 -20.400 -20.301  0.00  0.00    +0.384 N 
ATOM     22  H   UNL     1      31.577 -21.048 -20.189  0.00  0.00    -0.089 HD
ATOM     23  H   UNL     1      32.146 -19.742 -21.052  0.00  0.00    -0.089 HD
ATOM     24  H   UNL     1      32.500 -19.887 -19.430  0.00  0.00    -0.089 HD
ENDBRANCH  20  21
BRANCH  20  25
ATOM     25  C   UNL     1      34.758 -20.161 -20.645  0.00  0.00    +0.008 C 
BRANCH  25  26
ATOM     26  C   UNL     1      34.775 -19.211 -21.818  0.00  0.00    -0.024 C 
ATOM     27  C   UNL     1      35.167 -17.895 -21.621  0.00  0.00    -0.004 C 
ATOM     28  C   UNL     1      34.398 -19.670 -23.071  0.00  0.00    -0.004 C 
ATOM     29  C   UNL     1      35.183 -17.017 -22.704  0.00  0.00    -0.000 C 
ATOM     30  C   UNL     1      34.415 -18.790 -24.154  0.00  0.00    -0.000 C 
ATOM     31  C   UNL     1      34.807 -17.465 -23.971  0.00  0.00    -0.000 C 
ENDBRANCH  25  26
ENDBRANCH  20  25
ENDBRANCH  19  20
ENDBRANCH  18  19
ENDBRANCH   3  18
TORSDOF 7
ENDMDL
MODEL 7
REMARK VINA RESULT:     -10.8      3.111     10.299
REMARK  Name = 11314340
REMARK  7 active torsions:
REMARK  status: ('A' for Active; 'I' for Inactive)
REMARK    1  A    between atoms: C_2  and  C_10
REMARK    2  A    between atoms: C_3  and  O_18
REMARK    3  A    between atoms: O_18  and  C_19
REMARK    4  A    between atoms: C_19  and  C_20
REMARK    5  A    between atoms: C_20  and  N_21
REMARK    6  A    between atoms: C_20  and  C_25
REMARK    7  A    between atoms: C_25  and  C_26
REMARK                            x       y       z     vdW  Elec       q    Type
REMARK                         _______ _______ _______ _____ _____    ______ ____
ROOT
ATOM      1  N   UNL     1      31.309 -11.849 -20.542  0.00  0.00    -0.239 NA
ATOM      2  C   UNL     1      32.465 -12.580 -22.528  0.00  0.00    +0.022 C 
ATOM      3  C   UNL     1      31.808 -10.283 -22.314  0.00  0.00    +0.158 C 
ATOM      4  C   UNL     1      32.414 -11.296 -23.050  0.00  0.00    +0.040 C 
ATOM      5  C   UNL     1      31.907 -12.808 -21.285  0.00  0.00    +0.099 C 
ATOM      6  C   UNL     1      31.275 -10.609 -21.078  0.00  0.00    +0.136 C 
ENDROOT
BRANCH   2  10
ATOM      7  N   UNL     1      35.299 -17.362 -24.183  0.00  0.00    -0.280 N 
ATOM      8  N   UNL     1      34.872 -16.731 -25.294  0.00  0.00    -0.173 NA
ATOM      9  C   UNL     1      34.279 -15.629 -23.397  0.00  0.00    +0.032 A 
ATOM     10  C   UNL     1      33.090 -13.658 -23.271  0.00  0.00    +0.002 C 
ATOM     11  C   UNL     1      34.228 -15.640 -24.840  0.00  0.00    +0.102 A 
ATOM     12  C   UNL     1      33.737 -14.677 -22.544  0.00  0.00    +0.003 C 
ATOM     13  C   UNL     1      34.970 -16.743 -23.012  0.00  0.00    +0.053 A 
ATOM     14  C   UNL     1      33.012 -13.624 -24.700  0.00  0.00    +0.002 C 
ATOM     15  C   UNL     1      33.575 -14.610 -25.540  0.00  0.00    +0.021 C 
ATOM     16  C   UNL     1      35.356 -17.294 -21.702  0.00  0.00    +0.051 C 
ATOM     17  H   UNL     1      35.808 -18.204 -24.214  0.00  0.00    +0.189 HD
ENDBRANCH   2  10
BRANCH   3  18
ATOM     18  O   UNL     1      31.741  -9.016 -22.794  0.00  0.00    -0.476 OA
BRANCH  18  19
ATOM     19  C   UNL     1      31.434  -7.978 -21.863  0.00  0.00    +0.184 C 
BRANCH  19  20
ATOM     20  C   UNL     1      32.680  -7.131 -21.581  0.00  0.00    -0.017 C 
BRANCH  20  21
ATOM     21  N   UNL     1      33.149  -7.435 -20.226  0.00  0.00    +0.384 N 
ATOM     22  H   UNL     1      32.535  -8.128 -19.800  0.00  0.00    -0.089 HD
ATOM     23  H   UNL     1      33.142  -6.582 -19.665  0.00  0.00    -0.089 HD
ATOM     24  H   UNL     1      34.100  -7.804 -20.271  0.00  0.00    -0.089 HD
ENDBRANCH  20  21
BRANCH  20  25
ATOM     25  C   UNL     1      33.837  -7.404 -22.565  0.00  0.00    +0.008 C 
BRANCH  25  26
ATOM     26  C   UNL     1      33.915  -6.444 -23.727  0.00  0.00    -0.024 C 
ATOM     27  C   UNL     1      33.009  -5.397 -23.806  0.00  0.00    -0.004 C 
ATOM     28  C   UNL     1      34.892  -6.624 -24.694  0.00  0.00    -0.004 C 
ATOM     29  C   UNL     1      33.081  -4.510 -24.879  0.00  0.00    -0.000 C 
ATOM     30  C   UNL     1      34.964  -5.735 -25.767  0.00  0.00    -0.000 C 
ATOM     31  C   UNL     1      34.059  -4.679 -25.860  0.00  0.00    -0.000 C 
ENDBRANCH  25  26
ENDBRANCH  20  25
ENDBRANCH  19  20
ENDBRANCH  18  19
ENDBRANCH   3  18
TORSDOF 7
ENDMDL
MODEL 8
REMARK VINA RESULT:     -10.7      2.915      9.073
REMARK  Name = 11314340
REMARK  7 active torsions:
REMARK  status: ('A' for Active; 'I' for Inactive)
REMARK    1  A    between atoms: C_2  and  C_10
REMARK    2  A    between atoms: C_3  and  O_18
REMARK    3  A    between atoms: O_18  and  C_19
REMARK    4  A    between atoms: C_19  and  C_20
REMARK    5  A    between atoms: C_20  and  N_21
REMARK    6  A    between atoms: C_20  and  C_25
REMARK    7  A    between atoms: C_25  and  C_26
REMARK                            x       y       z     vdW  Elec       q    Type
REMARK                         _______ _______ _______ _____ _____    ______ ____
ROOT
ATOM      1  N   UNL     1      31.381 -11.820 -20.147  0.00  0.00    -0.239 NA
ATOM      2  C   UNL     1      32.364 -12.448 -22.257  0.00  0.00    +0.022 C 
ATOM      3  C   UNL     1      31.532 -10.220 -21.952  0.00  0.00    +0.158 C 
ATOM      4  C   UNL     1      32.139 -11.175 -22.759  0.00  0.00    +0.040 C 
ATOM      5  C   UNL     1      31.973 -12.723 -20.960  0.00  0.00    +0.099 C 
ATOM      6  C   UNL     1      31.174 -10.589 -20.666  0.00  0.00    +0.136 C 
ENDROOT
BRANCH   2  10
ATOM      7  N   UNL     1      35.240 -17.075 -24.246  0.00  0.00    -0.280 N 
ATOM      8  N   UNL     1      34.794 -16.379 -25.310  0.00  0.00    -0.173 NA
ATOM      9  C   UNL     1      34.207 -15.411 -23.339  0.00  0.00    +0.032 A 
ATOM     10  C   UNL     1      32.995 -13.468 -23.074  0.00  0.00    +0.002 C 
ATOM     11  C   UNL     1      34.141 -15.328 -24.779  0.00  0.00    +0.102 A 
ATOM     12  C   UNL     1      33.661 -14.523 -22.421  0.00  0.00    +0.003 C 
ATOM     13  C   UNL     1      34.915 -16.538 -23.034  0.00  0.00    +0.053 A 
ATOM     14  C   UNL     1      32.902 -13.342 -24.497  0.00  0.00    +0.002 C 
ATOM     15  C   UNL     1      33.469 -14.263 -25.405  0.00  0.00    +0.021 C 
ATOM     16  C   UNL     1      35.321 -17.169 -21.767  0.00  0.00    +0.051 C 
ATOM     17  H   UNL     1      35.759 -17.907 -24.336  0.00  0.00    +0.189 HD
ENDBRANCH   2  10
BRANCH   3  18
ATOM     18  O   UNL     1      31.298  -8.965 -22.411  0.00  0.00    -0.476 OA
BRANCH  18  19
ATOM     19  C   UNL     1      32.202  -7.938 -22.000  0.00  0.00    +0.184 C 
BRANCH  19  20
ATOM     20  C   UNL     1      32.849  -7.278 -23.224  0.00  0.00    -0.017 C 
BRANCH  20  21
ATOM     21  N   UNL     1      32.948  -5.837 -22.973  0.00  0.00    +0.384 N 
ATOM     22  H   UNL     1      33.701  -5.444 -23.537  0.00  0.00    -0.089 HD
ATOM     23  H   UNL     1      33.144  -5.677 -21.984  0.00  0.00    -0.089 HD
ATOM     24  H   UNL     1      32.066  -5.387 -23.221  0.00  0.00    -0.089 HD
ENDBRANCH  20  21
BRANCH  20  25
ATOM     25  C   UNL     1      34.264  -7.814 -23.527  0.00  0.00    +0.008 C 
BRANCH  25  26
ATOM     26  C   UNL     1      34.332  -8.801 -24.667  0.00  0.00    -0.024 C 
ATOM     27  C   UNL     1      35.555  -9.354 -25.015  0.00  0.00    -0.004 C 
ATOM     28  C   UNL     1      33.171  -9.137 -25.346  0.00  0.00    -0.004 C 
ATOM     29  C   UNL     1      35.619 -10.266 -26.067  0.00  0.00    -0.000 C 
ATOM     30  C   UNL     1      33.236 -10.049 -26.400  0.00  0.00    -0.000 C 
ATOM     31  C   UNL     1      34.459 -10.614 -26.761  0.00  0.00    -0.000 C 
ENDBRANCH  25  26
ENDBRANCH  20  25
ENDBRANCH  19  20
ENDBRANCH  18  19
ENDBRANCH   3  18
TORSDOF 7
ENDMDL
MODEL 9
REMARK VINA RESULT:     -10.5      6.326     13.535
REMARK  Name = 11314340
REMARK  7 active torsions:
REMARK  status: ('A' for Active; 'I' for Inactive)
REMARK    1  A    between atoms: C_2  and  C_10
REMARK    2  A    between atoms: C_3  and  O_18
REMARK    3  A    between atoms: O_18  and  C_19
REMARK    4  A    between atoms: C_19  and  C_20
REMARK    5  A    between atoms: C_20  and  N_21
REMARK    6  A    between atoms: C_20  and  C_25
REMARK    7  A    between atoms: C_25  and  C_26
REMARK                            x       y       z     vdW  Elec       q    Type
REMARK                         _______ _______ _______ _____ _____    ______ ____
ROOT
ATOM      1  N   UNL     1      31.321 -23.151 -15.957  0.00  0.00    -0.239 NA
ATOM      2  C   UNL     1      33.611 -23.758 -15.508  0.00  0.00    +0.022 C 
ATOM      3  C   UNL     1      32.955 -23.172 -17.739  0.00  0.00    +0.158 C 
ATOM      4  C   UNL     1      33.940 -23.572 -16.842  0.00  0.00    +0.040 C 
ATOM      5  C   UNL     1      32.305 -23.539 -15.115  0.00  0.00    +0.099 C 
ATOM      6  C   UNL     1      31.673 -22.978 -17.251  0.00  0.00    +0.136 C 
ENDROOT
BRANCH   2  10
ATOM      7  N   UNL     1      38.476 -25.428 -12.828  0.00  0.00    -0.280 N 
ATOM      8  N   UNL     1      37.500 -25.351 -11.901  0.00  0.00    -0.173 NA
ATOM      9  C   UNL     1      36.760 -24.802 -13.978  0.00  0.00    +0.032 A 
ATOM     10  C   UNL     1      34.616 -24.175 -14.548  0.00  0.00    +0.002 C 
ATOM     11  C   UNL     1      36.410 -24.962 -12.587  0.00  0.00    +0.102 A 
ATOM     12  C   UNL     1      35.923 -24.413 -15.016  0.00  0.00    +0.003 C 
ATOM     13  C   UNL     1      38.086 -25.107 -14.096  0.00  0.00    +0.053 A 
ATOM     14  C   UNL     1      34.220 -24.319 -13.180  0.00  0.00    +0.002 C 
ATOM     15  C   UNL     1      35.097 -24.717 -12.147  0.00  0.00    +0.021 C 
ATOM     16  C   UNL     1      39.023 -25.136 -15.231  0.00  0.00    +0.051 C 
ATOM     17  H   UNL     1      39.398 -25.693 -12.606  0.00  0.00    +0.189 HD
ENDBRANCH   2  10
BRANCH   3  18
ATOM     18  O   UNL     1      33.242 -22.979 -19.051  0.00  0.00    -0.476 OA
BRANCH  18  19
ATOM     19  C   UNL     1      34.417 -22.227 -19.360  0.00  0.00    +0.184 C 
BRANCH  19  20
ATOM     20  C   UNL     1      34.128 -21.232 -20.490  0.00  0.00    -0.017 C 
BRANCH  20  21
ATOM     21  N   UNL     1      32.831 -20.602 -20.231  0.00  0.00    +0.384 N 
ATOM     22  H   UNL     1      32.258 -21.222 -19.659  0.00  0.00    -0.089 HD
ATOM     23  H   UNL     1      32.357 -20.422 -21.117  0.00  0.00    -0.089 HD
ATOM     24  H   UNL     1      32.974 -19.719 -19.738  0.00  0.00    -0.089 HD
ENDBRANCH  20  21
BRANCH  20  25
ATOM     25  C   UNL     1      35.191 -20.119 -20.606  0.00  0.00    +0.008 C 
BRANCH  25  26
ATOM     26  C   UNL     1      35.016 -19.203 -21.793  0.00  0.00    -0.024 C 
ATOM     27  C   UNL     1      34.584 -19.730 -23.001  0.00  0.00    -0.004 C 
ATOM     28  C   UNL     1      35.289 -17.851 -21.655  0.00  0.00    -0.004 C 
ATOM     29  C   UNL     1      34.422 -18.884 -24.097  0.00  0.00    -0.000 C 
ATOM     30  C   UNL     1      35.126 -17.005 -22.752  0.00  0.00    -0.000 C 
ATOM     31  C   UNL     1      34.694 -17.521 -23.973  0.00  0.00    -0.000 C 
ENDBRANCH  25  26
ENDBRANCH  20  25
ENDBRANCH  19  20
ENDBRANCH  18  19
ENDBRANCH   3  18
TORSDOF 7
ENDMDL
