MODEL 1
REMARK VINA RESULT:     -12.3      0.000      0.000
REMARK  Name = 448889
REMARK  5 active torsions:
REMARK  status: ('A' for Active; 'I' for Inactive)
REMARK    1  A    between atoms: C_1  and  N_2
REMARK    2  A    between atoms: C_1  and  C_16
REMARK    3  A    between atoms: C_6  and  C_10
REMARK    4  A    between atoms: C_16  and  C_17
REMARK    5  A    between atoms: C_17  and  C_21
REMARK                            x       y       z     vdW  Elec       q    Type
REMARK                         _______ _______ _______ _____ _____    ______ ____
ROOT
ATOM      1  C   UNL     1      34.996 -15.965 -24.903  0.00  0.00    -0.076 C 
ENDROOT
BRANCH   1   2
ATOM      2  N   UNL     1      35.121 -17.105 -23.999  0.00  0.00    +0.390 N 
ATOM      3  C   UNL     1      34.106 -18.123 -24.287  0.00  0.00    -0.072 C 
ATOM      4  C   UNL     1      34.367 -19.375 -23.437  0.00  0.00    +0.003 C 
ATOM      5  C   UNL     1      35.036 -16.669 -22.596  0.00  0.00    -0.051 C 
ATOM      6  C   UNL     1      34.611 -19.059 -21.978  0.00  0.00    -0.031 C 
ATOM      7  C   UNL     1      34.917 -17.800 -21.610  0.00  0.00    -0.053 C 
ATOM      8  H   UNL     1      36.039 -17.525 -24.150  0.00  0.00    -0.079 HD
BRANCH   6  10
ATOM      9  F   UNL     1      34.225 -23.237 -18.247  0.00  0.00    -0.204 F 
ATOM     10  C   UNL     1      34.510 -20.162 -20.993  0.00  0.00    -0.004 C 
ATOM     11  C   UNL     1      35.667 -20.762 -20.490  0.00  0.00    +0.002 C 
ATOM     12  C   UNL     1      33.257 -20.604 -20.564  0.00  0.00    +0.002 C 
ATOM     13  C   UNL     1      35.571 -21.799 -19.562  0.00  0.00    +0.030 C 
ATOM     14  C   UNL     1      33.161 -21.642 -19.636  0.00  0.00    +0.030 C 
ATOM     15  C   UNL     1      34.318 -22.240 -19.136  0.00  0.00    +0.140 C 
ENDBRANCH   6  10
ENDBRANCH   1   2
BRANCH   1  16
ATOM     16  C   UNL     1      33.682 -15.224 -24.641  0.00  0.00    -0.014 C 
BRANCH  16  17
ATOM     17  C   UNL     1      33.853 -13.713 -24.653  0.00  0.00    +0.074 C 
BRANCH  17  21
ATOM     18  O   UNL     1      31.735 -14.036 -20.472  0.00  0.00    -0.209 OA
ATOM     19  N   UNL     1      32.954 -11.732 -23.518  0.00  0.00    -0.290 N 
ATOM     20  N   UNL     1      32.769 -13.885 -22.511  0.00  0.00    -0.322 NA
ATOM     21  C   UNL     1      33.145 -13.093 -23.474  0.00  0.00    +0.173 C 
ATOM     22  C   UNL     1      32.304 -11.103 -22.454  0.00  0.00    +0.058 C 
ATOM     23  C   UNL     1      31.866 -11.880 -21.373  0.00  0.00    +0.108 C 
ATOM     24  C   UNL     1      32.082  -9.723 -22.439  0.00  0.00    -0.008 C 
ATOM     25  C   UNL     1      32.118 -13.350 -21.413  0.00  0.00    +0.207 C 
ATOM     26  C   UNL     1      31.214 -11.290 -20.287  0.00  0.00    +0.014 C 
ATOM     27  C   UNL     1      31.429  -9.130 -21.356  0.00  0.00    -0.003 C 
ATOM     28  C   UNL     1      30.996  -9.912 -20.285  0.00  0.00    +0.001 C 
ATOM     29  C   UNL     1      32.528  -8.849 -23.565  0.00  0.00    +0.032 C 
ATOM     30  H   UNL     1      33.270 -11.209 -24.288  0.00  0.00    +0.154 HD
ENDBRANCH  17  21
ENDBRANCH  16  17
ENDBRANCH   1  16
TORSDOF 5
ENDMDL
MODEL 2
REMARK VINA RESULT:     -12.0      1.566      2.586
REMARK  Name = 448889
REMARK  5 active torsions:
REMARK  status: ('A' for Active; 'I' for Inactive)
REMARK    1  A    between atoms: C_1  and  N_2
REMARK    2  A    between atoms: C_1  and  C_16
REMARK    3  A    between atoms: C_6  and  C_10
REMARK    4  A    between atoms: C_16  and  C_17
REMARK    5  A    between atoms: C_17  and  C_21
REMARK                            x       y       z     vdW  Elec       q    Type
REMARK                         _______ _______ _______ _____ _____    ______ ____
ROOT
ATOM      1  C   UNL     1      34.832 -16.152 -24.869  0.00  0.00    -0.076 C 
ENDROOT
BRANCH   1   2
ATOM      2  N   UNL     1      34.508 -17.062 -23.773  0.00  0.00    +0.390 N 
ATOM      3  C   UNL     1      35.608 -17.140 -22.808  0.00  0.00    -0.072 C 
ATOM      4  C   UNL     1      35.174 -17.968 -21.588  0.00  0.00    +0.003 C 
ATOM      5  C   UNL     1      34.171 -18.398 -24.287  0.00  0.00    -0.051 C 
ATOM      6  C   UNL     1      34.512 -19.274 -21.966  0.00  0.00    -0.031 C 
ATOM      7  C   UNL     1      34.057 -19.454 -23.221  0.00  0.00    -0.053 C 
ATOM      8  H   UNL     1      33.691 -16.689 -23.289  0.00  0.00    -0.079 HD
BRANCH   6  10
ATOM      9  F   UNL     1      34.015 -23.243 -18.025  0.00  0.00    -0.204 F 
ATOM     10  C   UNL     1      34.380 -20.322 -20.926  0.00  0.00    -0.004 C 
ATOM     11  C   UNL     1      33.116 -20.711 -20.478  0.00  0.00    +0.002 C 
ATOM     12  C   UNL     1      35.521 -20.925 -20.391  0.00  0.00    +0.002 C 
ATOM     13  C   UNL     1      32.992 -21.697 -19.499  0.00  0.00    +0.030 C 
ATOM     14  C   UNL     1      35.397 -21.912 -19.413  0.00  0.00    +0.030 C 
ATOM     15  C   UNL     1      34.133 -22.297 -18.966  0.00  0.00    +0.140 C 
ENDBRANCH   6  10
ENDBRANCH   1   2
BRANCH   1  16
ATOM     16  C   UNL     1      33.757 -15.070 -24.995  0.00  0.00    -0.014 C 
BRANCH  16  17
ATOM     17  C   UNL     1      33.354 -14.489 -23.649  0.00  0.00    +0.074 C 
BRANCH  17  21
ATOM     18  O   UNL     1      34.743 -10.397 -25.493  0.00  0.00    -0.209 OA
ATOM     19  N   UNL     1      32.469 -12.351 -22.832  0.00  0.00    -0.290 N 
ATOM     20  N   UNL     1      34.070 -12.396 -24.598  0.00  0.00    -0.322 NA
ATOM     21  C   UNL     1      33.312 -12.982 -23.716  0.00  0.00    +0.173 C 
ATOM     22  C   UNL     1      32.388 -10.957 -22.849  0.00  0.00    +0.058 C 
ATOM     23  C   UNL     1      33.170 -10.244 -23.768  0.00  0.00    +0.108 C 
ATOM     24  C   UNL     1      31.549 -10.258 -21.977  0.00  0.00    -0.008 C 
ATOM     25  C   UNL     1      34.055 -11.016 -24.688  0.00  0.00    +0.207 C 
ATOM     26  C   UNL     1      33.117  -8.849 -23.819  0.00  0.00    +0.014 C 
ATOM     27  C   UNL     1      31.494  -8.864 -22.024  0.00  0.00    -0.003 C 
ATOM     28  C   UNL     1      32.277  -8.162 -22.942  0.00  0.00    +0.001 C 
ATOM     29  C   UNL     1      30.695 -10.969 -20.978  0.00  0.00    +0.032 C 
ATOM     30  H   UNL     1      31.930 -12.875 -22.196  0.00  0.00    +0.154 HD
ENDBRANCH  17  21
ENDBRANCH  16  17
ENDBRANCH   1  16
TORSDOF 5
ENDMDL
MODEL 3
REMARK VINA RESULT:     -12.0      1.493      2.624
REMARK  Name = 448889
REMARK  5 active torsions:
REMARK  status: ('A' for Active; 'I' for Inactive)
REMARK    1  A    between atoms: C_1  and  N_2
REMARK    2  A    between atoms: C_1  and  C_16
REMARK    3  A    between atoms: C_6  and  C_10
REMARK    4  A    between atoms: C_16  and  C_17
REMARK    5  A    between atoms: C_17  and  C_21
REMARK                            x       y       z     vdW  Elec       q    Type
REMARK                         _______ _______ _______ _____ _____    ______ ____
ROOT
ATOM      1  C   UNL     1      34.813 -16.141 -24.840  0.00  0.00    -0.076 C 
ENDROOT
BRANCH   1   2
ATOM      2  N   UNL     1      34.496 -17.055 -23.746  0.00  0.00    +0.390 N 
ATOM      3  C   UNL     1      35.606 -17.143 -22.792  0.00  0.00    -0.072 C 
ATOM      4  C   UNL     1      35.181 -17.975 -21.572  0.00  0.00    +0.003 C 
ATOM      5  C   UNL     1      34.148 -18.387 -24.263  0.00  0.00    -0.051 C 
ATOM      6  C   UNL     1      34.510 -19.276 -21.949  0.00  0.00    -0.031 C 
ATOM      7  C   UNL     1      34.041 -19.448 -23.200  0.00  0.00    -0.053 C 
ATOM      8  H   UNL     1      33.686 -16.681 -23.251  0.00  0.00    -0.079 HD
BRANCH   6  10
ATOM      9  F   UNL     1      34.037 -23.263 -18.024  0.00  0.00    -0.204 F 
ATOM     10  C   UNL     1      34.384 -20.329 -20.914  0.00  0.00    -0.004 C 
ATOM     11  C   UNL     1      33.122 -20.733 -20.473  0.00  0.00    +0.002 C 
ATOM     12  C   UNL     1      35.529 -20.921 -20.375  0.00  0.00    +0.002 C 
ATOM     13  C   UNL     1      33.004 -21.724 -19.499  0.00  0.00    +0.030 C 
ATOM     14  C   UNL     1      35.411 -21.912 -19.400  0.00  0.00    +0.030 C 
ATOM     15  C   UNL     1      34.149 -22.313 -18.961  0.00  0.00    +0.140 C 
ENDBRANCH   6  10
ENDBRANCH   1   2
BRANCH   1  16
ATOM     16  C   UNL     1      33.923 -14.897 -24.766  0.00  0.00    -0.014 C 
BRANCH  16  17
ATOM     17  C   UNL     1      33.873 -14.300 -23.369  0.00  0.00    +0.074 C 
BRANCH  17  21
ATOM     18  O   UNL     1      31.212 -10.685 -21.979  0.00  0.00    -0.209 OA
ATOM     19  N   UNL     1      34.168 -12.055 -24.316  0.00  0.00    -0.290 N 
ATOM     20  N   UNL     1      32.507 -12.453 -22.653  0.00  0.00    -0.322 NA
ATOM     21  C   UNL     1      33.472 -12.846 -23.432  0.00  0.00    +0.173 C 
ATOM     22  C   UNL     1      33.841 -10.701 -24.417  0.00  0.00    +0.058 C 
ATOM     23  C   UNL     1      32.813 -10.191 -23.612  0.00  0.00    +0.108 C 
ATOM     24  C   UNL     1      34.512  -9.846 -25.294  0.00  0.00    -0.008 C 
ATOM     25  C   UNL     1      32.115 -11.125 -22.683  0.00  0.00    +0.207 C 
ATOM     26  C   UNL     1      32.456  -8.841 -23.682  0.00  0.00    +0.014 C 
ATOM     27  C   UNL     1      34.158  -8.497 -25.366  0.00  0.00    -0.003 C 
ATOM     28  C   UNL     1      33.132  -7.998 -24.563  0.00  0.00    +0.001 C 
ATOM     29  C   UNL     1      35.616 -10.338 -26.173  0.00  0.00    +0.032 C 
ATOM     30  H   UNL     1      34.886 -12.438 -24.869  0.00  0.00    +0.154 HD
ENDBRANCH  17  21
ENDBRANCH  16  17
ENDBRANCH   1  16
TORSDOF 5
ENDMDL
MODEL 4
REMARK VINA RESULT:     -11.9      1.376      2.167
REMARK  Name = 448889
REMARK  5 active torsions:
REMARK  status: ('A' for Active; 'I' for Inactive)
REMARK    1  A    between atoms: C_1  and  N_2
REMARK    2  A    between atoms: C_1  and  C_16
REMARK    3  A    between atoms: C_6  and  C_10
REMARK    4  A    between atoms: C_16  and  C_17
REMARK    5  A    between atoms: C_17  and  C_21
REMARK                            x       y       z     vdW  Elec       q    Type
REMARK                         _______ _______ _______ _____ _____    ______ ____
ROOT
ATOM      1  C   UNL     1      34.997 -16.015 -24.905  0.00  0.00    -0.076 C 
ENDROOT
BRANCH   1   2
ATOM      2  N   UNL     1      35.115 -17.154 -23.997  0.00  0.00    +0.390 N 
ATOM      3  C   UNL     1      34.083 -18.158 -24.271  0.00  0.00    -0.072 C 
ATOM      4  C   UNL     1      34.335 -19.411 -23.418  0.00  0.00    +0.003 C 
ATOM      5  C   UNL     1      35.049 -16.711 -22.595  0.00  0.00    -0.051 C 
ATOM      6  C   UNL     1      34.597 -19.092 -21.963  0.00  0.00    -0.031 C 
ATOM      7  C   UNL     1      34.923 -17.836 -21.603  0.00  0.00    -0.053 C 
ATOM      8  H   UNL     1      36.025 -17.586 -24.154  0.00  0.00    -0.079 HD
BRANCH   6  10
ATOM      9  F   UNL     1      34.187 -23.248 -18.210  0.00  0.00    -0.204 F 
ATOM     10  C   UNL     1      34.489 -20.189 -20.972  0.00  0.00    -0.004 C 
ATOM     11  C   UNL     1      35.642 -20.804 -20.478  0.00  0.00    +0.002 C 
ATOM     12  C   UNL     1      33.234 -20.611 -20.528  0.00  0.00    +0.002 C 
ATOM     13  C   UNL     1      35.540 -21.836 -19.545  0.00  0.00    +0.030 C 
ATOM     14  C   UNL     1      33.132 -21.643 -19.595  0.00  0.00    +0.030 C 
ATOM     15  C   UNL     1      34.285 -22.256 -19.104  0.00  0.00    +0.140 C 
ENDBRANCH   6  10
ENDBRANCH   1   2
BRANCH   1  16
ATOM     16  C   UNL     1      34.069 -14.955 -24.306  0.00  0.00    -0.014 C 
BRANCH  16  17
ATOM     17  C   UNL     1      34.036 -13.677 -25.129  0.00  0.00    +0.074 C 
BRANCH  17  21
ATOM     18  O   UNL     1      33.108  -9.116 -24.491  0.00  0.00    -0.209 OA
ATOM     19  N   UNL     1      32.898 -12.873 -23.109  0.00  0.00    -0.290 N 
ATOM     20  N   UNL     1      33.564 -11.339 -24.808  0.00  0.00    -0.322 NA
ATOM     21  C   UNL     1      33.469 -12.540 -24.315  0.00  0.00    +0.173 C 
ATOM     22  C   UNL     1      32.357 -11.862 -22.313  0.00  0.00    +0.058 C 
ATOM     23  C   UNL     1      32.413 -10.538 -22.768  0.00  0.00    +0.108 C 
ATOM     24  C   UNL     1      31.761 -12.137 -21.079  0.00  0.00    -0.008 C 
ATOM     25  C   UNL     1      33.053 -10.273 -24.089  0.00  0.00    +0.207 C 
ATOM     26  C   UNL     1      31.882  -9.497 -22.002  0.00  0.00    +0.014 C 
ATOM     27  C   UNL     1      31.230 -11.099 -20.311  0.00  0.00    -0.003 C 
ATOM     28  C   UNL     1      31.291  -9.784 -20.771  0.00  0.00    +0.001 C 
ATOM     29  C   UNL     1      31.674 -13.531 -20.547  0.00  0.00    +0.032 C 
ATOM     30  H   UNL     1      32.871 -13.811 -22.812  0.00  0.00    +0.154 HD
ENDBRANCH  17  21
ENDBRANCH  16  17
ENDBRANCH   1  16
TORSDOF 5
ENDMDL
MODEL 5
REMARK VINA RESULT:     -11.4      6.256     12.107
REMARK  Name = 448889
REMARK  5 active torsions:
REMARK  status: ('A' for Active; 'I' for Inactive)
REMARK    1  A    between atoms: C_1  and  N_2
REMARK    2  A    between atoms: C_1  and  C_16
REMARK    3  A    between atoms: C_6  and  C_10
REMARK    4  A    between atoms: C_16  and  C_17
REMARK    5  A    between atoms: C_17  and  C_21
REMARK                            x       y       z     vdW  Elec       q    Type
REMARK                         _______ _______ _______ _____ _____    ______ ____
ROOT
ATOM      1  C   UNL     1      33.443 -23.566 -18.336  0.00  0.00    -0.076 C 
ENDROOT
BRANCH   1   2
ATOM      2  N   UNL     1      33.717 -22.658 -19.446  0.00  0.00    +0.390 N 
ATOM      3  C   UNL     1      35.026 -22.014 -19.293  0.00  0.00    -0.072 C 
ATOM      4  C   UNL     1      35.357 -21.198 -20.552  0.00  0.00    +0.003 C 
ATOM      5  C   UNL     1      32.653 -21.649 -19.569  0.00  0.00    -0.051 C 
ATOM      6  C   UNL     1      34.216 -20.311 -20.998  0.00  0.00    -0.031 C 
ATOM      7  C   UNL     1      32.973 -20.535 -20.529  0.00  0.00    -0.053 C 
ATOM      8  H   UNL     1      33.737 -23.209 -20.304  0.00  0.00    -0.079 HD
BRANCH   6  10
ATOM      9  F   UNL     1      35.327 -16.161 -24.613  0.00  0.00    -0.204 F 
ATOM     10  C   UNL     1      34.508 -19.216 -21.953  0.00  0.00    -0.004 C 
ATOM     11  C   UNL     1      34.261 -19.389 -23.316  0.00  0.00    +0.002 C 
ATOM     12  C   UNL     1      35.033 -18.006 -21.491  0.00  0.00    +0.002 C 
ATOM     13  C   UNL     1      34.536 -18.358 -24.215  0.00  0.00    +0.030 C 
ATOM     14  C   UNL     1      35.308 -16.975 -22.390  0.00  0.00    +0.030 C 
ATOM     15  C   UNL     1      35.061 -17.151 -23.751  0.00  0.00    +0.140 C 
ENDBRANCH   6  10
ENDBRANCH   1   2
BRANCH   1  16
ATOM     16  C   UNL     1      33.680 -22.856 -17.000  0.00  0.00    -0.014 C 
BRANCH  16  17
ATOM     17  C   UNL     1      33.377 -23.745 -15.805  0.00  0.00    +0.074 C 
BRANCH  17  21
ATOM     18  O   UNL     1      36.444 -27.285 -16.174  0.00  0.00    -0.209 OA
ATOM     19  N   UNL     1      35.313 -23.921 -14.308  0.00  0.00    -0.290 N 
ATOM     20  N   UNL     1      34.944 -25.561 -15.999  0.00  0.00    -0.322 NA
ATOM     21  C   UNL     1      34.621 -24.473 -15.361  0.00  0.00    +0.173 C 
ATOM     22  C   UNL     1      36.473 -24.551 -13.854  0.00  0.00    +0.058 C 
ATOM     23  C   UNL     1      36.896 -25.729 -14.486  0.00  0.00    +0.108 C 
ATOM     24  C   UNL     1      37.222 -24.038 -12.791  0.00  0.00    -0.008 C 
ATOM     25  C   UNL     1      36.080 -26.253 -15.619  0.00  0.00    +0.207 C 
ATOM     26  C   UNL     1      38.053 -26.390 -14.062  0.00  0.00    +0.014 C 
ATOM     27  C   UNL     1      38.377 -24.697 -12.365  0.00  0.00    -0.003 C 
ATOM     28  C   UNL     1      38.790 -25.869 -12.999  0.00  0.00    +0.001 C 
ATOM     29  C   UNL     1      36.816 -22.786 -12.084  0.00  0.00    +0.032 C 
ATOM     30  H   UNL     1      34.996 -23.093 -13.882  0.00  0.00    +0.154 HD
ENDBRANCH  17  21
ENDBRANCH  16  17
ENDBRANCH   1  16
TORSDOF 5
ENDMDL
MODEL 6
REMARK VINA RESULT:     -11.3      2.285      3.489
REMARK  Name = 448889
REMARK  5 active torsions:
REMARK  status: ('A' for Active; 'I' for Inactive)
REMARK    1  A    between atoms: C_1  and  N_2
REMARK    2  A    between atoms: C_1  and  C_16
REMARK    3  A    between atoms: C_6  and  C_10
REMARK    4  A    between atoms: C_16  and  C_17
REMARK    5  A    between atoms: C_17  and  C_21
REMARK                            x       y       z     vdW  Elec       q    Type
REMARK                         _______ _______ _______ _____ _____    ______ ____
ROOT
ATOM      1  C   UNL     1      33.567 -14.401 -25.356  0.00  0.00    -0.076 C 
ENDROOT
BRANCH   1   2
ATOM      2  N   UNL     1      33.751 -15.496 -24.406  0.00  0.00    +0.390 N 
ATOM      3  C   UNL     1      34.640 -15.101 -23.310  0.00  0.00    -0.072 C 
ATOM      4  C   UNL     1      34.680 -16.209 -22.246  0.00  0.00    +0.003 C 
ATOM      5  C   UNL     1      34.265 -16.695 -25.087  0.00  0.00    -0.051 C 
ATOM      6  C   UNL     1      34.901 -17.585 -22.833  0.00  0.00    -0.031 C 
ATOM      7  C   UNL     1      34.706 -17.788 -24.151  0.00  0.00    -0.053 C 
ATOM      8  H   UNL     1      32.839 -15.719 -24.007  0.00  0.00    -0.079 HD
BRANCH   6  10
ATOM      9  F   UNL     1      36.509 -21.722 -19.394  0.00  0.00    -0.204 F 
ATOM     10  C   UNL     1      35.325 -18.677 -21.926  0.00  0.00    -0.004 C 
ATOM     11  C   UNL     1      34.395 -19.619 -21.479  0.00  0.00    +0.002 C 
ATOM     12  C   UNL     1      36.657 -18.769 -21.515  0.00  0.00    +0.002 C 
ATOM     13  C   UNL     1      34.795 -20.647 -20.625  0.00  0.00    +0.030 C 
ATOM     14  C   UNL     1      37.056 -19.797 -20.661  0.00  0.00    +0.030 C 
ATOM     15  C   UNL     1      36.125 -20.736 -20.215  0.00  0.00    +0.140 C 
ENDBRANCH   6  10
ENDBRANCH   1   2
BRANCH   1  16
ATOM     16  C   UNL     1      33.496 -13.064 -24.614  0.00  0.00    -0.014 C 
BRANCH  16  17
ATOM     17  C   UNL     1      33.985 -11.900 -25.461  0.00  0.00    +0.074 C 
BRANCH  17  21
ATOM     18  O   UNL     1      35.435  -7.526 -24.547  0.00  0.00    -0.209 OA
ATOM     19  N   UNL     1      32.939 -10.547 -23.701  0.00  0.00    -0.290 N 
ATOM     20  N   UNL     1      34.732  -9.660 -24.998  0.00  0.00    -0.322 NA
ATOM     21  C   UNL     1      33.899 -10.610 -24.684  0.00  0.00    +0.173 C 
ATOM     22  C   UNL     1      32.814  -9.377 -22.949  0.00  0.00    +0.058 C 
ATOM     23  C   UNL     1      33.670  -8.302 -23.221  0.00  0.00    +0.108 C 
ATOM     24  C   UNL     1      31.857  -9.252 -21.938  0.00  0.00    -0.008 C 
ATOM     25  C   UNL     1      34.680  -8.462 -24.306  0.00  0.00    +0.207 C 
ATOM     26  C   UNL     1      33.576  -7.113 -22.492  0.00  0.00    +0.014 C 
ATOM     27  C   UNL     1      31.761  -8.066 -21.208  0.00  0.00    -0.003 C 
ATOM     28  C   UNL     1      32.618  -7.000 -21.484  0.00  0.00    +0.001 C 
ATOM     29  C   UNL     1      30.919 -10.367 -21.608  0.00  0.00    +0.032 C 
ATOM     30  H   UNL     1      32.350 -11.316 -23.530  0.00  0.00    +0.154 HD
ENDBRANCH  17  21
ENDBRANCH  16  17
ENDBRANCH   1  16
TORSDOF 5
ENDMDL
MODEL 7
REMARK VINA RESULT:     -11.3      2.120      3.113
REMARK  Name = 448889
REMARK  5 active torsions:
REMARK  status: ('A' for Active; 'I' for Inactive)
REMARK    1  A    between atoms: C_1  and  N_2
REMARK    2  A    between atoms: C_1  and  C_16
REMARK    3  A    between atoms: C_6  and  C_10
REMARK    4  A    between atoms: C_16  and  C_17
REMARK    5  A    between atoms: C_17  and  C_21
REMARK                            x       y       z     vdW  Elec       q    Type
REMARK                         _______ _______ _______ _____ _____    ______ ____
ROOT
ATOM      1  C   UNL     1      34.362 -15.651 -24.896  0.00  0.00    -0.076 C 
ENDROOT
BRANCH   1   2
ATOM      2  N   UNL     1      34.160 -16.655 -23.855  0.00  0.00    +0.390 N 
ATOM      3  C   UNL     1      35.197 -16.563 -22.823  0.00  0.00    -0.072 C 
ATOM      4  C   UNL     1      34.864 -17.514 -21.663  0.00  0.00    +0.003 C 
ATOM      5  C   UNL     1      34.123 -18.007 -24.435  0.00  0.00    -0.051 C 
ATOM      6  C   UNL     1      34.495 -18.905 -22.126  0.00  0.00    -0.031 C 
ATOM      7  C   UNL     1      34.157 -19.113 -23.414  0.00  0.00    -0.053 C 
ATOM      8  H   UNL     1      33.259 -16.471 -23.413  0.00  0.00    -0.079 HD
BRANCH   6  10
ATOM      9  F   UNL     1      34.555 -23.075 -18.366  0.00  0.00    -0.204 F 
ATOM     10  C   UNL     1      34.511 -20.006 -21.133  0.00  0.00    -0.004 C 
ATOM     11  C   UNL     1      35.726 -20.506 -20.661  0.00  0.00    +0.002 C 
ATOM     12  C   UNL     1      33.311 -20.545 -20.667  0.00  0.00    +0.002 C 
ATOM     13  C   UNL     1      35.742 -21.542 -19.726  0.00  0.00    +0.030 C 
ATOM     14  C   UNL     1      33.326 -21.581 -19.732  0.00  0.00    +0.030 C 
ATOM     15  C   UNL     1      34.541 -22.080 -19.262  0.00  0.00    +0.140 C 
ENDBRANCH   6  10
ENDBRANCH   1   2
BRANCH   1  16
ATOM     16  C   UNL     1      33.847 -14.289 -24.424  0.00  0.00    -0.014 C 
BRANCH  16  17
ATOM     17  C   UNL     1      33.494 -13.366 -25.580  0.00  0.00    +0.074 C 
BRANCH  17  21
ATOM     18  O   UNL     1      36.141  -9.543 -26.249  0.00  0.00    -0.209 OA
ATOM     19  N   UNL     1      33.149 -11.325 -24.263  0.00  0.00    -0.290 N 
ATOM     20  N   UNL     1      34.853 -11.411 -25.927  0.00  0.00    -0.322 NA
ATOM     21  C   UNL     1      33.875 -11.943 -25.254  0.00  0.00    +0.173 C 
ATOM     22  C   UNL     1      33.456 -10.007 -23.918  0.00  0.00    +0.058 C 
ATOM     23  C   UNL     1      34.496  -9.355 -24.595  0.00  0.00    +0.108 C 
ATOM     24  C   UNL     1      32.754  -9.324 -22.922  0.00  0.00    -0.008 C 
ATOM     25  C   UNL     1      35.228 -10.107 -25.655  0.00  0.00    +0.207 C 
ATOM     26  C   UNL     1      34.835  -8.036 -24.282  0.00  0.00    +0.014 C 
ATOM     27  C   UNL     1      33.090  -8.006 -22.606  0.00  0.00    -0.003 C 
ATOM     28  C   UNL     1      34.128  -7.365 -23.283  0.00  0.00    +0.001 C 
ATOM     29  C   UNL     1      31.637  -9.972 -22.170  0.00  0.00    +0.032 C 
ATOM     30  H   UNL     1      32.423 -11.805 -23.803  0.00  0.00    +0.154 HD
ENDBRANCH  17  21
ENDBRANCH  16  17
ENDBRANCH   1  16
TORSDOF 5
ENDMDL
MODEL 8
REMARK VINA RESULT:     -11.3      5.471     10.688
REMARK  Name = 448889
REMARK  5 active torsions:
REMARK  status: ('A' for Active; 'I' for Inactive)
REMARK    1  A    between atoms: C_1  and  N_2
REMARK    2  A    between atoms: C_1  and  C_16
REMARK    3  A    between atoms: C_6  and  C_10
REMARK    4  A    between atoms: C_16  and  C_17
REMARK    5  A    between atoms: C_17  and  C_21
REMARK                            x       y       z     vdW  Elec       q    Type
REMARK                         _______ _______ _______ _____ _____    ______ ____
ROOT
ATOM      1  C   UNL     1      36.444 -21.752 -18.889  0.00  0.00    -0.076 C 
ENDROOT
BRANCH   1   2
ATOM      2  N   UNL     1      35.979 -20.611 -19.675  0.00  0.00    +0.390 N 
ATOM      3  C   UNL     1      34.879 -20.996 -20.565  0.00  0.00    -0.072 C 
ATOM      4  C   UNL     1      34.303 -19.747 -21.250  0.00  0.00    +0.003 C 
ATOM      5  C   UNL     1      37.087 -20.021 -20.442  0.00  0.00    -0.051 C 
ATOM      6  C   UNL     1      35.369 -18.852 -21.842  0.00  0.00    -0.031 C 
ATOM      7  C   UNL     1      36.652 -18.997 -21.456  0.00  0.00    -0.053 C 
ATOM      8  H   UNL     1      35.627 -19.908 -19.026  0.00  0.00    -0.079 HD
BRANCH   6  10
ATOM      9  F   UNL     1      33.818 -14.976 -25.596  0.00  0.00    -0.204 F 
ATOM     10  C   UNL     1      34.959 -17.830 -22.833  0.00  0.00    -0.004 C 
ATOM     11  C   UNL     1      34.525 -18.218 -24.102  0.00  0.00    +0.002 C 
ATOM     12  C   UNL     1      35.006 -16.474 -22.500  0.00  0.00    +0.002 C 
ATOM     13  C   UNL     1      34.138 -17.255 -25.035  0.00  0.00    +0.030 C 
ATOM     14  C   UNL     1      34.619 -15.511 -23.433  0.00  0.00    +0.030 C 
ATOM     15  C   UNL     1      34.187 -15.901 -24.700  0.00  0.00    +0.140 C 
ENDBRANCH   6  10
ENDBRANCH   1   2
BRANCH   1  16
ATOM     16  C   UNL     1      36.829 -21.301 -17.478  0.00  0.00    -0.014 C 
BRANCH  16  17
ATOM     17  C   UNL     1      37.262 -22.459 -16.593  0.00  0.00    +0.074 C 
BRANCH  17  21
ATOM     18  O   UNL     1      35.366 -24.573 -12.850  0.00  0.00    -0.209 OA
ATOM     19  N   UNL     1      34.859 -22.944 -16.479  0.00  0.00    -0.290 N 
ATOM     20  N   UNL     1      36.297 -23.542 -14.673  0.00  0.00    -0.322 NA
ATOM     21  C   UNL     1      36.079 -23.024 -15.848  0.00  0.00    +0.173 C 
ATOM     22  C   UNL     1      33.728 -23.451 -15.836  0.00  0.00    +0.058 C 
ATOM     23  C   UNL     1      33.871 -24.026 -14.566  0.00  0.00    +0.108 C 
ATOM     24  C   UNL     1      32.462 -23.398 -16.424  0.00  0.00    -0.008 C 
ATOM     25  C   UNL     1      35.234 -24.068 -13.961  0.00  0.00    +0.207 C 
ATOM     26  C   UNL     1      32.764 -24.543 -13.888  0.00  0.00    +0.014 C 
ATOM     27  C   UNL     1      31.354 -23.914 -15.750  0.00  0.00    -0.003 C 
ATOM     28  C   UNL     1      31.505 -24.486 -14.486  0.00  0.00    +0.001 C 
ATOM     29  C   UNL     1      32.254 -22.795 -17.776  0.00  0.00    +0.032 C 
ATOM     30  H   UNL     1      34.786 -22.536 -17.371  0.00  0.00    +0.154 HD
ENDBRANCH  17  21
ENDBRANCH  16  17
ENDBRANCH   1  16
TORSDOF 5
ENDMDL
MODEL 9
REMARK VINA RESULT:     -11.2      4.777     10.388
REMARK  Name = 448889
REMARK  5 active torsions:
REMARK  status: ('A' for Active; 'I' for Inactive)
REMARK    1  A    between atoms: C_1  and  N_2
REMARK    2  A    between atoms: C_1  and  C_16
REMARK    3  A    between atoms: C_6  and  C_10
REMARK    4  A    between atoms: C_16  and  C_17
REMARK    5  A    between atoms: C_17  and  C_21
REMARK                            x       y       z     vdW  Elec       q    Type
REMARK                         _______ _______ _______ _____ _____    ______ ____
ROOT
ATOM      1  C   UNL     1      36.389 -21.449 -19.871  0.00  0.00    -0.076 C 
ENDROOT
BRANCH   1   2
ATOM      2  N   UNL     1      35.898 -20.188 -20.422  0.00  0.00    +0.390 N 
ATOM      3  C   UNL     1      34.785 -20.415 -21.349  0.00  0.00    -0.072 C 
ATOM      4  C   UNL     1      34.184 -19.068 -21.780  0.00  0.00    +0.003 C 
ATOM      5  C   UNL     1      36.985 -19.452 -21.086  0.00  0.00    -0.051 C 
ATOM      6  C   UNL     1      35.230 -18.066 -22.214  0.00  0.00    -0.031 C 
ATOM      7  C   UNL     1      36.521 -18.263 -21.884  0.00  0.00    -0.053 C 
ATOM      8  H   UNL     1      35.553 -19.622 -19.648  0.00  0.00    -0.079 HD
BRANCH   6  10
ATOM      9  F   UNL     1      33.565 -13.585 -25.159  0.00  0.00    -0.204 F 
ATOM     10  C   UNL     1      34.791 -16.882 -22.991  0.00  0.00    -0.004 C 
ATOM     11  C   UNL     1      34.669 -15.639 -22.366  0.00  0.00    +0.002 C 
ATOM     12  C   UNL     1      34.499 -17.007 -24.351  0.00  0.00    +0.002 C 
ATOM     13  C   UNL     1      34.256 -14.525 -23.098  0.00  0.00    +0.030 C 
ATOM     14  C   UNL     1      34.086 -15.893 -25.082  0.00  0.00    +0.030 C 
ATOM     15  C   UNL     1      33.963 -14.653 -24.456  0.00  0.00    +0.140 C 
ENDBRANCH   6  10
ENDBRANCH   1   2
BRANCH   1  16
ATOM     16  C   UNL     1      35.471 -21.926 -18.743  0.00  0.00    -0.014 C 
BRANCH  16  17
ATOM     17  C   UNL     1      34.170 -22.518 -19.261  0.00  0.00    +0.074 C 
BRANCH  17  21
ATOM     18  O   UNL     1      29.887 -22.551 -17.330  0.00  0.00    -0.209 OA
ATOM     19  N   UNL     1      33.798 -23.367 -16.989  0.00  0.00    -0.290 N 
ATOM     20  N   UNL     1      31.974 -22.532 -18.277  0.00  0.00    -0.322 NA
ATOM     21  C   UNL     1      33.234 -22.816 -18.116  0.00  0.00    +0.173 C 
ATOM     22  C   UNL     1      32.979 -23.664 -15.897  0.00  0.00    +0.058 C 
ATOM     23  C   UNL     1      31.607 -23.392 -15.985  0.00  0.00    +0.108 C 
ATOM     24  C   UNL     1      33.492 -24.226 -14.724  0.00  0.00    -0.008 C 
ATOM     25  C   UNL     1      31.087 -22.794 -17.248  0.00  0.00    +0.207 C 
ATOM     26  C   UNL     1      30.754 -23.676 -14.915  0.00  0.00    +0.014 C 
ATOM     27  C   UNL     1      32.642 -24.511 -13.654  0.00  0.00    -0.003 C 
ATOM     28  C   UNL     1      31.278 -24.236 -13.749  0.00  0.00    +0.001 C 
ATOM     29  C   UNL     1      34.946 -24.536 -14.579  0.00  0.00    +0.032 C 
ATOM     30  H   UNL     1      34.764 -23.548 -16.952  0.00  0.00    +0.154 HD
ENDBRANCH  17  21
ENDBRANCH  16  17
ENDBRANCH   1  16
TORSDOF 5
ENDMDL
