MODEL 1
REMARK VINA RESULT:     -12.1      0.000      0.000
REMARK  Name = 448605
REMARK  6 active torsions:
REMARK  status: ('A' for Active; 'I' for Inactive)
REMARK    1  A    between atoms: C_3  and  N_11
REMARK    2  A    between atoms: C_4  and  C_27
REMARK    3  A    between atoms: C_9  and  C_21
REMARK    4  A    between atoms: N_26  and  C_29
REMARK    5  A    between atoms: C_30  and  C_35
REMARK    6  A    between atoms: C_35  and  N_36
REMARK                            x       y       z     vdW  Elec       q    Type
REMARK                         _______ _______ _______ _____ _____    ______ ____
ROOT
ATOM      1  C   UNL     1      33.728 -23.276 -16.485  0.00  0.00    +0.014 C 
ATOM      2  C   UNL     1      32.792 -22.918 -17.486  0.00  0.00    +0.001 C 
ATOM      3  C   UNL     1      35.085 -22.968 -16.672  0.00  0.00    +0.057 C 
ATOM      4  C   UNL     1      34.595 -21.964 -18.813  0.00  0.00    +0.055 C 
ATOM      5  C   UNL     1      33.242 -22.262 -18.644  0.00  0.00    +0.005 C 
ATOM      6  C   UNL     1      35.514 -22.316 -17.829  0.00  0.00    +0.020 C 
ATOM      7  C   UNL     1      33.279 -23.931 -15.328  0.00  0.00    +0.004 C 
ATOM      8  C   UNL     1      31.435 -23.227 -17.299  0.00  0.00    +0.000 C 
ATOM      9  C   UNL     1      31.926 -24.230 -15.158  0.00  0.00    +0.031 C 
ATOM     10  C   UNL     1      31.006 -23.878 -16.142  0.00  0.00    +0.003 C 
ENDROOT
BRANCH   3  11
ATOM     11  N   UNL     1      36.063 -23.303 -15.704  0.00  0.00    -0.257 N 
ATOM     12  N   UNL     1      36.066 -25.646 -15.830  0.00  0.00    -0.180 NA
ATOM     13  N   UNL     1      37.520 -24.487 -14.296  0.00  0.00    -0.203 NA
ATOM     14  C   UNL     1      36.572 -24.533 -15.257  0.00  0.00    +0.091 C 
ATOM     15  C   UNL     1      36.577 -26.809 -15.377  0.00  0.00    +0.108 C 
ATOM     16  C   UNL     1      37.986 -25.687 -13.890  0.00  0.00    +0.165 C 
ATOM     17  C   UNL     1      37.548 -26.892 -14.400  0.00  0.00    +0.022 C 
ATOM     18  H   UNL     1      36.462 -22.522 -15.257  0.00  0.00    +0.164 HD
ENDBRANCH   3  11
BRANCH   9  21
ATOM     19  N   UNL     1      30.120 -25.060 -13.670  0.00  0.00    -0.343 N 
ATOM     20  N   UNL     1      32.361 -25.393 -13.101  0.00  0.00    -0.285 NA
ATOM     21  C   UNL     1      31.476 -24.909 -13.953  0.00  0.00    +0.117 C 
ATOM     22  H   UNL     1      29.837 -25.522 -12.848  0.00  0.00    +0.144 HD
ATOM     23  H   UNL     1      29.444 -24.703 -14.291  0.00  0.00    +0.144 HD
ATOM     24  H   UNL     1      32.059 -25.853 -12.285  0.00  0.00    +0.188 HD
ENDBRANCH   9  21
BRANCH   4  27
ATOM     25  O   UNL     1      36.026 -21.730 -20.631  0.00  0.00    -0.270 OA
ATOM     26  N   UNL     1      34.292 -20.165 -20.404  0.00  0.00    -0.280 N 
ATOM     27  C   UNL     1      35.044 -21.284 -20.018  0.00  0.00    +0.250 C 
ATOM     28  H   UNL     1      33.540 -19.931 -19.815  0.00  0.00    +0.155 HD
BRANCH  26  29
ATOM     29  C   UNL     1      34.474 -19.328 -21.532  0.00  0.00    +0.051 C 
ATOM     30  C   UNL     1      34.829 -17.692 -23.737  0.00  0.00    -0.044 C 
ATOM     31  C   UNL     1      33.971 -19.727 -22.758  0.00  0.00    +0.014 C 
ATOM     32  C   UNL     1      35.151 -18.130 -21.383  0.00  0.00    +0.014 C 
ATOM     33  C   UNL     1      34.150 -18.903 -23.869  0.00  0.00    -0.005 C 
ATOM     34  C   UNL     1      35.330 -17.306 -22.494  0.00  0.00    -0.005 C 
BRANCH  30  35
ATOM     35  C   UNL     1      35.020 -16.811 -24.925  0.00  0.00    -0.059 C 
BRANCH  35  36
ATOM     36  N   UNL     1      33.937 -15.876 -25.093  0.00  0.00    +0.383 N 
ATOM     37  H   UNL     1      33.527 -15.992 -26.019  0.00  0.00    -0.089 HD
ATOM     38  H   UNL     1      34.291 -14.924 -24.995  0.00  0.00    -0.089 HD
ATOM     39  H   UNL     1      33.226 -16.048 -24.382  0.00  0.00    -0.089 HD
ENDBRANCH  35  36
ENDBRANCH  30  35
ENDBRANCH  26  29
ENDBRANCH   4  27
TORSDOF 6
ENDMDL
MODEL 2
REMARK VINA RESULT:      -9.5      7.005     14.740
REMARK  Name = 448605
REMARK  6 active torsions:
REMARK  status: ('A' for Active; 'I' for Inactive)
REMARK    1  A    between atoms: C_3  and  N_11
REMARK    2  A    between atoms: C_4  and  C_27
REMARK    3  A    between atoms: C_9  and  C_21
REMARK    4  A    between atoms: N_26  and  C_29
REMARK    5  A    between atoms: C_30  and  C_35
REMARK    6  A    between atoms: C_35  and  N_36
REMARK                            x       y       z     vdW  Elec       q    Type
REMARK                         _______ _______ _______ _____ _____    ______ ____
ROOT
ATOM      1  C   UNL     1      33.962  -9.277 -24.669  0.00  0.00    +0.014 C 
ATOM      2  C   UNL     1      34.643 -10.056 -25.635  0.00  0.00    +0.001 C 
ATOM      3  C   UNL     1      33.222  -9.921 -23.664  0.00  0.00    +0.057 C 
ATOM      4  C   UNL     1      33.821 -12.080 -24.563  0.00  0.00    +0.055 C 
ATOM      5  C   UNL     1      34.562 -11.457 -25.568  0.00  0.00    +0.005 C 
ATOM      6  C   UNL     1      33.153 -11.313 -23.612  0.00  0.00    +0.020 C 
ATOM      7  C   UNL     1      34.043  -7.877 -24.735  0.00  0.00    +0.004 C 
ATOM      8  C   UNL     1      35.383  -9.412 -26.639  0.00  0.00    +0.000 C 
ATOM      9  C   UNL     1      34.784  -7.253 -25.741  0.00  0.00    +0.031 C 
ATOM     10  C   UNL     1      35.453  -8.020 -26.690  0.00  0.00    +0.003 C 
ENDROOT
BRANCH   3  11
ATOM     11  N   UNL     1      32.523  -9.189 -22.673  0.00  0.00    -0.257 N 
ATOM     12  N   UNL     1      32.145 -10.841 -21.050  0.00  0.00    -0.180 NA
ATOM     13  N   UNL     1      31.369  -8.583 -20.722  0.00  0.00    -0.203 NA
ATOM     14  C   UNL     1      31.989  -9.554 -21.426  0.00  0.00    +0.091 C 
ATOM     15  C   UNL     1      31.620 -11.156 -19.848  0.00  0.00    +0.108 C 
ATOM     16  C   UNL     1      30.867  -8.968 -19.529  0.00  0.00    +0.165 C 
ATOM     17  C   UNL     1      30.964 -10.253 -19.036  0.00  0.00    +0.022 C 
ATOM     18  H   UNL     1      32.384  -8.242 -22.903  0.00  0.00    +0.164 HD
ENDBRANCH   3  11
BRANCH   9  21
ATOM     19  N   UNL     1      35.700  -5.153 -26.697  0.00  0.00    -0.343 N 
ATOM     20  N   UNL     1      34.120  -5.073 -24.978  0.00  0.00    -0.285 NA
ATOM     21  C   UNL     1      34.858  -5.802 -25.796  0.00  0.00    +0.117 C 
ATOM     22  H   UNL     1      35.735  -4.170 -26.717  0.00  0.00    +0.144 HD
ATOM     23  H   UNL     1      36.261  -5.678 -27.313  0.00  0.00    +0.144 HD
ATOM     24  H   UNL     1      34.168  -4.090 -25.014  0.00  0.00    +0.188 HD
ENDBRANCH   9  21
BRANCH   4  27
ATOM     25  O   UNL     1      33.066 -14.134 -25.351  0.00  0.00    -0.270 OA
ATOM     26  N   UNL     1      34.495 -14.142 -23.491  0.00  0.00    -0.280 N 
ATOM     27  C   UNL     1      33.748 -13.532 -24.508  0.00  0.00    +0.250 C 
ATOM     28  H   UNL     1      34.987 -13.533 -22.895  0.00  0.00    +0.155 HD
BRANCH  26  29
ATOM     29  C   UNL     1      34.635 -15.524 -23.208  0.00  0.00    +0.051 C 
ATOM     30  C   UNL     1      34.909 -18.223 -22.656  0.00  0.00    -0.044 C 
ATOM     31  C   UNL     1      34.747 -15.937 -21.892  0.00  0.00    +0.014 C 
ATOM     32  C   UNL     1      34.658 -16.430 -24.255  0.00  0.00    +0.014 C 
ATOM     33  C   UNL     1      34.885 -17.297 -21.614  0.00  0.00    -0.005 C 
ATOM     34  C   UNL     1      34.795 -17.789 -23.977  0.00  0.00    -0.005 C 
BRANCH  30  35
ATOM     35  C   UNL     1      35.056 -19.676 -22.358  0.00  0.00    -0.059 C 
BRANCH  35  36
ATOM     36  N   UNL     1      35.196 -19.935 -20.948  0.00  0.00    +0.383 N 
ATOM     37  H   UNL     1      34.978 -20.913 -20.758  0.00  0.00    -0.089 HD
ATOM     38  H   UNL     1      34.555 -19.337 -20.427  0.00  0.00    -0.089 HD
ATOM     39  H   UNL     1      36.155 -19.738 -20.661  0.00  0.00    -0.089 HD
ENDBRANCH  35  36
ENDBRANCH  30  35
ENDBRANCH  26  29
ENDBRANCH   4  27
TORSDOF 6
ENDMDL
