MODEL 1
REMARK VINA RESULT:     -12.5      0.000      0.000
REMARK  Name = 25145656
REMARK  4 active torsions:
REMARK  status: ('A' for Active; 'I' for Inactive)
REMARK    1  A    between atoms: C_5  and  C_22
REMARK    2  A    between atoms: C_8  and  C_11
REMARK    3  A    between atoms: C_14  and  C_19
REMARK    4  A    between atoms: C_22  and  C_24
REMARK                            x       y       z     vdW  Elec       q    Type
REMARK                         _______ _______ _______ _____ _____    ______ ____
ROOT
ATOM      1  N   UNL     1      34.552 -17.104 -23.127  0.00  0.00    -0.134 N 
ATOM      2  N   UNL     1      34.507 -17.895 -22.033  0.00  0.00    -0.168 NA
ATOM      3  N   UNL     1      34.615 -16.484 -25.256  0.00  0.00    -0.178 NA
ATOM      4  N   UNL     1      34.603 -18.847 -24.735  0.00  0.00    -0.200 NA
ATOM      5  C   UNL     1      34.561 -15.735 -23.125  0.00  0.00    +0.086 C 
ATOM      6  C   UNL     1      34.588 -17.524 -24.442  0.00  0.00    +0.114 C 
ATOM      7  C   UNL     1      34.599 -15.377 -24.449  0.00  0.00    +0.124 C 
ATOM      8  C   UNL     1      34.496 -19.168 -22.294  0.00  0.00    +0.103 C 
ATOM      9  C   UNL     1      34.566 -19.650 -23.722  0.00  0.00    +0.184 C 
ENDROOT
BRANCH   8  11
ATOM     10  F   UNL     1      36.671 -22.048 -19.049  0.00  0.00    -0.204 F 
ATOM     11  C   UNL     1      34.427 -20.153 -21.190  0.00  0.00    +0.019 C 
ATOM     12  C   UNL     1      35.601 -20.650 -20.624  0.00  0.00    +0.031 C 
ATOM     13  C   UNL     1      33.187 -20.583 -20.716  0.00  0.00    +0.002 C 
ATOM     14  C   UNL     1      34.297 -22.009 -19.111  0.00  0.00    +0.081 C 
ATOM     15  C   UNL     1      35.535 -21.577 -19.585  0.00  0.00    +0.144 C 
ATOM     16  C   UNL     1      33.123 -21.511 -19.676  0.00  0.00    +0.007 C 
BRANCH  14  19
ATOM     17  O   UNL     1      33.511 -23.988 -18.130  0.00  0.00    -0.270 OA
ATOM     18  N   UNL     1      35.004 -22.717 -16.893  0.00  0.00    -0.299 N 
ATOM     19  C   UNL     1      34.224 -22.975 -18.026  0.00  0.00    +0.248 C 
ATOM     20  C   UNL     1      35.058 -23.592 -15.744  0.00  0.00    +0.111 C 
ATOM     21  H   UNL     1      35.545 -21.895 -16.876  0.00  0.00    +0.150 HD
ENDBRANCH  14  19
ENDBRANCH   8  11
BRANCH   5  22
ATOM     22  C   UNL     1      34.530 -14.902 -21.859  0.00  0.00    +0.068 C 
BRANCH  22  24
ATOM     23  N   UNL     1      30.893 -10.571 -22.031  0.00  0.00    -0.248 NA
ATOM     24  C   UNL     1      33.577 -13.756 -21.911  0.00  0.00    -0.038 C 
ATOM     25  C   UNL     1      33.818 -12.685 -22.766  0.00  0.00    +0.050 C 
ATOM     26  C   UNL     1      32.923 -11.604 -22.819  0.00  0.00    -0.004 C 
ATOM     27  C   UNL     1      32.445 -13.751 -21.107  0.00  0.00    -0.028 C 
ATOM     28  C   UNL     1      31.770 -11.591 -22.005  0.00  0.00    +0.060 C 
ATOM     29  C   UNL     1      31.555 -12.676 -21.159  0.00  0.00    +0.071 C 
ATOM     30  C   UNL     1      33.139 -10.513 -23.672  0.00  0.00    -0.001 C 
ATOM     31  C   UNL     1      32.236  -9.459 -23.700  0.00  0.00    +0.020 C 
ATOM     32  C   UNL     1      31.139  -9.536 -22.868  0.00  0.00    +0.098 C 
ENDBRANCH  22  24
ENDBRANCH   5  22
TORSDOF 4
ENDMDL
MODEL 2
REMARK VINA RESULT:     -12.2      3.896      9.936
REMARK  Name = 25145656
REMARK  4 active torsions:
REMARK  status: ('A' for Active; 'I' for Inactive)
REMARK    1  A    between atoms: C_5  and  C_22
REMARK    2  A    between atoms: C_8  and  C_11
REMARK    3  A    between atoms: C_14  and  C_19
REMARK    4  A    between atoms: C_22  and  C_24
REMARK                            x       y       z     vdW  Elec       q    Type
REMARK                         _______ _______ _______ _____ _____    ______ ____
ROOT
ATOM      1  N   UNL     1      34.363 -16.151 -23.900  0.00  0.00    -0.134 N 
ATOM      2  N   UNL     1      34.026 -14.988 -23.300  0.00  0.00    -0.168 NA
ATOM      3  N   UNL     1      34.625 -17.690 -25.476  0.00  0.00    -0.178 NA
ATOM      4  N   UNL     1      33.556 -15.599 -26.061  0.00  0.00    -0.200 NA
ATOM      5  C   UNL     1      34.977 -17.215 -23.295  0.00  0.00    +0.086 C 
ATOM      6  C   UNL     1      34.163 -16.478 -25.227  0.00  0.00    +0.114 C 
ATOM      7  C   UNL     1      35.127 -18.151 -24.288  0.00  0.00    +0.124 C 
ATOM      8  C   UNL     1      33.463 -14.123 -24.089  0.00  0.00    +0.103 C 
ATOM      9  C   UNL     1      33.207 -14.470 -25.535  0.00  0.00    +0.184 C 
ENDROOT
BRANCH   8  11
ATOM     10  F   UNL     1      30.945 -11.384 -20.973  0.00  0.00    -0.204 F 
ATOM     11  C   UNL     1      33.059 -12.796 -23.571  0.00  0.00    +0.019 C 
ATOM     12  C   UNL     1      32.175 -12.707 -22.496  0.00  0.00    +0.031 C 
ATOM     13  C   UNL     1      33.564 -11.635 -24.157  0.00  0.00    +0.002 C 
ATOM     14  C   UNL     1      32.298 -10.296 -22.593  0.00  0.00    +0.081 C 
ATOM     15  C   UNL     1      31.795 -11.457 -22.007  0.00  0.00    +0.144 C 
ATOM     16  C   UNL     1      33.183 -10.385 -23.668  0.00  0.00    +0.007 C 
BRANCH  14  19
ATOM     17  O   UNL     1      32.179  -8.657 -20.920  0.00  0.00    -0.270 OA
ATOM     18  N   UNL     1      31.237  -8.140 -22.974  0.00  0.00    -0.299 N 
ATOM     19  C   UNL     1      31.906  -8.991 -22.087  0.00  0.00    +0.248 C 
ATOM     20  C   UNL     1      30.803  -6.805 -22.628  0.00  0.00    +0.111 C 
ATOM     21  H   UNL     1      31.051  -8.468 -23.884  0.00  0.00    +0.150 HD
ENDBRANCH  14  19
ENDBRANCH   8  11
BRANCH   5  22
ATOM     22  C   UNL     1      35.359 -17.235 -21.829  0.00  0.00    +0.068 C 
BRANCH  22  24
ATOM     23  N   UNL     1      35.322 -22.395 -19.505  0.00  0.00    -0.248 NA
ATOM     24  C   UNL     1      35.339 -18.595 -21.217  0.00  0.00    -0.038 C 
ATOM     25  C   UNL     1      34.128 -19.229 -20.959  0.00  0.00    +0.050 C 
ATOM     26  C   UNL     1      34.104 -20.510 -20.383  0.00  0.00    -0.004 C 
ATOM     27  C   UNL     1      36.530 -19.236 -20.899  0.00  0.00    -0.028 C 
ATOM     28  C   UNL     1      35.309 -21.168 -20.058  0.00  0.00    +0.060 C 
ATOM     29  C   UNL     1      36.507 -20.510 -20.327  0.00  0.00    +0.071 C 
ATOM     30  C   UNL     1      32.898 -21.172 -20.115  0.00  0.00    -0.001 C 
ATOM     31  C   UNL     1      32.909 -22.437 -19.544  0.00  0.00    +0.020 C 
ATOM     32  C   UNL     1      34.136 -22.999 -19.262  0.00  0.00    +0.098 C 
ENDBRANCH  22  24
ENDBRANCH   5  22
TORSDOF 4
ENDMDL
MODEL 3
REMARK VINA RESULT:     -11.5      5.997     12.244
REMARK  Name = 25145656
REMARK  4 active torsions:
REMARK  status: ('A' for Active; 'I' for Inactive)
REMARK    1  A    between atoms: C_5  and  C_22
REMARK    2  A    between atoms: C_8  and  C_11
REMARK    3  A    between atoms: C_14  and  C_19
REMARK    4  A    between atoms: C_22  and  C_24
REMARK                            x       y       z     vdW  Elec       q    Type
REMARK                         _______ _______ _______ _____ _____    ______ ____
ROOT
ATOM      1  N   UNL     1      32.610 -11.417 -22.893  0.00  0.00    -0.134 N 
ATOM      2  N   UNL     1      33.133 -10.402 -23.617  0.00  0.00    -0.168 NA
ATOM      3  N   UNL     1      31.346 -12.504 -21.430  0.00  0.00    -0.178 NA
ATOM      4  N   UNL     1      31.108 -10.102 -21.610  0.00  0.00    -0.200 NA
ATOM      5  C   UNL     1      32.957 -12.737 -22.998  0.00  0.00    +0.086 C 
ATOM      6  C   UNL     1      31.628 -11.314 -21.927  0.00  0.00    +0.114 C 
ATOM      7  C   UNL     1      32.164 -13.387 -22.086  0.00  0.00    +0.124 C 
ATOM      8  C   UNL     1      32.631  -9.236 -23.343  0.00  0.00    +0.103 C 
ATOM      9  C   UNL     1      31.578  -9.095 -22.271  0.00  0.00    +0.184 C 
ENDROOT
BRANCH   8  11
ATOM     10  F   UNL     1      31.747  -5.421 -26.210  0.00  0.00    -0.204 F 
ATOM     11  C   UNL     1      33.096  -8.035 -24.076  0.00  0.00    +0.019 C 
ATOM     12  C   UNL     1      32.189  -7.275 -24.814  0.00  0.00    +0.031 C 
ATOM     13  C   UNL     1      34.440  -7.665 -24.026  0.00  0.00    +0.002 C 
ATOM     14  C   UNL     1      33.971  -5.774 -25.455  0.00  0.00    +0.081 C 
ATOM     15  C   UNL     1      32.627  -6.144 -25.503  0.00  0.00    +0.144 C 
ATOM     16  C   UNL     1      34.877  -6.535 -24.716  0.00  0.00    +0.007 C 
BRANCH  14  19
ATOM     17  O   UNL     1      33.804  -3.524 -26.095  0.00  0.00    -0.270 OA
ATOM     18  N   UNL     1      35.608  -4.725 -26.918  0.00  0.00    -0.299 N 
ATOM     19  C   UNL     1      34.431  -4.595 -26.172  0.00  0.00    +0.248 C 
ATOM     20  C   UNL     1      36.205  -3.641 -27.664  0.00  0.00    +0.111 C 
ATOM     21  H   UNL     1      36.055  -5.603 -26.936  0.00  0.00    +0.150 HD
ENDBRANCH  14  19
ENDBRANCH   8  11
BRANCH   5  22
ATOM     22  C   UNL     1      34.012 -13.249 -23.958  0.00  0.00    +0.068 C 
BRANCH  22  24
ATOM     23  N   UNL     1      34.527 -18.883 -24.031  0.00  0.00    -0.248 NA
ATOM     24  C   UNL     1      34.151 -14.733 -23.968  0.00  0.00    -0.038 C 
ATOM     25  C   UNL     1      34.659 -15.396 -22.854  0.00  0.00    +0.050 C 
ATOM     26  C   UNL     1      34.791 -16.794 -22.858  0.00  0.00    -0.004 C 
ATOM     27  C   UNL     1      33.776 -15.464 -25.088  0.00  0.00    -0.028 C 
ATOM     28  C   UNL     1      34.412 -17.543 -23.993  0.00  0.00    +0.060 C 
ATOM     29  C   UNL     1      33.908 -16.854 -25.093  0.00  0.00    +0.071 C 
ATOM     30  C   UNL     1      35.298 -17.487 -21.751  0.00  0.00    -0.001 C 
ATOM     31  C   UNL     1      35.418 -18.870 -21.787  0.00  0.00    +0.020 C 
ATOM     32  C   UNL     1      35.021 -19.514 -22.940  0.00  0.00    +0.098 C 
ENDBRANCH  22  24
ENDBRANCH   5  22
TORSDOF 4
ENDMDL
MODEL 4
REMARK VINA RESULT:     -11.4      3.428      6.520
REMARK  Name = 25145656
REMARK  4 active torsions:
REMARK  status: ('A' for Active; 'I' for Inactive)
REMARK    1  A    between atoms: C_5  and  C_22
REMARK    2  A    between atoms: C_8  and  C_11
REMARK    3  A    between atoms: C_14  and  C_19
REMARK    4  A    between atoms: C_22  and  C_24
REMARK                            x       y       z     vdW  Elec       q    Type
REMARK                         _______ _______ _______ _____ _____    ______ ____
ROOT
ATOM      1  N   UNL     1      33.912 -21.679 -19.209  0.00  0.00    -0.134 N 
ATOM      2  N   UNL     1      34.975 -22.126 -18.505  0.00  0.00    -0.168 NA
ATOM      3  N   UNL     1      31.810 -21.358 -19.840  0.00  0.00    -0.178 NA
ATOM      4  N   UNL     1      32.246 -22.804 -17.949  0.00  0.00    -0.200 NA
ATOM      5  C   UNL     1      33.963 -20.841 -20.290  0.00  0.00    +0.086 C 
ATOM      6  C   UNL     1      32.585 -21.974 -18.966  0.00  0.00    +0.114 C 
ATOM      7  C   UNL     1      32.655 -20.657 -20.661  0.00  0.00    +0.124 C 
ATOM      8  C   UNL     1      34.669 -22.905 -17.511  0.00  0.00    +0.103 C 
ATOM      9  C   UNL     1      33.228 -23.265 -17.245  0.00  0.00    +0.184 C 
ENDROOT
BRANCH   8  11
ATOM     10  F   UNL     1      36.227 -26.166 -14.272  0.00  0.00    -0.204 F 
ATOM     11  C   UNL     1      35.734 -23.452 -16.639  0.00  0.00    +0.019 C 
ATOM     12  C   UNL     1      35.480 -24.573 -15.848  0.00  0.00    +0.031 C 
ATOM     13  C   UNL     1      36.991 -22.848 -16.609  0.00  0.00    +0.002 C 
ATOM     14  C   UNL     1      37.739 -24.484 -14.997  0.00  0.00    +0.081 C 
ATOM     15  C   UNL     1      36.483 -25.088 -15.028  0.00  0.00    +0.144 C 
ATOM     16  C   UNL     1      37.993 -23.364 -15.788  0.00  0.00    +0.007 C 
BRANCH  14  19
ATOM     17  O   UNL     1      38.905 -24.632 -12.967  0.00  0.00    -0.270 OA
ATOM     18  N   UNL     1      39.626 -25.992 -14.701  0.00  0.00    -0.299 N 
ATOM     19  C   UNL     1      38.788 -25.019 -14.143  0.00  0.00    +0.248 C 
ATOM     20  C   UNL     1      40.697 -26.635 -13.974  0.00  0.00    +0.111 C 
ATOM     21  H   UNL     1      39.479 -26.252 -15.639  0.00  0.00    +0.150 HD
ENDBRANCH  14  19
ENDBRANCH   8  11
BRANCH   5  22
ATOM     22  C   UNL     1      35.256 -20.297 -20.863  0.00  0.00    +0.068 C 
BRANCH  22  24
ATOM     23  N   UNL     1      34.520 -16.702 -25.171  0.00  0.00    -0.248 NA
ATOM     24  C   UNL     1      35.063 -19.341 -21.992  0.00  0.00    -0.038 C 
ATOM     25  C   UNL     1      34.987 -17.974 -21.746  0.00  0.00    +0.050 C 
ATOM     26  C   UNL     1      34.805 -17.070 -22.806  0.00  0.00    -0.004 C 
ATOM     27  C   UNL     1      34.956 -19.811 -23.295  0.00  0.00    -0.028 C 
ATOM     28  C   UNL     1      34.696 -17.540 -24.133  0.00  0.00    +0.060 C 
ATOM     29  C   UNL     1      34.774 -18.913 -24.349  0.00  0.00    +0.071 C 
ATOM     30  C   UNL     1      34.727 -15.688 -22.588  0.00  0.00    -0.001 C 
ATOM     31  C   UNL     1      34.546 -14.822 -23.657  0.00  0.00    +0.020 C 
ATOM     32  C   UNL     1      34.449 -15.374 -24.917  0.00  0.00    +0.098 C 
ENDBRANCH  22  24
ENDBRANCH   5  22
TORSDOF 4
ENDMDL
MODEL 5
REMARK VINA RESULT:     -11.3      5.781     12.145
REMARK  Name = 25145656
REMARK  4 active torsions:
REMARK  status: ('A' for Active; 'I' for Inactive)
REMARK    1  A    between atoms: C_5  and  C_22
REMARK    2  A    between atoms: C_8  and  C_11
REMARK    3  A    between atoms: C_14  and  C_19
REMARK    4  A    between atoms: C_22  and  C_24
REMARK                            x       y       z     vdW  Elec       q    Type
REMARK                         _______ _______ _______ _____ _____    ______ ____
ROOT
ATOM      1  N   UNL     1      32.311 -11.534 -22.269  0.00  0.00    -0.134 N 
ATOM      2  N   UNL     1      32.552 -10.436 -23.019  0.00  0.00    -0.168 NA
ATOM      3  N   UNL     1      31.505 -12.827 -20.657  0.00  0.00    -0.178 NA
ATOM      4  N   UNL     1      30.944 -10.472 -20.647  0.00  0.00    -0.200 NA
ATOM      5  C   UNL     1      32.790 -12.792 -22.516  0.00  0.00    +0.086 C 
ATOM      6  C   UNL     1      31.535 -11.593 -21.129  0.00  0.00    +0.114 C 
ATOM      7  C   UNL     1      32.278 -13.571 -21.509  0.00  0.00    +0.124 C 
ATOM      8  C   UNL     1      31.975  -9.355 -22.586  0.00  0.00    +0.103 C 
ATOM      9  C   UNL     1      31.147  -9.391 -21.325  0.00  0.00    +0.184 C 
ENDROOT
BRANCH   8  11
ATOM     10  F   UNL     1      34.795  -5.901 -24.504  0.00  0.00    -0.204 F 
ATOM     11  C   UNL     1      32.136  -8.080 -23.323  0.00  0.00    +0.019 C 
ATOM     12  C   UNL     1      33.412  -7.576 -23.574  0.00  0.00    +0.031 C 
ATOM     13  C   UNL     1      31.011  -7.384 -23.766  0.00  0.00    +0.002 C 
ATOM     14  C   UNL     1      32.439  -5.679 -24.710  0.00  0.00    +0.081 C 
ATOM     15  C   UNL     1      33.563  -6.376 -24.268  0.00  0.00    +0.144 C 
ATOM     16  C   UNL     1      31.163  -6.183 -24.459  0.00  0.00    +0.007 C 
BRANCH  14  19
ATOM     17  O   UNL     1      33.008  -4.422 -26.606  0.00  0.00    -0.270 OA
ATOM     18  N   UNL     1      32.231  -3.255 -24.761  0.00  0.00    -0.299 N 
ATOM     19  C   UNL     1      32.592  -4.427 -25.434  0.00  0.00    +0.248 C 
ATOM     20  C   UNL     1      32.303  -1.938 -25.352  0.00  0.00    +0.111 C 
ATOM     21  H   UNL     1      31.909  -3.331 -23.833  0.00  0.00    +0.150 HD
ENDBRANCH  14  19
ENDBRANCH   8  11
BRANCH   5  22
ATOM     22  C   UNL     1      33.688 -13.129 -23.690  0.00  0.00    +0.068 C 
BRANCH  22  24
ATOM     23  N   UNL     1      34.549 -18.673 -24.427  0.00  0.00    -0.248 NA
ATOM     24  C   UNL     1      33.919 -14.590 -23.875  0.00  0.00    -0.038 C 
ATOM     25  C   UNL     1      34.531 -15.335 -22.871  0.00  0.00    +0.050 C 
ATOM     26  C   UNL     1      34.750 -16.712 -23.041  0.00  0.00    -0.004 C 
ATOM     27  C   UNL     1      33.525 -15.217 -25.050  0.00  0.00    -0.028 C 
ATOM     28  C   UNL     1      34.353 -17.356 -24.232  0.00  0.00    +0.060 C 
ATOM     29  C   UNL     1      33.743 -16.586 -25.219  0.00  0.00    +0.071 C 
ATOM     30  C   UNL     1      35.363 -17.486 -22.046  0.00  0.00    -0.001 C 
ATOM     31  C   UNL     1      35.567 -18.844 -22.245  0.00  0.00    +0.020 C 
ATOM     32  C   UNL     1      35.145 -19.384 -23.442  0.00  0.00    +0.098 C 
ENDBRANCH  22  24
ENDBRANCH   5  22
TORSDOF 4
ENDMDL
MODEL 6
REMARK VINA RESULT:     -10.8      3.770      9.492
REMARK  Name = 25145656
REMARK  4 active torsions:
REMARK  status: ('A' for Active; 'I' for Inactive)
REMARK    1  A    between atoms: C_5  and  C_22
REMARK    2  A    between atoms: C_8  and  C_11
REMARK    3  A    between atoms: C_14  and  C_19
REMARK    4  A    between atoms: C_22  and  C_24
REMARK                            x       y       z     vdW  Elec       q    Type
REMARK                         _______ _______ _______ _____ _____    ______ ____
ROOT
ATOM      1  N   UNL     1      34.481 -16.845 -23.693  0.00  0.00    -0.134 N 
ATOM      2  N   UNL     1      34.073 -15.815 -22.919  0.00  0.00    -0.168 NA
ATOM      3  N   UNL     1      34.839 -18.092 -25.493  0.00  0.00    -0.178 NA
ATOM      4  N   UNL     1      33.647 -16.001 -25.748  0.00  0.00    -0.200 NA
ATOM      5  C   UNL     1      35.156 -17.954 -23.260  0.00  0.00    +0.086 C 
ATOM      6  C   UNL     1      34.305 -16.965 -25.058  0.00  0.00    +0.114 C 
ATOM      7  C   UNL     1      35.365 -18.707 -24.388  0.00  0.00    +0.124 C 
ATOM      8  C   UNL     1      33.460 -14.870 -23.566  0.00  0.00    +0.103 C 
ATOM      9  C   UNL     1      33.230 -14.994 -25.053  0.00  0.00    +0.184 C 
ENDROOT
BRANCH   8  11
ATOM     10  F   UNL     1      32.450 -10.124 -23.454  0.00  0.00    -0.204 F 
ATOM     11  C   UNL     1      32.976 -13.669 -22.847  0.00  0.00    +0.019 C 
ATOM     12  C   UNL     1      32.939 -12.436 -23.497  0.00  0.00    +0.031 C 
ATOM     13  C   UNL     1      32.557 -13.772 -21.520  0.00  0.00    +0.002 C 
ATOM     14  C   UNL     1      32.064 -11.407 -21.493  0.00  0.00    +0.081 C 
ATOM     15  C   UNL     1      32.482 -11.305 -22.820  0.00  0.00    +0.144 C 
ATOM     16  C   UNL     1      32.101 -12.641 -20.844  0.00  0.00    +0.007 C 
BRANCH  14  19
ATOM     17  O   UNL     1      30.602 -10.305 -20.027  0.00  0.00    -0.270 OA
ATOM     18  N   UNL     1      32.296  -9.040 -20.978  0.00  0.00    -0.299 N 
ATOM     19  C   UNL     1      31.586 -10.231 -20.784  0.00  0.00    +0.248 C 
ATOM     20  C   UNL     1      31.961  -7.794 -20.327  0.00  0.00    +0.111 C 
ATOM     21  H   UNL     1      33.066  -9.051 -21.592  0.00  0.00    +0.150 HD
ENDBRANCH  14  19
ENDBRANCH   8  11
BRANCH   5  22
ATOM     22  C   UNL     1      35.535 -18.186 -21.811  0.00  0.00    +0.068 C 
BRANCH  22  24
ATOM     23  N   UNL     1      32.610 -22.354 -19.342  0.00  0.00    -0.248 NA
ATOM     24  C   UNL     1      34.773 -19.288 -21.155  0.00  0.00    -0.038 C 
ATOM     25  C   UNL     1      35.417 -20.166 -20.289  0.00  0.00    +0.050 C 
ATOM     26  C   UNL     1      34.703 -21.204 -19.669  0.00  0.00    -0.004 C 
ATOM     27  C   UNL     1      33.415 -19.444 -21.406  0.00  0.00    -0.028 C 
ATOM     28  C   UNL     1      33.324 -21.370 -19.918  0.00  0.00    +0.060 C 
ATOM     29  C   UNL     1      32.705 -20.477 -20.790  0.00  0.00    +0.071 C 
ATOM     30  C   UNL     1      35.326 -22.102 -18.791  0.00  0.00    -0.001 C 
ATOM     31  C   UNL     1      34.592 -23.119 -18.195  0.00  0.00    +0.020 C 
ATOM     32  C   UNL     1      33.250 -23.200 -18.501  0.00  0.00    +0.098 C 
ENDBRANCH  22  24
ENDBRANCH   5  22
TORSDOF 4
ENDMDL
MODEL 7
REMARK VINA RESULT:     -10.6      5.302     11.190
REMARK  Name = 25145656
REMARK  4 active torsions:
REMARK  status: ('A' for Active; 'I' for Inactive)
REMARK    1  A    between atoms: C_5  and  C_22
REMARK    2  A    between atoms: C_8  and  C_11
REMARK    3  A    between atoms: C_14  and  C_19
REMARK    4  A    between atoms: C_22  and  C_24
REMARK                            x       y       z     vdW  Elec       q    Type
REMARK                         _______ _______ _______ _____ _____    ______ ____
ROOT
ATOM      1  N   UNL     1      35.029 -24.005 -13.906  0.00  0.00    -0.134 N 
ATOM      2  N   UNL     1      34.817 -23.278 -15.025  0.00  0.00    -0.168 NA
ATOM      3  N   UNL     1      36.007 -25.369 -12.454  0.00  0.00    -0.178 NA
ATOM      4  N   UNL     1      37.091 -24.965 -14.580  0.00  0.00    -0.200 NA
ATOM      5  C   UNL     1      34.204 -24.055 -12.815  0.00  0.00    +0.086 C 
ATOM      6  C   UNL     1      36.116 -24.819 -13.651  0.00  0.00    +0.114 C 
ATOM      7  C   UNL     1      34.828 -24.902 -11.934  0.00  0.00    +0.124 C 
ATOM      8  C   UNL     1      35.753 -23.387 -15.919  0.00  0.00    +0.103 C 
ATOM      9  C   UNL     1      36.934 -24.294 -15.674  0.00  0.00    +0.184 C 
ENDROOT
BRANCH   8  11
ATOM     10  F   UNL     1      33.259 -21.982 -19.838  0.00  0.00    -0.204 F 
ATOM     11  C   UNL     1      35.661 -22.629 -17.189  0.00  0.00    +0.019 C 
ATOM     12  C   UNL     1      34.483 -22.660 -17.935  0.00  0.00    +0.031 C 
ATOM     13  C   UNL     1      36.752 -21.884 -17.637  0.00  0.00    +0.002 C 
ATOM     14  C   UNL     1      35.487 -21.201 -19.579  0.00  0.00    +0.081 C 
ATOM     15  C   UNL     1      34.397 -21.946 -19.130  0.00  0.00    +0.144 C 
ATOM     16  C   UNL     1      36.665 -21.171 -18.832  0.00  0.00    +0.007 C 
BRANCH  14  19
ATOM     17  O   UNL     1      34.558 -20.760 -21.686  0.00  0.00    -0.270 OA
ATOM     18  N   UNL     1      36.285 -19.382 -20.983  0.00  0.00    -0.299 N 
ATOM     19  C   UNL     1      35.401 -20.455 -20.824  0.00  0.00    +0.248 C 
ATOM     20  C   UNL     1      36.306 -18.531 -22.152  0.00  0.00    +0.111 C 
ATOM     21  H   UNL     1      36.928 -19.196 -20.261  0.00  0.00    +0.150 HD
ENDBRANCH  14  19
ENDBRANCH   8  11
BRANCH   5  22
ATOM     22  C   UNL     1      32.899 -23.289 -12.720  0.00  0.00    +0.068 C 
BRANCH  22  24
ATOM     23  N   UNL     1      28.869 -25.226 -16.188  0.00  0.00    -0.248 NA
ATOM     24  C   UNL     1      31.836 -23.790 -13.637  0.00  0.00    -0.038 C 
ATOM     25  C   UNL     1      31.119 -22.899 -14.430  0.00  0.00    +0.050 C 
ATOM     26  C   UNL     1      30.116 -23.367 -15.296  0.00  0.00    -0.004 C 
ATOM     27  C   UNL     1      31.554 -25.149 -13.705  0.00  0.00    -0.028 C 
ATOM     28  C   UNL     1      29.824 -24.745 -15.370  0.00  0.00    +0.060 C 
ATOM     29  C   UNL     1      30.557 -25.614 -14.565  0.00  0.00    +0.071 C 
ATOM     30  C   UNL     1      29.380 -22.492 -16.106  0.00  0.00    -0.001 C 
ATOM     31  C   UNL     1      28.394 -22.986 -16.951  0.00  0.00    +0.020 C 
ATOM     32  C   UNL     1      28.181 -24.348 -16.954  0.00  0.00    +0.098 C 
ENDBRANCH  22  24
ENDBRANCH   5  22
TORSDOF 4
ENDMDL
MODEL 8
REMARK VINA RESULT:     -10.6      3.750      9.975
REMARK  Name = 25145656
REMARK  4 active torsions:
REMARK  status: ('A' for Active; 'I' for Inactive)
REMARK    1  A    between atoms: C_5  and  C_22
REMARK    2  A    between atoms: C_8  and  C_11
REMARK    3  A    between atoms: C_14  and  C_19
REMARK    4  A    between atoms: C_22  and  C_24
REMARK                            x       y       z     vdW  Elec       q    Type
REMARK                         _______ _______ _______ _____ _____    ______ ____
ROOT
ATOM      1  N   UNL     1      35.284 -20.119 -20.677  0.00  0.00    -0.134 N 
ATOM      2  N   UNL     1      34.657 -18.992 -21.079  0.00  0.00    -0.168 NA
ATOM      3  N   UNL     1      36.911 -21.566 -20.251  0.00  0.00    -0.178 NA
ATOM      4  N   UNL     1      37.480 -19.446 -21.271  0.00  0.00    -0.200 NA
ATOM      5  C   UNL     1      34.683 -21.214 -20.119  0.00  0.00    +0.086 C 
ATOM      6  C   UNL     1      36.641 -20.370 -20.743  0.00  0.00    +0.114 C 
ATOM      7  C   UNL     1      35.706 -22.092 -19.865  0.00  0.00    +0.124 C 
ATOM      8  C   UNL     1      35.448 -18.084 -21.568  0.00  0.00    +0.103 C 
ATOM      9  C   UNL     1      36.930 -18.349 -21.677  0.00  0.00    +0.184 C 
ENDROOT
BRANCH   8  11
ATOM     10  F   UNL     1      34.062 -15.108 -25.141  0.00  0.00    -0.204 F 
ATOM     11  C   UNL     1      34.898 -16.788 -22.029  0.00  0.00    +0.019 C 
ATOM     12  C   UNL     1      34.734 -16.548 -23.393  0.00  0.00    +0.031 C 
ATOM     13  C   UNL     1      34.546 -15.810 -21.100  0.00  0.00    +0.002 C 
ATOM     14  C   UNL     1      33.864 -14.349 -22.900  0.00  0.00    +0.081 C 
ATOM     15  C   UNL     1      34.216 -15.328 -23.828  0.00  0.00    +0.144 C 
ATOM     16  C   UNL     1      34.028 -14.590 -21.536  0.00  0.00    +0.007 C 
BRANCH  14  19
ATOM     17  O   UNL     1      32.158 -12.748 -23.063  0.00  0.00    -0.270 OA
ATOM     18  N   UNL     1      34.177 -12.247 -24.085  0.00  0.00    -0.299 N 
ATOM     19  C   UNL     1      33.323 -13.076 -23.349  0.00  0.00    +0.248 C 
ATOM     20  C   UNL     1      33.796 -10.944 -24.580  0.00  0.00    +0.111 C 
ATOM     21  H   UNL     1      35.088 -12.568 -24.277  0.00  0.00    +0.150 HD
ENDBRANCH  14  19
ENDBRANCH   8  11
BRANCH   5  22
ATOM     22  C   UNL     1      33.189 -21.316 -19.883  0.00  0.00    +0.068 C 
BRANCH  22  24
ATOM     23  N   UNL     1      31.829 -24.298 -15.270  0.00  0.00    -0.248 NA
ATOM     24  C   UNL     1      32.821 -22.099 -18.668  0.00  0.00    -0.038 C 
ATOM     25  C   UNL     1      31.503 -22.121 -18.222  0.00  0.00    +0.050 C 
ATOM     26  C   UNL     1      31.151 -22.857 -17.079  0.00  0.00    -0.004 C 
ATOM     27  C   UNL     1      33.792 -22.812 -17.975  0.00  0.00    -0.028 C 
ATOM     28  C   UNL     1      32.132 -23.583 -16.369  0.00  0.00    +0.060 C 
ATOM     29  C   UNL     1      33.442 -23.544 -16.838  0.00  0.00    +0.071 C 
ATOM     30  C   UNL     1      29.832 -22.897 -16.608  0.00  0.00    -0.001 C 
ATOM     31  C   UNL     1      29.517 -23.634 -15.474  0.00  0.00    +0.020 C 
ATOM     32  C   UNL     1      30.543 -24.311 -14.848  0.00  0.00    +0.098 C 
ENDBRANCH  22  24
ENDBRANCH   5  22
TORSDOF 4
ENDMDL
MODEL 9
REMARK VINA RESULT:     -10.5      5.707     12.201
REMARK  Name = 25145656
REMARK  4 active torsions:
REMARK  status: ('A' for Active; 'I' for Inactive)
REMARK    1  A    between atoms: C_5  and  C_22
REMARK    2  A    between atoms: C_8  and  C_11
REMARK    3  A    between atoms: C_14  and  C_19
REMARK    4  A    between atoms: C_22  and  C_24
REMARK                            x       y       z     vdW  Elec       q    Type
REMARK                         _______ _______ _______ _____ _____    ______ ____
ROOT
ATOM      1  N   UNL     1      32.231 -10.820 -22.288  0.00  0.00    -0.134 N 
ATOM      2  N   UNL     1      32.862 -10.001 -23.157  0.00  0.00    -0.168 NA
ATOM      3  N   UNL     1      30.962 -11.496 -20.599  0.00  0.00    -0.178 NA
ATOM      4  N   UNL     1      31.225  -9.120 -20.976  0.00  0.00    -0.200 NA
ATOM      5  C   UNL     1      32.270 -12.189 -22.306  0.00  0.00    +0.086 C 
ATOM      6  C   UNL     1      31.427 -10.435 -21.234  0.00  0.00    +0.114 C 
ATOM      7  C   UNL     1      31.479 -12.581 -21.256  0.00  0.00    +0.124 C 
ATOM      8  C   UNL     1      32.663  -8.735 -22.940  0.00  0.00    +0.103 C 
ATOM      9  C   UNL     1      31.812  -8.290 -21.775  0.00  0.00    +0.184 C 
ENDROOT
BRANCH   8  11
ATOM     10  F   UNL     1      35.530  -7.565 -26.677  0.00  0.00    -0.204 F 
ATOM     11  C   UNL     1      33.277  -7.722 -23.829  0.00  0.00    +0.019 C 
ATOM     12  C   UNL     1      34.132  -8.122 -24.855  0.00  0.00    +0.031 C 
ATOM     13  C   UNL     1      33.001  -6.368 -23.639  0.00  0.00    +0.002 C 
ATOM     14  C   UNL     1      34.435  -5.814 -25.503  0.00  0.00    +0.081 C 
ATOM     15  C   UNL     1      34.710  -7.168 -25.692  0.00  0.00    +0.144 C 
ATOM     16  C   UNL     1      33.580  -5.414 -24.476  0.00  0.00    +0.007 C 
BRANCH  14  19
ATOM     17  O   UNL     1      36.191  -4.969 -26.807  0.00  0.00    -0.270 OA
ATOM     18  N   UNL     1      34.247  -3.710 -26.709  0.00  0.00    -0.299 N 
ATOM     19  C   UNL     1      35.035  -4.817 -26.374  0.00  0.00    +0.248 C 
ATOM     20  C   UNL     1      34.691  -2.647 -27.582  0.00  0.00    +0.111 C 
ATOM     21  H   UNL     1      33.340  -3.651 -26.331  0.00  0.00    +0.150 HD
ENDBRANCH  14  19
ENDBRANCH   8  11
BRANCH   5  22
ATOM     22  C   UNL     1      33.057 -12.988 -23.326  0.00  0.00    +0.068 C 
BRANCH  22  24
ATOM     23  N   UNL     1      35.433 -17.659 -21.190  0.00  0.00    -0.248 NA
ATOM     24  C   UNL     1      33.684 -14.222 -22.772  0.00  0.00    -0.038 C 
ATOM     25  C   UNL     1      34.090 -15.244 -23.626  0.00  0.00    +0.050 C 
ATOM     26  C   UNL     1      34.681 -16.409 -23.109  0.00  0.00    -0.004 C 
ATOM     27  C   UNL     1      33.867 -14.360 -21.402  0.00  0.00    -0.028 C 
ATOM     28  C   UNL     1      34.870 -16.556 -21.718  0.00  0.00    +0.060 C 
ATOM     29  C   UNL     1      34.455 -15.518 -20.888  0.00  0.00    +0.071 C 
ATOM     30  C   UNL     1      35.101 -17.452 -23.945  0.00  0.00    -0.001 C 
ATOM     31  C   UNL     1      35.681 -18.591 -23.403  0.00  0.00    +0.020 C 
ATOM     32  C   UNL     1      35.823 -18.643 -22.032  0.00  0.00    +0.098 C 
ENDBRANCH  22  24
ENDBRANCH   5  22
TORSDOF 4
ENDMDL
