MODEL 1
REMARK VINA RESULT:     -11.5      0.000      0.000
REMARK  Name = 6914614
REMARK  7 active torsions:
REMARK  status: ('A' for Active; 'I' for Inactive)
REMARK    1  A    between atoms: O_1  and  C_4
REMARK    2  A    between atoms: O_1  and  C_18
REMARK    3  A    between atoms: C_9  and  C_13
REMARK    4  A    between atoms: C_18  and  C_19
REMARK    5  A    between atoms: C_19  and  N_20
REMARK    6  A    between atoms: C_19  and  C_24
REMARK    7  A    between atoms: C_24  and  C_26
REMARK                            x       y       z     vdW  Elec       q    Type
REMARK                         _______ _______ _______ _____ _____    ______ ____
ROOT
ATOM      1  O   UNL     1      36.315 -22.420 -18.753  0.00  0.00    -0.476 OA
ENDROOT
BRANCH   1   4
ATOM      2  N   UNL     1      33.802 -19.436 -21.599  0.00  0.00    -0.404 NA
ATOM      3  N   UNL     1      32.754 -22.141 -19.382  0.00  0.00    -0.258 NA
ATOM      4  C   UNL     1      35.153 -21.952 -19.282  0.00  0.00    +0.159 C 
ATOM      5  C   UNL     1      35.119 -20.892 -20.199  0.00  0.00    +0.063 C 
ATOM      6  C   UNL     1      33.889 -20.450 -20.715  0.00  0.00    +0.136 C 
ATOM      7  C   UNL     1      36.285 -20.246 -20.629  0.00  0.00    +0.008 C 
ATOM      8  C   UNL     1      33.955 -22.534 -18.912  0.00  0.00    +0.130 C 
ATOM      9  C   UNL     1      34.951 -18.837 -21.989  0.00  0.00    +0.131 C 
ATOM     10  C   UNL     1      36.204 -19.199 -21.538  0.00  0.00    +0.032 C 
ATOM     11  C   UNL     1      32.761 -21.115 -20.266  0.00  0.00    +0.184 C 
BRANCH   9  13
ATOM     12  N   UNL     1      34.454 -15.672 -24.770  0.00  0.00    -0.242 NA
ATOM     13  C   UNL     1      34.782 -17.760 -22.936  0.00  0.00    +0.033 C 
ATOM     14  C   UNL     1      34.928 -16.438 -22.526  0.00  0.00    +0.023 C 
ATOM     15  C   UNL     1      34.471 -18.036 -24.264  0.00  0.00    +0.023 C 
ATOM     16  C   UNL     1      34.756 -15.440 -23.473  0.00  0.00    +0.099 C 
ATOM     17  C   UNL     1      34.319 -16.967 -25.133  0.00  0.00    +0.099 C 
ENDBRANCH   9  13
ENDBRANCH   1   4
BRANCH   1  18
ATOM     18  C   UNL     1      36.652 -21.985 -17.435  0.00  0.00    +0.184 C 
BRANCH  18  19
ATOM     19  C   UNL     1      36.239 -23.012 -16.374  0.00  0.00    -0.017 C 
BRANCH  19  20
ATOM     20  N   UNL     1      37.453 -23.597 -15.792  0.00  0.00    +0.384 N 
ATOM     21  H   UNL     1      37.467 -23.422 -14.787  0.00  0.00    -0.089 HD
ATOM     22  H   UNL     1      38.275 -23.174 -16.222  0.00  0.00    -0.089 HD
ATOM     23  H   UNL     1      37.460 -24.604 -15.960  0.00  0.00    -0.089 HD
ENDBRANCH  19  20
BRANCH  19  24
ATOM     24  C   UNL     1      35.383 -22.427 -15.234  0.00  0.00    +0.009 C 
BRANCH  24  26
ATOM     25  N   UNL     1      33.838 -25.037 -13.200  0.00  0.00    -0.312 N 
ATOM     26  C   UNL     1      34.511 -23.445 -14.554  0.00  0.00    -0.008 C 
ATOM     27  C   UNL     1      33.162 -23.706 -14.858  0.00  0.00    +0.011 C 
ATOM     28  C   UNL     1      32.754 -24.719 -13.987  0.00  0.00    +0.048 C 
ATOM     29  C   UNL     1      34.913 -24.261 -13.542  0.00  0.00    +0.058 C 
ATOM     30  C   UNL     1      32.231 -23.191 -15.783  0.00  0.00    +0.001 C 
ATOM     31  C   UNL     1      31.457 -25.245 -13.994  0.00  0.00    +0.015 C 
ATOM     32  C   UNL     1      30.930 -23.707 -15.802  0.00  0.00    +0.000 C 
ATOM     33  C   UNL     1      30.551 -24.719 -14.921  0.00  0.00    +0.001 C 
ATOM     34  H   UNL     1      33.839 -25.722 -12.494  0.00  0.00    +0.152 HD
ENDBRANCH  24  26
ENDBRANCH  19  24
ENDBRANCH  18  19
ENDBRANCH   1  18
TORSDOF 7
ENDMDL
MODEL 2
REMARK VINA RESULT:     -11.5      2.172      9.838
REMARK  Name = 6914614
REMARK  7 active torsions:
REMARK  status: ('A' for Active; 'I' for Inactive)
REMARK    1  A    between atoms: O_1  and  C_4
REMARK    2  A    between atoms: O_1  and  C_18
REMARK    3  A    between atoms: C_9  and  C_13
REMARK    4  A    between atoms: C_18  and  C_19
REMARK    5  A    between atoms: C_19  and  N_20
REMARK    6  A    between atoms: C_19  and  C_24
REMARK    7  A    between atoms: C_24  and  C_26
REMARK                            x       y       z     vdW  Elec       q    Type
REMARK                         _______ _______ _______ _____ _____    ______ ____
ROOT
ATOM      1  O   UNL     1      35.453 -20.786 -20.415  0.00  0.00    -0.476 OA
ENDROOT
BRANCH   1   4
ATOM      2  N   UNL     1      35.058 -23.378 -16.359  0.00  0.00    -0.404 NA
ATOM      3  N   UNL     1      32.651 -22.596 -18.991  0.00  0.00    -0.258 NA
ATOM      4  C   UNL     1      34.753 -21.555 -19.538  0.00  0.00    +0.159 C 
ATOM      5  C   UNL     1      35.326 -22.071 -18.368  0.00  0.00    +0.063 C 
ATOM      6  C   UNL     1      34.555 -22.859 -17.497  0.00  0.00    +0.136 C 
ATOM      7  C   UNL     1      36.662 -21.826 -18.026  0.00  0.00    +0.008 C 
ATOM      8  C   UNL     1      33.426 -21.845 -19.799  0.00  0.00    +0.130 C 
ATOM      9  C   UNL     1      36.353 -23.119 -16.065  0.00  0.00    +0.131 C 
ATOM     10  C   UNL     1      37.190 -22.358 -16.857  0.00  0.00    +0.032 C 
ATOM     11  C   UNL     1      33.239 -23.077 -17.870  0.00  0.00    +0.184 C 
BRANCH   9  13
ATOM     12  N   UNL     1      37.737 -24.847 -12.446  0.00  0.00    -0.242 NA
ATOM     13  C   UNL     1      36.824 -23.707 -14.833  0.00  0.00    +0.033 C 
ATOM     14  C   UNL     1      37.777 -24.721 -14.861  0.00  0.00    +0.023 C 
ATOM     15  C   UNL     1      36.329 -23.264 -13.611  0.00  0.00    +0.023 C 
ATOM     16  C   UNL     1      38.197 -25.252 -13.651  0.00  0.00    +0.099 C 
ATOM     17  C   UNL     1      36.813 -23.860 -12.457  0.00  0.00    +0.099 C 
ENDBRANCH   9  13
ENDBRANCH   1   4
BRANCH   1  18
ATOM     18  C   UNL     1      34.702 -19.918 -21.263  0.00  0.00    +0.184 C 
BRANCH  18  19
ATOM     19  C   UNL     1      35.465 -18.623 -21.572  0.00  0.00    -0.017 C 
BRANCH  19  20
ATOM     20  N   UNL     1      36.734 -18.640 -20.834  0.00  0.00    +0.384 N 
ATOM     21  H   UNL     1      37.292 -19.440 -21.135  0.00  0.00    -0.089 HD
ATOM     22  H   UNL     1      36.546 -18.713 -19.835  0.00  0.00    -0.089 HD
ATOM     23  H   UNL     1      37.248 -17.779 -21.022  0.00  0.00    -0.089 HD
ENDBRANCH  19  20
BRANCH  19  24
ATOM     24  C   UNL     1      35.771 -18.416 -23.068  0.00  0.00    +0.009 C 
BRANCH  24  26
ATOM     25  N   UNL     1      34.039 -15.966 -25.147  0.00  0.00    -0.312 N 
ATOM     26  C   UNL     1      35.033 -17.258 -23.678  0.00  0.00    -0.008 C 
ATOM     27  C   UNL     1      34.587 -16.114 -22.990  0.00  0.00    +0.011 C 
ATOM     28  C   UNL     1      33.958 -15.307 -23.941  0.00  0.00    +0.048 C 
ATOM     29  C   UNL     1      34.694 -17.158 -24.992  0.00  0.00    +0.058 C 
ATOM     30  C   UNL     1      34.645 -15.668 -21.655  0.00  0.00    +0.001 C 
ATOM     31  C   UNL     1      33.382 -14.072 -23.622  0.00  0.00    +0.015 C 
ATOM     32  C   UNL     1      34.074 -14.435 -21.321  0.00  0.00    +0.000 C 
ATOM     33  C   UNL     1      33.453 -13.650 -22.291  0.00  0.00    +0.001 C 
ATOM     34  H   UNL     1      33.677 -15.629 -25.998  0.00  0.00    +0.152 HD
ENDBRANCH  24  26
ENDBRANCH  19  24
ENDBRANCH  18  19
ENDBRANCH   1  18
TORSDOF 7
ENDMDL
MODEL 3
REMARK VINA RESULT:     -11.1      1.890      3.790
REMARK  Name = 6914614
REMARK  7 active torsions:
REMARK  status: ('A' for Active; 'I' for Inactive)
REMARK    1  A    between atoms: O_1  and  C_4
REMARK    2  A    between atoms: O_1  and  C_18
REMARK    3  A    between atoms: C_9  and  C_13
REMARK    4  A    between atoms: C_18  and  C_19
REMARK    5  A    between atoms: C_19  and  N_20
REMARK    6  A    between atoms: C_19  and  C_24
REMARK    7  A    between atoms: C_24  and  C_26
REMARK                            x       y       z     vdW  Elec       q    Type
REMARK                         _______ _______ _______ _____ _____    ______ ____
ROOT
ATOM      1  O   UNL     1      34.455 -24.162 -16.123  0.00  0.00    -0.476 OA
ENDROOT
BRANCH   1   4
ATOM      2  N   UNL     1      36.412 -20.878 -19.074  0.00  0.00    -0.404 NA
ATOM      3  N   UNL     1      37.613 -22.385 -15.973  0.00  0.00    -0.258 NA
ATOM      4  C   UNL     1      35.449 -23.308 -16.488  0.00  0.00    +0.159 C 
ATOM      5  C   UNL     1      35.376 -22.522 -17.645  0.00  0.00    +0.063 C 
ATOM      6  C   UNL     1      36.433 -21.655 -17.973  0.00  0.00    +0.136 C 
ATOM      7  C   UNL     1      34.270 -22.566 -18.504  0.00  0.00    +0.008 C 
ATOM      8  C   UNL     1      36.577 -23.202 -15.695  0.00  0.00    +0.130 C 
ATOM      9  C   UNL     1      35.326 -20.950 -19.878  0.00  0.00    +0.131 C 
ATOM     10  C   UNL     1      34.241 -21.770 -19.641  0.00  0.00    +0.032 C 
ATOM     11  C   UNL     1      37.507 -21.640 -17.099  0.00  0.00    +0.184 C 
BRANCH   9  13
ATOM     12  N   UNL     1      35.461 -18.427 -23.285  0.00  0.00    -0.242 NA
ATOM     13  C   UNL     1      35.372 -20.091 -21.037  0.00  0.00    +0.033 C 
ATOM     14  C   UNL     1      34.269 -19.994 -21.880  0.00  0.00    +0.023 C 
ATOM     15  C   UNL     1      36.519 -19.356 -21.320  0.00  0.00    +0.023 C 
ATOM     16  C   UNL     1      34.363 -19.155 -22.980  0.00  0.00    +0.099 C 
ATOM     17  C   UNL     1      36.513 -18.547 -22.445  0.00  0.00    +0.099 C 
ENDBRANCH   9  13
ENDBRANCH   1   4
BRANCH   1  18
ATOM     18  C   UNL     1      34.651 -24.917 -14.928  0.00  0.00    +0.184 C 
BRANCH  18  19
ATOM     19  C   UNL     1      33.755 -24.419 -13.787  0.00  0.00    -0.017 C 
BRANCH  19  20
ATOM     20  N   UNL     1      34.584 -23.678 -12.829  0.00  0.00    +0.384 N 
ATOM     21  H   UNL     1      34.025 -22.944 -12.392  0.00  0.00    -0.089 HD
ATOM     22  H   UNL     1      35.374 -23.259 -13.317  0.00  0.00    -0.089 HD
ATOM     23  H   UNL     1      34.927 -24.316 -12.111  0.00  0.00    -0.089 HD
ENDBRANCH  19  20
BRANCH  19  24
ATOM     24  C   UNL     1      32.602 -23.506 -14.247  0.00  0.00    +0.009 C 
BRANCH  24  26
ATOM     25  N   UNL     1      29.711 -25.733 -14.344  0.00  0.00    -0.312 N 
ATOM     26  C   UNL     1      31.313 -24.239 -14.487  0.00  0.00    -0.008 C 
ATOM     27  C   UNL     1      30.307 -23.858 -15.395  0.00  0.00    +0.011 C 
ATOM     28  C   UNL     1      29.300 -24.820 -15.289  0.00  0.00    +0.048 C 
ATOM     29  C   UNL     1      30.939 -25.383 -13.851  0.00  0.00    +0.058 C 
ATOM     30  C   UNL     1      30.137 -22.795 -16.305  0.00  0.00    +0.001 C 
ATOM     31  C   UNL     1      28.126 -24.771 -16.048  0.00  0.00    +0.015 C 
ATOM     32  C   UNL     1      28.968 -22.734 -17.072  0.00  0.00    +0.000 C 
ATOM     33  C   UNL     1      27.979 -23.708 -16.944  0.00  0.00    +0.001 C 
ATOM     34  H   UNL     1      29.196 -26.523 -14.063  0.00  0.00    +0.152 HD
ENDBRANCH  24  26
ENDBRANCH  19  24
ENDBRANCH  18  19
ENDBRANCH   1  18
TORSDOF 7
ENDMDL
MODEL 4
REMARK VINA RESULT:     -11.0      7.368     12.683
REMARK  Name = 6914614
REMARK  7 active torsions:
REMARK  status: ('A' for Active; 'I' for Inactive)
REMARK    1  A    between atoms: O_1  and  C_4
REMARK    2  A    between atoms: O_1  and  C_18
REMARK    3  A    between atoms: C_9  and  C_13
REMARK    4  A    between atoms: C_18  and  C_19
REMARK    5  A    between atoms: C_19  and  N_20
REMARK    6  A    between atoms: C_19  and  C_24
REMARK    7  A    between atoms: C_24  and  C_26
REMARK                            x       y       z     vdW  Elec       q    Type
REMARK                         _______ _______ _______ _____ _____    ______ ____
ROOT
ATOM      1  O   UNL     1      33.906 -10.095 -24.403  0.00  0.00    -0.476 OA
ENDROOT
BRANCH   1   4
ATOM      2  N   UNL     1      33.888 -14.766 -25.627  0.00  0.00    -0.404 NA
ATOM      3  N   UNL     1      33.327 -11.735 -27.585  0.00  0.00    -0.258 NA
ATOM      4  C   UNL     1      33.770 -11.105 -25.303  0.00  0.00    +0.159 C 
ATOM      5  C   UNL     1      33.913 -12.452 -24.947  0.00  0.00    +0.063 C 
ATOM      6  C   UNL     1      33.761 -13.456 -25.918  0.00  0.00    +0.136 C 
ATOM      7  C   UNL     1      34.205 -12.845 -23.634  0.00  0.00    +0.008 C 
ATOM      8  C   UNL     1      33.480 -10.805 -26.621  0.00  0.00    +0.130 C 
ATOM      9  C   UNL     1      34.171 -15.105 -24.348  0.00  0.00    +0.131 C 
ATOM     10  C   UNL     1      34.339 -14.193 -23.325  0.00  0.00    +0.032 C 
ATOM     11  C   UNL     1      33.471 -13.026 -27.203  0.00  0.00    +0.184 C 
BRANCH   9  13
ATOM     12  N   UNL     1      34.530 -19.272 -23.647  0.00  0.00    -0.242 NA
ATOM     13  C   UNL     1      34.293 -16.523 -24.109  0.00  0.00    +0.033 C 
ATOM     14  C   UNL     1      34.961 -16.988 -22.981  0.00  0.00    +0.023 C 
ATOM     15  C   UNL     1      33.744 -17.434 -25.006  0.00  0.00    +0.023 C 
ATOM     16  C   UNL     1      35.050 -18.359 -22.796  0.00  0.00    +0.099 C 
ATOM     17  C   UNL     1      33.888 -18.785 -24.732  0.00  0.00    +0.099 C 
ENDBRANCH   9  13
ENDBRANCH   1   4
BRANCH   1  18
ATOM     18  C   UNL     1      34.856  -9.074 -24.707  0.00  0.00    +0.184 C 
BRANCH  18  19
ATOM     19  C   UNL     1      34.608  -7.801 -23.888  0.00  0.00    -0.017 C 
BRANCH  19  20
ATOM     20  N   UNL     1      35.086  -6.647 -24.658  0.00  0.00    +0.384 N 
ATOM     21  H   UNL     1      35.459  -5.943 -24.021  0.00  0.00    -0.089 HD
ATOM     22  H   UNL     1      34.313  -6.249 -25.190  0.00  0.00    -0.089 HD
ATOM     23  H   UNL     1      35.822  -6.947 -25.299  0.00  0.00    -0.089 HD
ENDBRANCH  19  20
BRANCH  19  24
ATOM     24  C   UNL     1      33.128  -7.568 -23.525  0.00  0.00    +0.009 C 
BRANCH  24  26
ATOM     25  N   UNL     1      32.723  -7.773 -19.903  0.00  0.00    -0.312 N 
ATOM     26  C   UNL     1      32.803  -7.887 -22.093  0.00  0.00    -0.008 C 
ATOM     27  C   UNL     1      32.021  -8.970 -21.649  0.00  0.00    +0.011 C 
ATOM     28  C   UNL     1      31.983  -8.879 -20.256  0.00  0.00    +0.048 C 
ATOM     29  C   UNL     1      33.225  -7.164 -21.021  0.00  0.00    +0.058 C 
ATOM     30  C   UNL     1      31.334 -10.027 -22.279  0.00  0.00    +0.001 C 
ATOM     31  C   UNL     1      31.289  -9.796 -19.458  0.00  0.00    +0.015 C 
ATOM     32  C   UNL     1      30.637 -10.952 -21.494  0.00  0.00    +0.000 C 
ATOM     33  C   UNL     1      30.616 -10.837 -20.105  0.00  0.00    +0.001 C 
ATOM     34  H   UNL     1      32.869  -7.466 -18.979  0.00  0.00    +0.152 HD
ENDBRANCH  24  26
ENDBRANCH  19  24
ENDBRANCH  18  19
ENDBRANCH   1  18
TORSDOF 7
ENDMDL
MODEL 5
REMARK VINA RESULT:     -10.9      5.198     11.802
REMARK  Name = 6914614
REMARK  7 active torsions:
REMARK  status: ('A' for Active; 'I' for Inactive)
REMARK    1  A    between atoms: O_1  and  C_4
REMARK    2  A    between atoms: O_1  and  C_18
REMARK    3  A    between atoms: C_9  and  C_13
REMARK    4  A    between atoms: C_18  and  C_19
REMARK    5  A    between atoms: C_19  and  N_20
REMARK    6  A    between atoms: C_19  and  C_24
REMARK    7  A    between atoms: C_24  and  C_26
REMARK                            x       y       z     vdW  Elec       q    Type
REMARK                         _______ _______ _______ _____ _____    ______ ____
ROOT
ATOM      1  O   UNL     1      33.803 -12.643 -23.733  0.00  0.00    -0.476 OA
ENDROOT
BRANCH   1   4
ATOM      2  N   UNL     1      34.603 -17.397 -23.459  0.00  0.00    -0.404 NA
ATOM      3  N   UNL     1      33.590 -15.257 -26.238  0.00  0.00    -0.258 NA
ATOM      4  C   UNL     1      33.862 -13.889 -24.274  0.00  0.00    +0.159 C 
ATOM      5  C   UNL     1      34.221 -15.017 -23.525  0.00  0.00    +0.063 C 
ATOM      6  C   UNL     1      34.265 -16.281 -24.136  0.00  0.00    +0.136 C 
ATOM      7  C   UNL     1      34.541 -14.932 -22.164  0.00  0.00    +0.008 C 
ATOM      8  C   UNL     1      33.560 -14.062 -25.613  0.00  0.00    +0.130 C 
ATOM      9  C   UNL     1      34.907 -17.273 -22.147  0.00  0.00    +0.131 C 
ATOM     10  C   UNL     1      34.892 -16.076 -21.459  0.00  0.00    +0.032 C 
ATOM     11  C   UNL     1      33.940 -16.324 -25.481  0.00  0.00    +0.184 C 
BRANCH   9  13
ATOM     12  N   UNL     1      35.943 -20.901 -20.208  0.00  0.00    -0.242 NA
ATOM     13  C   UNL     1      35.259 -18.508 -21.486  0.00  0.00    +0.033 C 
ATOM     14  C   UNL     1      36.573 -18.739 -21.091  0.00  0.00    +0.023 C 
ATOM     15  C   UNL     1      34.288 -19.474 -21.242  0.00  0.00    +0.023 C 
ATOM     16  C   UNL     1      36.860 -19.940 -20.460  0.00  0.00    +0.099 C 
ATOM     17  C   UNL     1      34.677 -20.642 -20.606  0.00  0.00    +0.099 C 
ENDBRANCH   9  13
ENDBRANCH   1   4
BRANCH   1  18
ATOM     18  C   UNL     1      33.603 -11.551 -24.631  0.00  0.00    +0.184 C 
BRANCH  18  19
ATOM     19  C   UNL     1      34.252 -10.262 -24.113  0.00  0.00    -0.017 C 
BRANCH  19  20
ATOM     20  N   UNL     1      35.405  -9.942 -24.964  0.00  0.00    +0.384 N 
ATOM     21  H   UNL     1      35.152  -9.197 -25.613  0.00  0.00    -0.089 HD
ATOM     22  H   UNL     1      35.680 -10.772 -25.489  0.00  0.00    -0.089 HD
ATOM     23  H   UNL     1      36.183  -9.634 -24.381  0.00  0.00    -0.089 HD
ENDBRANCH  19  20
BRANCH  19  24
ATOM     24  C   UNL     1      33.305  -9.046 -24.094  0.00  0.00    +0.009 C 
BRANCH  24  26
ATOM     25  N   UNL     1      32.725  -7.418 -20.878  0.00  0.00    -0.312 N 
ATOM     26  C   UNL     1      32.911  -8.612 -22.711  0.00  0.00    -0.008 C 
ATOM     27  C   UNL     1      32.109  -9.345 -21.816  0.00  0.00    +0.011 C 
ATOM     28  C   UNL     1      32.003  -8.570 -20.660  0.00  0.00    +0.048 C 
ATOM     29  C   UNL     1      33.281  -7.438 -22.129  0.00  0.00    +0.058 C 
ATOM     30  C   UNL     1      31.454 -10.593 -21.858  0.00  0.00    +0.001 C 
ATOM     31  C   UNL     1      31.272  -8.980 -19.539  0.00  0.00    +0.015 C 
ATOM     32  C   UNL     1      30.719 -11.016 -20.745  0.00  0.00    +0.000 C 
ATOM     33  C   UNL     1      30.631 -10.221 -19.604  0.00  0.00    +0.001 C 
ATOM     34  H   UNL     1      32.825  -6.685 -20.229  0.00  0.00    +0.152 HD
ENDBRANCH  24  26
ENDBRANCH  19  24
ENDBRANCH  18  19
ENDBRANCH   1  18
TORSDOF 7
ENDMDL
MODEL 6
REMARK VINA RESULT:     -10.8      1.511      9.839
REMARK  Name = 6914614
REMARK  7 active torsions:
REMARK  status: ('A' for Active; 'I' for Inactive)
REMARK    1  A    between atoms: O_1  and  C_4
REMARK    2  A    between atoms: O_1  and  C_18
REMARK    3  A    between atoms: C_9  and  C_13
REMARK    4  A    between atoms: C_18  and  C_19
REMARK    5  A    between atoms: C_19  and  N_20
REMARK    6  A    between atoms: C_19  and  C_24
REMARK    7  A    between atoms: C_24  and  C_26
REMARK                            x       y       z     vdW  Elec       q    Type
REMARK                         _______ _______ _______ _____ _____    ______ ____
ROOT
ATOM      1  O   UNL     1      35.686 -21.606 -20.017  0.00  0.00    -0.476 OA
ENDROOT
BRANCH   1   4
ATOM      2  N   UNL     1      33.872 -23.330 -15.887  0.00  0.00    -0.404 NA
ATOM      3  N   UNL     1      37.204 -22.122 -16.764  0.00  0.00    -0.258 NA
ATOM      4  C   UNL     1      35.791 -21.958 -18.708  0.00  0.00    +0.159 C 
ATOM      5  C   UNL     1      34.712 -22.478 -17.981  0.00  0.00    +0.063 C 
ATOM      6  C   UNL     1      34.877 -22.825 -16.630  0.00  0.00    +0.136 C 
ATOM      7  C   UNL     1      33.451 -22.669 -18.560  0.00  0.00    +0.008 C 
ATOM      8  C   UNL     1      37.002 -21.802 -18.058  0.00  0.00    +0.130 C 
ATOM      9  C   UNL     1      32.669 -23.499 -16.483  0.00  0.00    +0.131 C 
ATOM     10  C   UNL     1      32.409 -23.187 -17.803  0.00  0.00    +0.032 C 
ATOM     11  C   UNL     1      36.138 -22.623 -16.094  0.00  0.00    +0.184 C 
BRANCH   9  13
ATOM     12  N   UNL     1      29.644 -25.093 -13.973  0.00  0.00    -0.242 NA
ATOM     13  C   UNL     1      31.639 -24.042 -15.629  0.00  0.00    +0.033 C 
ATOM     14  C   UNL     1      30.312 -24.044 -16.047  0.00  0.00    +0.023 C 
ATOM     15  C   UNL     1      31.967 -24.565 -14.382  0.00  0.00    +0.023 C 
ATOM     16  C   UNL     1      29.361 -24.578 -15.191  0.00  0.00    +0.099 C 
ATOM     17  C   UNL     1      30.943 -25.074 -13.600  0.00  0.00    +0.099 C 
ENDBRANCH   9  13
ENDBRANCH   1   4
BRANCH   1  18
ATOM     18  C   UNL     1      36.158 -20.310 -20.383  0.00  0.00    +0.184 C 
BRANCH  18  19
ATOM     19  C   UNL     1      35.265 -19.658 -21.446  0.00  0.00    -0.017 C 
BRANCH  19  20
ATOM     20  N   UNL     1      33.861 -19.883 -21.081  0.00  0.00    +0.384 N 
ATOM     21  H   UNL     1      33.748 -19.761 -20.074  0.00  0.00    -0.089 HD
ATOM     22  H   UNL     1      33.590 -20.831 -21.341  0.00  0.00    -0.089 HD
ATOM     23  H   UNL     1      33.270 -19.213 -21.573  0.00  0.00    -0.089 HD
ENDBRANCH  19  20
BRANCH  19  24
ATOM     24  C   UNL     1      35.490 -18.142 -21.611  0.00  0.00    +0.009 C 
BRANCH  24  26
ATOM     25  N   UNL     1      34.390 -17.481 -25.029  0.00  0.00    -0.312 N 
ATOM     26  C   UNL     1      34.997 -17.600 -22.923  0.00  0.00    -0.008 C 
ATOM     27  C   UNL     1      34.605 -16.271 -23.168  0.00  0.00    +0.011 C 
ATOM     28  C   UNL     1      34.224 -16.217 -24.510  0.00  0.00    +0.048 C 
ATOM     29  C   UNL     1      34.862 -18.330 -24.063  0.00  0.00    +0.058 C 
ATOM     30  C   UNL     1      34.531 -15.095 -22.394  0.00  0.00    +0.001 C 
ATOM     31  C   UNL     1      33.768 -15.042 -25.120  0.00  0.00    +0.015 C 
ATOM     32  C   UNL     1      34.078 -13.913 -22.990  0.00  0.00    +0.000 C 
ATOM     33  C   UNL     1      33.703 -13.889 -24.333  0.00  0.00    +0.001 C 
ATOM     34  H   UNL     1      34.197 -17.738 -25.959  0.00  0.00    +0.152 HD
ENDBRANCH  24  26
ENDBRANCH  19  24
ENDBRANCH  18  19
ENDBRANCH   1  18
TORSDOF 7
ENDMDL
MODEL 7
REMARK VINA RESULT:     -10.8      3.590      6.737
REMARK  Name = 6914614
REMARK  7 active torsions:
REMARK  status: ('A' for Active; 'I' for Inactive)
REMARK    1  A    between atoms: O_1  and  C_4
REMARK    2  A    between atoms: O_1  and  C_18
REMARK    3  A    between atoms: C_9  and  C_13
REMARK    4  A    between atoms: C_18  and  C_19
REMARK    5  A    between atoms: C_19  and  N_20
REMARK    6  A    between atoms: C_19  and  C_24
REMARK    7  A    between atoms: C_24  and  C_26
REMARK                            x       y       z     vdW  Elec       q    Type
REMARK                         _______ _______ _______ _____ _____    ______ ____
ROOT
ATOM      1  O   UNL     1      35.528 -17.096 -23.151  0.00  0.00    -0.476 OA
ENDROOT
BRANCH   1   4
ATOM      2  N   UNL     1      32.665 -13.215 -23.396  0.00  0.00    -0.404 NA
ATOM      3  N   UNL     1      33.707 -15.632 -25.925  0.00  0.00    -0.258 NA
ATOM      4  C   UNL     1      34.721 -16.233 -23.824  0.00  0.00    +0.159 C 
ATOM      5  C   UNL     1      34.105 -15.140 -23.202  0.00  0.00    +0.063 C 
ATOM      6  C   UNL     1      33.280 -14.280 -23.947  0.00  0.00    +0.136 C 
ATOM      7  C   UNL     1      34.283 -14.864 -21.840  0.00  0.00    +0.008 C 
ATOM      8  C   UNL     1      34.491 -16.432 -25.174  0.00  0.00    +0.130 C 
ATOM      9  C   UNL     1      32.862 -12.983 -22.077  0.00  0.00    +0.131 C 
ATOM     10  C   UNL     1      33.653 -13.769 -21.263  0.00  0.00    +0.032 C 
ATOM     11  C   UNL     1      33.130 -14.586 -25.289  0.00  0.00    +0.184 C 
BRANCH   9  13
ATOM     12  N   UNL     1      30.838  -9.586 -20.543  0.00  0.00    -0.242 NA
ATOM     13  C   UNL     1      32.174 -11.826 -21.555  0.00  0.00    +0.033 C 
ATOM     14  C   UNL     1      31.695 -11.828 -20.249  0.00  0.00    +0.023 C 
ATOM     15  C   UNL     1      31.984 -10.704 -22.355  0.00  0.00    +0.023 C 
ATOM     16  C   UNL     1      31.041 -10.693 -19.795  0.00  0.00    +0.099 C 
ATOM     17  C   UNL     1      31.317  -9.619 -21.807  0.00  0.00    +0.099 C 
ENDBRANCH   9  13
ENDBRANCH   1   4
BRANCH   1  18
ATOM     18  C   UNL     1      35.187 -18.481 -23.200  0.00  0.00    +0.184 C 
BRANCH  18  19
ATOM     19  C   UNL     1      35.655 -19.227 -21.944  0.00  0.00    -0.017 C 
BRANCH  19  20
ATOM     20  N   UNL     1      36.053 -18.241 -20.934  0.00  0.00    +0.384 N 
ATOM     21  H   UNL     1      35.485 -17.400 -21.036  0.00  0.00    -0.089 HD
ATOM     22  H   UNL     1      37.037 -18.003 -21.059  0.00  0.00    -0.089 HD
ATOM     23  H   UNL     1      35.914 -18.632 -20.002  0.00  0.00    -0.089 HD
ENDBRANCH  19  20
BRANCH  19  24
ATOM     24  C   UNL     1      34.586 -20.153 -21.330  0.00  0.00    +0.009 C 
BRANCH  24  26
ATOM     25  N   UNL     1      36.433 -21.883 -18.698  0.00  0.00    -0.312 N 
ATOM     26  C   UNL     1      35.085 -20.955 -20.162  0.00  0.00    -0.008 C 
ATOM     27  C   UNL     1      34.286 -21.698 -19.273  0.00  0.00    +0.011 C 
ATOM     28  C   UNL     1      35.161 -22.278 -18.352  0.00  0.00    +0.048 C 
ATOM     29  C   UNL     1      36.392 -21.074 -19.803  0.00  0.00    +0.058 C 
ATOM     30  C   UNL     1      32.904 -21.945 -19.145  0.00  0.00    +0.001 C 
ATOM     31  C   UNL     1      34.722 -23.096 -17.304  0.00  0.00    +0.015 C 
ATOM     32  C   UNL     1      32.450 -22.761 -18.102  0.00  0.00    +0.000 C 
ATOM     33  C   UNL     1      33.347 -23.327 -17.197  0.00  0.00    +0.001 C 
ATOM     34  H   UNL     1      37.253 -22.143 -18.220  0.00  0.00    +0.152 HD
ENDBRANCH  24  26
ENDBRANCH  19  24
ENDBRANCH  18  19
ENDBRANCH   1  18
TORSDOF 7
ENDMDL
MODEL 8
REMARK VINA RESULT:     -10.6      2.762      5.501
REMARK  Name = 6914614
REMARK  7 active torsions:
REMARK  status: ('A' for Active; 'I' for Inactive)
REMARK    1  A    between atoms: O_1  and  C_4
REMARK    2  A    between atoms: O_1  and  C_18
REMARK    3  A    between atoms: C_9  and  C_13
REMARK    4  A    between atoms: C_18  and  C_19
REMARK    5  A    between atoms: C_19  and  N_20
REMARK    6  A    between atoms: C_19  and  C_24
REMARK    7  A    between atoms: C_24  and  C_26
REMARK                            x       y       z     vdW  Elec       q    Type
REMARK                         _______ _______ _______ _____ _____    ______ ____
ROOT
ATOM      1  O   UNL     1      35.370 -18.005 -21.563  0.00  0.00    -0.476 OA
ENDROOT
BRANCH   1   4
ATOM      2  N   UNL     1      33.700 -14.292 -24.160  0.00  0.00    -0.404 NA
ATOM      3  N   UNL     1      34.497 -17.736 -25.073  0.00  0.00    -0.258 NA
ATOM      4  C   UNL     1      34.943 -17.441 -22.724  0.00  0.00    +0.159 C 
ATOM      5  C   UNL     1      34.534 -16.104 -22.804  0.00  0.00    +0.063 C 
ATOM      6  C   UNL     1      34.102 -15.572 -24.031  0.00  0.00    +0.136 C 
ATOM      7  C   UNL     1      34.541 -15.258 -21.686  0.00  0.00    +0.008 C 
ATOM      8  C   UNL     1      34.905 -18.205 -23.877  0.00  0.00    +0.130 C 
ATOM      9  C   UNL     1      33.720 -13.509 -23.057  0.00  0.00    +0.131 C 
ATOM     10  C   UNL     1      34.127 -13.939 -21.810  0.00  0.00    +0.032 C 
ATOM     11  C   UNL     1      34.111 -16.439 -25.111  0.00  0.00    +0.184 C 
BRANCH   9  13
ATOM     12  N   UNL     1      32.416  -9.521 -23.681  0.00  0.00    -0.242 NA
ATOM     13  C   UNL     1      33.277 -12.151 -23.270  0.00  0.00    +0.033 C 
ATOM     14  C   UNL     1      32.295 -11.600 -22.451  0.00  0.00    +0.023 C 
ATOM     15  C   UNL     1      33.826 -11.386 -24.294  0.00  0.00    +0.023 C 
ATOM     16  C   UNL     1      31.904 -10.293 -22.695  0.00  0.00    +0.099 C 
ATOM     17  C   UNL     1      33.366 -10.089 -24.456  0.00  0.00    +0.099 C 
ENDBRANCH   9  13
ENDBRANCH   1   4
BRANCH   1  18
ATOM     18  C   UNL     1      35.730 -19.386 -21.604  0.00  0.00    +0.184 C 
BRANCH  18  19
ATOM     19  C   UNL     1      34.986 -20.200 -20.538  0.00  0.00    -0.017 C 
BRANCH  19  20
ATOM     20  N   UNL     1      33.589 -20.357 -20.959  0.00  0.00    +0.384 N 
ATOM     21  H   UNL     1      33.253 -21.281 -20.686  0.00  0.00    -0.089 HD
ATOM     22  H   UNL     1      33.526 -20.257 -21.971  0.00  0.00    -0.089 HD
ATOM     23  H   UNL     1      33.016 -19.641 -20.510  0.00  0.00    -0.089 HD
ENDBRANCH  19  20
BRANCH  19  24
ATOM     24  C   UNL     1      35.582 -21.599 -20.288  0.00  0.00    +0.009 C 
BRANCH  24  26
ATOM     25  N   UNL     1      36.378 -22.306 -16.795  0.00  0.00    -0.312 N 
ATOM     26  C   UNL     1      35.635 -21.979 -18.835  0.00  0.00    -0.008 C 
ATOM     27  C   UNL     1      34.570 -22.514 -18.085  0.00  0.00    +0.011 C 
ATOM     28  C   UNL     1      35.063 -22.714 -16.794  0.00  0.00    +0.048 C 
ATOM     29  C   UNL     1      36.732 -21.856 -18.039  0.00  0.00    +0.058 C 
ATOM     30  C   UNL     1      33.230 -22.854 -18.360  0.00  0.00    +0.001 C 
ATOM     31  C   UNL     1      34.280 -23.238 -15.759  0.00  0.00    +0.015 C 
ATOM     32  C   UNL     1      32.435 -23.380 -17.336  0.00  0.00    +0.000 C 
ATOM     33  C   UNL     1      32.954 -23.569 -16.056  0.00  0.00    +0.001 C 
ATOM     34  H   UNL     1      36.976 -22.333 -16.014  0.00  0.00    +0.152 HD
ENDBRANCH  24  26
ENDBRANCH  19  24
ENDBRANCH  18  19
ENDBRANCH   1  18
TORSDOF 7
ENDMDL
MODEL 9
REMARK VINA RESULT:     -10.6      5.578      9.756
REMARK  Name = 6914614
REMARK  7 active torsions:
REMARK  status: ('A' for Active; 'I' for Inactive)
REMARK    1  A    between atoms: O_1  and  C_4
REMARK    2  A    between atoms: O_1  and  C_18
REMARK    3  A    between atoms: C_9  and  C_13
REMARK    4  A    between atoms: C_18  and  C_19
REMARK    5  A    between atoms: C_19  and  N_20
REMARK    6  A    between atoms: C_19  and  C_24
REMARK    7  A    between atoms: C_24  and  C_26
REMARK                            x       y       z     vdW  Elec       q    Type
REMARK                         _______ _______ _______ _____ _____    ______ ____
ROOT
ATOM      1  O   UNL     1      34.294 -13.957 -24.008  0.00  0.00    -0.476 OA
ENDROOT
BRANCH   1   4
ATOM      2  N   UNL     1      32.567  -9.465 -23.607  0.00  0.00    -0.404 NA
ATOM      3  N   UNL     1      31.740 -12.555 -21.848  0.00  0.00    -0.258 NA
ATOM      4  C   UNL     1      33.471 -13.026 -23.455  0.00  0.00    +0.159 C 
ATOM      5  C   UNL     1      33.475 -11.685 -23.860  0.00  0.00    +0.063 C 
ATOM      6  C   UNL     1      32.603 -10.765 -23.254  0.00  0.00    +0.136 C 
ATOM      7  C   UNL     1      34.331 -11.216 -24.865  0.00  0.00    +0.008 C 
ATOM      8  C   UNL     1      32.593 -13.404 -22.456  0.00  0.00    +0.130 C 
ATOM      9  C   UNL     1      33.410  -9.051 -24.582  0.00  0.00    +0.131 C 
ATOM     10  C   UNL     1      34.303  -9.878 -25.235  0.00  0.00    +0.032 C 
ATOM     11  C   UNL     1      31.772 -11.268 -22.266  0.00  0.00    +0.184 C 
BRANCH   9  13
ATOM     12  N   UNL     1      33.138  -4.929 -25.543  0.00  0.00    -0.242 NA
ATOM     13  C   UNL     1      33.318  -7.648 -24.908  0.00  0.00    +0.033 C 
ATOM     14  C   UNL     1      32.127  -7.121 -25.399  0.00  0.00    +0.023 C 
ATOM     15  C   UNL     1      34.418  -6.814 -24.735  0.00  0.00    +0.023 C 
ATOM     16  C   UNL     1      32.089  -5.767 -25.697  0.00  0.00    +0.099 C 
ATOM     17  C   UNL     1      34.278  -5.475 -25.064  0.00  0.00    +0.099 C 
ENDBRANCH   9  13
ENDBRANCH   1   4
BRANCH   1  18
ATOM     18  C   UNL     1      33.896 -15.323 -23.901  0.00  0.00    +0.184 C 
BRANCH  18  19
ATOM     19  C   UNL     1      34.932 -16.160 -23.141  0.00  0.00    -0.017 C 
BRANCH  19  20
ATOM     20  N   UNL     1      34.758 -15.927 -21.702  0.00  0.00    +0.384 N 
ATOM     21  H   UNL     1      34.357 -15.001 -21.554  0.00  0.00    -0.089 HD
ATOM     22  H   UNL     1      35.664 -15.984 -21.237  0.00  0.00    -0.089 HD
ATOM     23  H   UNL     1      34.132 -16.634 -21.316  0.00  0.00    -0.089 HD
ENDBRANCH  19  20
BRANCH  19  24
ATOM     24  C   UNL     1      34.833 -17.675 -23.407  0.00  0.00    +0.009 C 
BRANCH  24  26
ATOM     25  N   UNL     1      37.295 -19.348 -21.293  0.00  0.00    -0.312 N 
ATOM     26  C   UNL     1      35.618 -18.509 -22.435  0.00  0.00    -0.008 C 
ATOM     27  C   UNL     1      35.086 -19.484 -21.571  0.00  0.00    +0.011 C 
ATOM     28  C   UNL     1      36.167 -20.004 -20.855  0.00  0.00    +0.048 C 
ATOM     29  C   UNL     1      36.966 -18.434 -22.257  0.00  0.00    +0.058 C 
ATOM     30  C   UNL     1      33.796 -19.989 -21.312  0.00  0.00    +0.001 C 
ATOM     31  C   UNL     1      36.021 -21.007 -19.889  0.00  0.00    +0.015 C 
ATOM     32  C   UNL     1      33.635 -20.992 -20.350  0.00  0.00    +0.000 C 
ATOM     33  C   UNL     1      34.732 -21.492 -19.650  0.00  0.00    +0.001 C 
ATOM     34  H   UNL     1      38.206 -19.512 -20.960  0.00  0.00    +0.152 HD
ENDBRANCH  24  26
ENDBRANCH  19  24
ENDBRANCH  18  19
ENDBRANCH   1  18
TORSDOF 7
ENDMDL
