MODEL 1
REMARK VINA RESULT:     -12.0      0.000      0.000
REMARK  Name = 216239
REMARK  6 active torsions:
REMARK  status: ('A' for Active; 'I' for Inactive)
REMARK    1  A    between atoms: C_1  and  N_9
REMARK    2  A    between atoms: C_2  and  O_24
REMARK    3  A    between atoms: N_8  and  C_14
REMARK    4  A    between atoms: C_15  and  C_23
REMARK    5  A    between atoms: O_24  and  C_26
REMARK    6  A    between atoms: C_28  and  C_33
REMARK                            x       y       z     vdW  Elec       q    Type
REMARK                         _______ _______ _______ _____ _____    ______ ____
ROOT
ATOM      1  C   UNL     1      33.716 -14.023 -23.649  0.00  0.00    +0.052 C 
ATOM      2  C   UNL     1      34.494 -16.667 -23.927  0.00  0.00    +0.145 C 
ATOM      3  C   UNL     1      34.394 -14.642 -22.613  0.00  0.00    +0.018 C 
ATOM      4  C   UNL     1      33.418 -14.696 -24.822  0.00  0.00    +0.018 C 
ATOM      5  C   UNL     1      34.786 -15.973 -22.753  0.00  0.00    +0.039 C 
ATOM      6  C   UNL     1      33.809 -16.029 -24.962  0.00  0.00    +0.039 C 
ENDROOT
BRANCH   1   9
ATOM      7  O   UNL     1      34.784 -11.554 -24.946  0.00  0.00    -0.252 OA
ATOM      8  N   UNL     1      33.171 -10.377 -23.722  0.00  0.00    -0.268 N 
ATOM      9  N   UNL     1      33.319 -12.672 -23.507  0.00  0.00    -0.268 N 
ATOM     10  C   UNL     1      33.858 -11.542 -24.144  0.00  0.00    +0.308 C 
ATOM     11  H   UNL     1      32.446 -10.520 -23.071  0.00  0.00    +0.156 HD
ATOM     12  H   UNL     1      32.575 -12.503 -22.885  0.00  0.00    +0.156 HD
BRANCH   8  14
ATOM     13 CL   UNL     1      34.120  -4.770 -25.335  0.00  0.00    -0.082 Cl
ATOM     14  C   UNL     1      33.385  -9.053 -24.106  0.00  0.00    +0.052 C 
ATOM     15  C   UNL     1      32.526  -6.938 -24.897  0.00  0.00    +0.083 C 
ATOM     16  C   UNL     1      32.312  -8.262 -24.515  0.00  0.00    +0.019 C 
ATOM     17  C   UNL     1      34.674  -8.520 -24.080  0.00  0.00    +0.016 C 
ATOM     18  C   UNL     1      33.815  -6.404 -24.872  0.00  0.00    +0.062 C 
ATOM     19  C   UNL     1      34.888  -7.196 -24.462  0.00  0.00    +0.013 C 
BRANCH  15  23
ATOM     20  F   UNL     1      30.874  -5.296 -24.351  0.00  0.00    -0.166 F 
ATOM     21  F   UNL     1      31.610  -5.310 -26.392  0.00  0.00    -0.166 F 
ATOM     22  F   UNL     1      30.290  -6.895 -25.704  0.00  0.00    -0.166 F 
ATOM     23  C   UNL     1      31.349  -6.123 -25.327  0.00  0.00    +0.419 C 
ENDBRANCH  15  23
ENDBRANCH   8  14
ENDBRANCH   1   9
BRANCH   2  24
ATOM     24  O   UNL     1      34.874 -17.966 -24.063  0.00  0.00    -0.453 OA
BRANCH  24  26
ATOM     25  N   UNL     1      35.854 -20.065 -20.612  0.00  0.00    -0.239 NA
ATOM     26  C   UNL     1      35.200 -18.665 -22.913  0.00  0.00    +0.149 C 
ATOM     27  C   UNL     1      34.224 -19.395 -22.268  0.00  0.00    +0.061 C 
ATOM     28  C   UNL     1      34.602 -20.077 -21.123  0.00  0.00    +0.137 C 
ATOM     29  C   UNL     1      36.493 -18.615 -22.438  0.00  0.00    +0.058 C 
ATOM     30  C   UNL     1      36.769 -19.331 -21.284  0.00  0.00    +0.102 C 
BRANCH  28  33
ATOM     31  O   UNL     1      32.410 -20.708 -20.576  0.00  0.00    -0.268 OA
ATOM     32  N   UNL     1      34.131 -21.823 -19.494  0.00  0.00    -0.298 N 
ATOM     33  C   UNL     1      33.630 -20.870 -20.389  0.00  0.00    +0.264 C 
ATOM     34  C   UNL     1      33.293 -22.702 -18.710  0.00  0.00    +0.111 C 
ATOM     35  H   UNL     1      35.108 -21.899 -19.394  0.00  0.00    +0.150 HD
ENDBRANCH  28  33
ENDBRANCH  24  26
ENDBRANCH   2  24
TORSDOF 6
ENDMDL
MODEL 2
REMARK VINA RESULT:     -11.9      7.752     12.430
REMARK  Name = 216239
REMARK  6 active torsions:
REMARK  status: ('A' for Active; 'I' for Inactive)
REMARK    1  A    between atoms: C_1  and  N_9
REMARK    2  A    between atoms: C_2  and  O_24
REMARK    3  A    between atoms: N_8  and  C_14
REMARK    4  A    between atoms: C_15  and  C_23
REMARK    5  A    between atoms: O_24  and  C_26
REMARK    6  A    between atoms: C_28  and  C_33
REMARK                            x       y       z     vdW  Elec       q    Type
REMARK                         _______ _______ _______ _____ _____    ______ ____
ROOT
ATOM      1  C   UNL     1      34.866 -18.668 -23.100  0.00  0.00    +0.052 C 
ATOM      2  C   UNL     1      34.123 -16.701 -24.903  0.00  0.00    +0.145 C 
ATOM      3  C   UNL     1      34.023 -18.994 -24.149  0.00  0.00    +0.018 C 
ATOM      4  C   UNL     1      35.345 -17.380 -22.932  0.00  0.00    +0.018 C 
ATOM      5  C   UNL     1      33.649 -18.004 -25.057  0.00  0.00    +0.039 C 
ATOM      6  C   UNL     1      34.970 -16.388 -23.840  0.00  0.00    +0.039 C 
ENDROOT
BRANCH   1   9
ATOM      7  O   UNL     1      33.430 -19.725 -20.704  0.00  0.00    -0.252 OA
ATOM      8  N   UNL     1      35.264 -21.152 -20.405  0.00  0.00    -0.268 N 
ATOM      9  N   UNL     1      35.245 -19.673 -22.179  0.00  0.00    -0.268 N 
ATOM     10  C   UNL     1      34.529 -20.136 -21.062  0.00  0.00    +0.308 C 
ATOM     11  H   UNL     1      36.134 -21.379 -20.806  0.00  0.00    +0.156 HD
ATOM     12  H   UNL     1      36.116 -20.100 -22.340  0.00  0.00    +0.156 HD
BRANCH   8  14
ATOM     13 CL   UNL     1      33.767 -24.219 -15.579  0.00  0.00    -0.082 Cl
ATOM     14  C   UNL     1      34.920 -21.876 -19.262  0.00  0.00    +0.052 C 
ATOM     15  C   UNL     1      35.514 -22.789 -17.106  0.00  0.00    +0.083 C 
ATOM     16  C   UNL     1      35.858 -22.067 -18.248  0.00  0.00    +0.019 C 
ATOM     17  C   UNL     1      33.637 -22.407 -19.135  0.00  0.00    +0.016 C 
ATOM     18  C   UNL     1      34.230 -23.322 -16.978  0.00  0.00    +0.062 C 
ATOM     19  C   UNL     1      33.292 -23.130 -17.992  0.00  0.00    +0.013 C 
BRANCH  15  23
ATOM     20  F   UNL     1      36.175 -22.464 -14.830  0.00  0.00    -0.166 F 
ATOM     21  F   UNL     1      36.860 -24.277 -15.804  0.00  0.00    -0.166 F 
ATOM     22  F   UNL     1      37.726 -22.358 -16.350  0.00  0.00    -0.166 F 
ATOM     23  C   UNL     1      36.547 -22.970 -16.041  0.00  0.00    +0.419 C 
ENDBRANCH  15  23
ENDBRANCH   8  14
ENDBRANCH   1   9
BRANCH   2  24
ATOM     24  O   UNL     1      33.756 -15.734 -25.788  0.00  0.00    -0.453 OA
BRANCH  24  26
ATOM     25  N   UNL     1      33.214 -11.882 -24.325  0.00  0.00    -0.239 NA
ATOM     26  C   UNL     1      33.575 -14.451 -25.300  0.00  0.00    +0.149 C 
ATOM     27  C   UNL     1      33.008 -14.277 -24.056  0.00  0.00    +0.061 C 
ATOM     28  C   UNL     1      32.849 -12.974 -23.613  0.00  0.00    +0.137 C 
ATOM     29  C   UNL     1      33.966 -13.376 -26.071  0.00  0.00    +0.058 C 
ATOM     30  C   UNL     1      33.764 -12.113 -25.538  0.00  0.00    +0.102 C 
BRANCH  28  33
ATOM     31  O   UNL     1      32.369 -13.535 -21.388  0.00  0.00    -0.268 OA
ATOM     32  N   UNL     1      31.595 -11.487 -22.151  0.00  0.00    -0.298 N 
ATOM     33  C   UNL     1      32.259 -12.709 -22.312  0.00  0.00    +0.264 C 
ATOM     34  C   UNL     1      30.978 -11.070 -20.912  0.00  0.00    +0.111 C 
ATOM     35  H   UNL     1      31.544 -10.879 -22.924  0.00  0.00    +0.150 HD
ENDBRANCH  28  33
ENDBRANCH  24  26
ENDBRANCH   2  24
TORSDOF 6
ENDMDL
MODEL 3
REMARK VINA RESULT:     -11.7      5.364      8.726
REMARK  Name = 216239
REMARK  6 active torsions:
REMARK  status: ('A' for Active; 'I' for Inactive)
REMARK    1  A    between atoms: C_1  and  N_9
REMARK    2  A    between atoms: C_2  and  O_24
REMARK    3  A    between atoms: N_8  and  C_14
REMARK    4  A    between atoms: C_15  and  C_23
REMARK    5  A    between atoms: O_24  and  C_26
REMARK    6  A    between atoms: C_28  and  C_33
REMARK                            x       y       z     vdW  Elec       q    Type
REMARK                         _______ _______ _______ _____ _____    ______ ____
ROOT
ATOM      1  C   UNL     1      35.530 -21.300 -19.438  0.00  0.00    +0.052 C 
ATOM      2  C   UNL     1      34.949 -23.149 -17.459  0.00  0.00    +0.145 C 
ATOM      3  C   UNL     1      34.360 -22.034 -19.520  0.00  0.00    +0.018 C 
ATOM      4  C   UNL     1      36.418 -21.470 -18.389  0.00  0.00    +0.018 C 
ATOM      5  C   UNL     1      34.066 -22.965 -18.523  0.00  0.00    +0.039 C 
ATOM      6  C   UNL     1      36.126 -22.402 -17.392  0.00  0.00    +0.039 C 
ENDROOT
BRANCH   1   9
ATOM      7  O   UNL     1      33.725 -19.455 -20.940  0.00  0.00    -0.252 OA
ATOM      8  N   UNL     1      35.642 -18.716 -22.066  0.00  0.00    -0.268 N 
ATOM      9  N   UNL     1      35.827 -20.357 -20.450  0.00  0.00    -0.268 N 
ATOM     10  C   UNL     1      34.936 -19.508 -21.127  0.00  0.00    +0.308 C 
ATOM     11  H   UNL     1      36.614 -18.868 -22.108  0.00  0.00    +0.156 HD
ATOM     12  H   UNL     1      36.773 -20.285 -20.711  0.00  0.00    +0.156 HD
BRANCH   8  14
ATOM     13 CL   UNL     1      33.538 -14.654 -25.808  0.00  0.00    -0.082 Cl
ATOM     14  C   UNL     1      35.144 -17.751 -22.941  0.00  0.00    +0.052 C 
ATOM     15  C   UNL     1      34.358 -15.503 -23.351  0.00  0.00    +0.083 C 
ATOM     16  C   UNL     1      34.855 -16.469 -22.476  0.00  0.00    +0.019 C 
ATOM     17  C   UNL     1      34.935 -18.069 -24.284  0.00  0.00    +0.016 C 
ATOM     18  C   UNL     1      34.149 -15.821 -24.694  0.00  0.00    +0.062 C 
ATOM     19  C   UNL     1      34.439 -17.104 -25.159  0.00  0.00    +0.013 C 
BRANCH  15  23
ATOM     20  F   UNL     1      34.629 -13.135 -23.541  0.00  0.00    -0.166 F 
ATOM     21  F   UNL     1      32.731 -13.849 -22.772  0.00  0.00    -0.166 F 
ATOM     22  F   UNL     1      34.517 -13.974 -21.538  0.00  0.00    -0.166 F 
ATOM     23  C   UNL     1      34.063 -14.140 -22.814  0.00  0.00    +0.419 C 
ENDBRANCH  15  23
ENDBRANCH   8  14
ENDBRANCH   1   9
BRANCH   2  24
ATOM     24  O   UNL     1      34.664 -24.058 -16.487  0.00  0.00    -0.453 OA
BRANCH  24  26
ATOM     25  N   UNL     1      31.182 -23.510 -14.286  0.00  0.00    -0.239 NA
ATOM     26  C   UNL     1      33.504 -23.874 -15.754  0.00  0.00    +0.149 C 
ATOM     27  C   UNL     1      32.344 -23.515 -16.407  0.00  0.00    +0.061 C 
ATOM     28  C   UNL     1      31.210 -23.345 -15.628  0.00  0.00    +0.137 C 
ATOM     29  C   UNL     1      33.535 -24.056 -14.388  0.00  0.00    +0.058 C 
ATOM     30  C   UNL     1      32.348 -23.861 -13.700  0.00  0.00    +0.102 C 
BRANCH  28  33
ATOM     31  O   UNL     1      29.924 -22.495 -17.394  0.00  0.00    -0.268 OA
ATOM     32  N   UNL     1      28.786 -23.183 -15.495  0.00  0.00    -0.298 N 
ATOM     33  C   UNL     1      29.949 -22.968 -16.244  0.00  0.00    +0.264 C 
ATOM     34  C   UNL     1      27.457 -22.880 -15.978  0.00  0.00    +0.111 C 
ATOM     35  H   UNL     1      28.878 -23.560 -14.590  0.00  0.00    +0.150 HD
ENDBRANCH  28  33
ENDBRANCH  24  26
ENDBRANCH   2  24
TORSDOF 6
ENDMDL
MODEL 4
REMARK VINA RESULT:     -11.7      5.557      9.353
REMARK  Name = 216239
REMARK  6 active torsions:
REMARK  status: ('A' for Active; 'I' for Inactive)
REMARK    1  A    between atoms: C_1  and  N_9
REMARK    2  A    between atoms: C_2  and  O_24
REMARK    3  A    between atoms: N_8  and  C_14
REMARK    4  A    between atoms: C_15  and  C_23
REMARK    5  A    between atoms: O_24  and  C_26
REMARK    6  A    between atoms: C_28  and  C_33
REMARK                            x       y       z     vdW  Elec       q    Type
REMARK                         _______ _______ _______ _____ _____    ______ ____
ROOT
ATOM      1  C   UNL     1      35.046 -21.631 -19.283  0.00  0.00    +0.052 C 
ATOM      2  C   UNL     1      34.288 -23.422 -17.311  0.00  0.00    +0.145 C 
ATOM      3  C   UNL     1      35.889 -21.850 -18.208  0.00  0.00    +0.018 C 
ATOM      4  C   UNL     1      33.831 -22.287 -19.394  0.00  0.00    +0.018 C 
ATOM      5  C   UNL     1      35.508 -22.753 -17.215  0.00  0.00    +0.039 C 
ATOM      6  C   UNL     1      33.449 -23.189 -18.400  0.00  0.00    +0.039 C 
ENDROOT
BRANCH   1   9
ATOM      7  O   UNL     1      33.412 -19.673 -20.838  0.00  0.00    -0.252 OA
ATOM      8  N   UNL     1      35.403 -19.076 -21.918  0.00  0.00    -0.268 N 
ATOM      9  N   UNL     1      35.433 -20.716 -20.290  0.00  0.00    -0.268 N 
ATOM     10  C   UNL     1      34.620 -19.811 -20.994  0.00  0.00    +0.308 C 
ATOM     11  H   UNL     1      36.363 -19.296 -21.934  0.00  0.00    +0.156 HD
ATOM     12  H   UNL     1      36.388 -20.712 -20.527  0.00  0.00    +0.156 HD
BRANCH   8  14
ATOM     13 CL   UNL     1      33.683 -14.899 -25.729  0.00  0.00    -0.082 Cl
ATOM     14  C   UNL     1      34.996 -18.083 -22.809  0.00  0.00    +0.052 C 
ATOM     15  C   UNL     1      34.365 -15.793 -23.246  0.00  0.00    +0.083 C 
ATOM     16  C   UNL     1      34.771 -16.785 -22.354  0.00  0.00    +0.019 C 
ATOM     17  C   UNL     1      34.815 -18.391 -24.158  0.00  0.00    +0.016 C 
ATOM     18  C   UNL     1      34.183 -16.100 -24.595  0.00  0.00    +0.062 C 
ATOM     19  C   UNL     1      34.408 -17.399 -25.050  0.00  0.00    +0.013 C 
BRANCH  15  23
ATOM     20  F   UNL     1      32.823 -14.042 -22.719  0.00  0.00    -0.166 F 
ATOM     21  F   UNL     1      34.557 -14.247 -21.431  0.00  0.00    -0.166 F 
ATOM     22  F   UNL     1      34.788 -13.462 -23.446  0.00  0.00    -0.166 F 
ATOM     23  C   UNL     1      34.136 -14.413 -22.718  0.00  0.00    +0.419 C 
ENDBRANCH  15  23
ENDBRANCH   8  14
ENDBRANCH   1   9
BRANCH   2  24
ATOM     24  O   UNL     1      33.916 -24.301 -16.341  0.00  0.00    -0.453 OA
BRANCH  24  26
ATOM     25  N   UNL     1      36.524 -24.881 -13.157  0.00  0.00    -0.239 NA
ATOM     26  C   UNL     1      34.784 -24.495 -15.280  0.00  0.00    +0.149 C 
ATOM     27  C   UNL     1      35.915 -25.261 -15.466  0.00  0.00    +0.061 C 
ATOM     28  C   UNL     1      36.753 -25.423 -14.375  0.00  0.00    +0.137 C 
ATOM     29  C   UNL     1      34.499 -23.916 -14.061  0.00  0.00    +0.058 C 
ATOM     30  C   UNL     1      35.400 -24.140 -13.032  0.00  0.00    +0.102 C 
BRANCH  28  33
ATOM     31  O   UNL     1      37.909 -27.407 -14.853  0.00  0.00    -0.268 OA
ATOM     32  N   UNL     1      39.176 -25.575 -14.208  0.00  0.00    -0.298 N 
ATOM     33  C   UNL     1      37.964 -26.217 -14.493  0.00  0.00    +0.264 C 
ATOM     34  C   UNL     1      40.465 -26.223 -14.302  0.00  0.00    +0.111 C 
ATOM     35  H   UNL     1      39.149 -24.632 -13.927  0.00  0.00    +0.150 HD
ENDBRANCH  28  33
ENDBRANCH  24  26
ENDBRANCH   2  24
TORSDOF 6
ENDMDL
MODEL 5
REMARK VINA RESULT:     -11.6      1.520      1.984
REMARK  Name = 216239
REMARK  6 active torsions:
REMARK  status: ('A' for Active; 'I' for Inactive)
REMARK    1  A    between atoms: C_1  and  N_9
REMARK    2  A    between atoms: C_2  and  O_24
REMARK    3  A    between atoms: N_8  and  C_14
REMARK    4  A    between atoms: C_15  and  C_23
REMARK    5  A    between atoms: O_24  and  C_26
REMARK    6  A    between atoms: C_28  and  C_33
REMARK                            x       y       z     vdW  Elec       q    Type
REMARK                         _______ _______ _______ _____ _____    ______ ____
ROOT
ATOM      1  C   UNL     1      33.493 -14.065 -23.189  0.00  0.00    +0.052 C 
ATOM      2  C   UNL     1      34.692 -16.525 -23.616  0.00  0.00    +0.145 C 
ATOM      3  C   UNL     1      34.187 -14.668 -22.155  0.00  0.00    +0.018 C 
ATOM      4  C   UNL     1      33.385 -14.665 -24.433  0.00  0.00    +0.018 C 
ATOM      5  C   UNL     1      34.791 -15.907 -22.370  0.00  0.00    +0.039 C 
ATOM      6  C   UNL     1      33.988 -15.905 -24.648  0.00  0.00    +0.039 C 
ENDROOT
BRANCH   1   9
ATOM      7  O   UNL     1      34.107 -11.392 -24.372  0.00  0.00    -0.252 OA
ATOM      8  N   UNL     1      32.349 -10.562 -23.065  0.00  0.00    -0.268 N 
ATOM      9  N   UNL     1      32.881 -12.808 -22.971  0.00  0.00    -0.268 N 
ATOM     10  C   UNL     1      33.210 -11.574 -23.557  0.00  0.00    +0.308 C 
ATOM     11  H   UNL     1      31.674 -10.856 -22.411  0.00  0.00    +0.156 HD
ATOM     12  H   UNL     1      32.134 -12.796 -22.332  0.00  0.00    +0.156 HD
BRANCH   8  14
ATOM     13 CL   UNL     1      32.230  -4.806 -24.401  0.00  0.00    -0.082 Cl
ATOM     14  C   UNL     1      32.332  -9.204 -23.383  0.00  0.00    +0.052 C 
ATOM     15  C   UNL     1      33.462  -7.228 -24.191  0.00  0.00    +0.083 C 
ATOM     16  C   UNL     1      33.481  -8.586 -23.873  0.00  0.00    +0.019 C 
ATOM     17  C   UNL     1      31.161  -8.463 -23.209  0.00  0.00    +0.016 C 
ATOM     18  C   UNL     1      32.293  -6.487 -24.017  0.00  0.00    +0.062 C 
ATOM     19  C   UNL     1      31.142  -7.106 -23.527  0.00  0.00    +0.013 C 
BRANCH  15  23
ATOM     20  F   UNL     1      35.013  -6.975 -25.994  0.00  0.00    -0.166 F 
ATOM     21  F   UNL     1      34.674  -5.239 -24.738  0.00  0.00    -0.166 F 
ATOM     22  F   UNL     1      35.811  -6.928 -23.972  0.00  0.00    -0.166 F 
ATOM     23  C   UNL     1      34.715  -6.603 -24.716  0.00  0.00    +0.419 C 
ENDBRANCH  15  23
ENDBRANCH   8  14
ENDBRANCH   1   9
BRANCH   2  24
ATOM     24  O   UNL     1      35.279 -17.735 -23.824  0.00  0.00    -0.453 OA
BRANCH  24  26
ATOM     25  N   UNL     1      36.007 -20.130 -20.506  0.00  0.00    -0.239 NA
ATOM     26  C   UNL     1      35.521 -18.532 -22.718  0.00  0.00    +0.149 C 
ATOM     27  C   UNL     1      34.485 -19.259 -22.172  0.00  0.00    +0.061 C 
ATOM     28  C   UNL     1      34.779 -20.042 -21.067  0.00  0.00    +0.137 C 
ATOM     29  C   UNL     1      36.794 -18.582 -22.189  0.00  0.00    +0.058 C 
ATOM     30  C   UNL     1      36.984 -19.395 -21.083  0.00  0.00    +0.102 C 
BRANCH  28  33
ATOM     31  O   UNL     1      32.542 -20.650 -20.715  0.00  0.00    -0.268 OA
ATOM     32  N   UNL     1      34.154 -21.822 -19.530  0.00  0.00    -0.298 N 
ATOM     33  C   UNL     1      33.740 -20.837 -20.435  0.00  0.00    +0.264 C 
ATOM     34  C   UNL     1      33.243 -22.707 -18.840  0.00  0.00    +0.111 C 
ATOM     35  H   UNL     1      35.118 -21.917 -19.354  0.00  0.00    +0.150 HD
ENDBRANCH  28  33
ENDBRANCH  24  26
ENDBRANCH   2  24
TORSDOF 6
ENDMDL
MODEL 6
REMARK VINA RESULT:     -11.5      9.073     14.382
REMARK  Name = 216239
REMARK  6 active torsions:
REMARK  status: ('A' for Active; 'I' for Inactive)
REMARK    1  A    between atoms: C_1  and  N_9
REMARK    2  A    between atoms: C_2  and  O_24
REMARK    3  A    between atoms: N_8  and  C_14
REMARK    4  A    between atoms: C_15  and  C_23
REMARK    5  A    between atoms: O_24  and  C_26
REMARK    6  A    between atoms: C_28  and  C_33
REMARK                            x       y       z     vdW  Elec       q    Type
REMARK                         _______ _______ _______ _____ _____    ______ ____
ROOT
ATOM      1  C   UNL     1      35.209 -21.234 -19.707  0.00  0.00    +0.052 C 
ATOM      2  C   UNL     1      35.889 -19.384 -21.653  0.00  0.00    +0.145 C 
ATOM      3  C   UNL     1      34.207 -20.633 -20.450  0.00  0.00    +0.018 C 
ATOM      4  C   UNL     1      36.544 -20.930 -19.915  0.00  0.00    +0.018 C 
ATOM      5  C   UNL     1      34.550 -19.702 -21.431  0.00  0.00    +0.039 C 
ATOM      6  C   UNL     1      36.887 -19.998 -20.895  0.00  0.00    +0.039 C 
ENDROOT
BRANCH   1   9
ATOM      7  O   UNL     1      36.215 -21.548 -16.912  0.00  0.00    -0.252 OA
ATOM      8  N   UNL     1      34.751 -23.368 -16.735  0.00  0.00    -0.268 N 
ATOM      9  N   UNL     1      34.861 -22.178 -18.712  0.00  0.00    -0.268 N 
ATOM     10  C   UNL     1      35.366 -22.283 -17.406  0.00  0.00    +0.308 C 
ATOM     11  H   UNL     1      34.086 -23.872 -17.258  0.00  0.00    +0.156 HD
ATOM     12  H   UNL     1      34.182 -22.843 -18.966  0.00  0.00    +0.156 HD
BRANCH   8  14
ATOM     13 CL   UNL     1      35.601 -25.272 -11.205  0.00  0.00    -0.082 Cl
ATOM     14  C   UNL     1      34.962 -23.820 -15.432  0.00  0.00    +0.052 C 
ATOM     15  C   UNL     1      36.452 -24.633 -13.714  0.00  0.00    +0.083 C 
ATOM     16  C   UNL     1      36.242 -24.183 -15.017  0.00  0.00    +0.019 C 
ATOM     17  C   UNL     1      33.889 -23.908 -14.544  0.00  0.00    +0.016 C 
ATOM     18  C   UNL     1      35.380 -24.722 -12.825  0.00  0.00    +0.062 C 
ATOM     19  C   UNL     1      34.099 -24.358 -13.241  0.00  0.00    +0.013 C 
BRANCH  15  23
ATOM     20  F   UNL     1      38.319 -24.276 -12.262  0.00  0.00    -0.166 F 
ATOM     21  F   UNL     1      37.958 -26.312 -12.916  0.00  0.00    -0.166 F 
ATOM     22  F   UNL     1      38.742 -24.846 -14.317  0.00  0.00    -0.166 F 
ATOM     23  C   UNL     1      37.840 -25.010 -13.307  0.00  0.00    +0.419 C 
ENDBRANCH  15  23
ENDBRANCH   8  14
ENDBRANCH   1   9
BRANCH   2  24
ATOM     24  O   UNL     1      36.224 -18.475 -22.609  0.00  0.00    -0.453 OA
BRANCH  24  26
ATOM     25  N   UNL     1      33.288 -17.371 -25.336  0.00  0.00    -0.239 NA
ATOM     26  C   UNL     1      35.245 -18.106 -23.516  0.00  0.00    +0.149 C 
ATOM     27  C   UNL     1      35.059 -16.771 -23.802  0.00  0.00    +0.061 C 
ATOM     28  C   UNL     1      34.068 -16.455 -24.718  0.00  0.00    +0.137 C 
ATOM     29  C   UNL     1      34.480 -19.084 -24.116  0.00  0.00    +0.058 C 
ATOM     30  C   UNL     1      33.514 -18.664 -25.017  0.00  0.00    +0.102 C 
BRANCH  28  33
ATOM     31  O   UNL     1      33.505 -14.759 -26.236  0.00  0.00    -0.268 OA
ATOM     32  N   UNL     1      33.904 -14.123 -24.043  0.00  0.00    -0.298 N 
ATOM     33  C   UNL     1      33.812 -15.069 -25.071  0.00  0.00    +0.264 C 
ATOM     34  C   UNL     1      33.656 -12.711 -24.231  0.00  0.00    +0.111 C 
ATOM     35  H   UNL     1      34.152 -14.435 -23.143  0.00  0.00    +0.150 HD
ENDBRANCH  28  33
ENDBRANCH  24  26
ENDBRANCH   2  24
TORSDOF 6
ENDMDL
MODEL 7
REMARK VINA RESULT:     -11.5      2.189      3.315
REMARK  Name = 216239
REMARK  6 active torsions:
REMARK  status: ('A' for Active; 'I' for Inactive)
REMARK    1  A    between atoms: C_1  and  N_9
REMARK    2  A    between atoms: C_2  and  O_24
REMARK    3  A    between atoms: N_8  and  C_14
REMARK    4  A    between atoms: C_15  and  C_23
REMARK    5  A    between atoms: O_24  and  C_26
REMARK    6  A    between atoms: C_28  and  C_33
REMARK                            x       y       z     vdW  Elec       q    Type
REMARK                         _______ _______ _______ _____ _____    ______ ____
ROOT
ATOM      1  C   UNL     1      34.685 -16.312 -23.499  0.00  0.00    +0.052 C 
ATOM      2  C   UNL     1      35.293 -18.718 -22.269  0.00  0.00    +0.145 C 
ATOM      3  C   UNL     1      34.700 -17.473 -24.253  0.00  0.00    +0.018 C 
ATOM      4  C   UNL     1      34.968 -16.327 -22.143  0.00  0.00    +0.018 C 
ATOM      5  C   UNL     1      35.006 -18.685 -23.634  0.00  0.00    +0.039 C 
ATOM      6  C   UNL     1      35.275 -17.539 -21.524  0.00  0.00    +0.039 C 
ENDROOT
BRANCH   1   9
ATOM      7  O   UNL     1      34.537 -13.553 -22.366  0.00  0.00    -0.252 OA
ATOM      8  N   UNL     1      33.971 -12.844 -24.526  0.00  0.00    -0.268 N 
ATOM      9  N   UNL     1      34.375 -15.083 -24.128  0.00  0.00    -0.268 N 
ATOM     10  C   UNL     1      34.319 -13.805 -23.546  0.00  0.00    +0.308 C 
ATOM     11  H   UNL     1      33.824 -13.193 -25.435  0.00  0.00    +0.156 HD
ATOM     12  H   UNL     1      34.173 -15.128 -25.090  0.00  0.00    +0.156 HD
BRANCH   8  14
ATOM     13 CL   UNL     1      33.317  -7.002 -23.911  0.00  0.00    -0.082 Cl
ATOM     14  C   UNL     1      33.808 -11.466 -24.376  0.00  0.00    +0.052 C 
ATOM     15  C   UNL     1      32.585  -9.590 -23.470  0.00  0.00    +0.083 C 
ATOM     16  C   UNL     1      32.747 -10.967 -23.621  0.00  0.00    +0.019 C 
ATOM     17  C   UNL     1      34.707 -10.588 -24.981  0.00  0.00    +0.016 C 
ATOM     18  C   UNL     1      33.484  -8.711 -24.076  0.00  0.00    +0.062 C 
ATOM     19  C   UNL     1      34.545  -9.211 -24.831  0.00  0.00    +0.013 C 
BRANCH  15  23
ATOM     20  F   UNL     1      31.819  -8.373 -21.559  0.00  0.00    -0.166 F 
ATOM     21  F   UNL     1      30.587  -8.281 -23.342  0.00  0.00    -0.166 F 
ATOM     22  F   UNL     1      30.664 -10.110 -22.170  0.00  0.00    -0.166 F 
ATOM     23  C   UNL     1      31.436  -9.095 -22.652  0.00  0.00    +0.419 C 
ENDBRANCH  15  23
ENDBRANCH   8  14
ENDBRANCH   1   9
BRANCH   2  24
ATOM     24  O   UNL     1      35.593 -19.901 -21.666  0.00  0.00    -0.453 OA
BRANCH  24  26
ATOM     25  N   UNL     1      32.655 -21.668 -19.318  0.00  0.00    -0.239 NA
ATOM     26  C   UNL     1      34.615 -20.490 -20.884  0.00  0.00    +0.149 C 
ATOM     27  C   UNL     1      34.985 -21.369 -19.888  0.00  0.00    +0.061 C 
ATOM     28  C   UNL     1      33.969 -21.930 -19.133  0.00  0.00    +0.137 C 
ATOM     29  C   UNL     1      33.290 -20.185 -21.119  0.00  0.00    +0.058 C 
ATOM     30  C   UNL     1      32.349 -20.801 -20.309  0.00  0.00    +0.102 C 
BRANCH  28  33
ATOM     31  O   UNL     1      33.639 -23.925 -17.945  0.00  0.00    -0.268 OA
ATOM     32  N   UNL     1      35.336 -22.525 -17.210  0.00  0.00    -0.298 N 
ATOM     33  C   UNL     1      34.280 -22.865 -18.065  0.00  0.00    +0.264 C 
ATOM     34  C   UNL     1      35.779 -23.361 -16.117  0.00  0.00    +0.111 C 
ATOM     35  H   UNL     1      35.801 -21.671 -17.360  0.00  0.00    +0.150 HD
ENDBRANCH  28  33
ENDBRANCH  24  26
ENDBRANCH   2  24
TORSDOF 6
ENDMDL
MODEL 8
REMARK VINA RESULT:     -11.5      7.455     12.830
REMARK  Name = 216239
REMARK  6 active torsions:
REMARK  status: ('A' for Active; 'I' for Inactive)
REMARK    1  A    between atoms: C_1  and  N_9
REMARK    2  A    between atoms: C_2  and  O_24
REMARK    3  A    between atoms: N_8  and  C_14
REMARK    4  A    between atoms: C_15  and  C_23
REMARK    5  A    between atoms: O_24  and  C_26
REMARK    6  A    between atoms: C_28  and  C_33
REMARK                            x       y       z     vdW  Elec       q    Type
REMARK                         _______ _______ _______ _____ _____    ______ ____
ROOT
ATOM      1  C   UNL     1      34.837 -18.626 -23.108  0.00  0.00    +0.052 C 
ATOM      2  C   UNL     1      34.098 -16.602 -24.849  0.00  0.00    +0.145 C 
ATOM      3  C   UNL     1      33.992 -18.917 -24.165  0.00  0.00    +0.018 C 
ATOM      4  C   UNL     1      35.321 -17.345 -22.902  0.00  0.00    +0.018 C 
ATOM      5  C   UNL     1      33.620 -17.898 -25.042  0.00  0.00    +0.039 C 
ATOM      6  C   UNL     1      34.948 -16.325 -23.778  0.00  0.00    +0.039 C 
ENDROOT
BRANCH   1   9
ATOM      7  O   UNL     1      33.480 -19.641 -20.649  0.00  0.00    -0.252 OA
ATOM      8  N   UNL     1      35.253 -21.160 -20.462  0.00  0.00    -0.268 N 
ATOM      9  N   UNL     1      35.214 -19.659 -22.219  0.00  0.00    -0.268 N 
ATOM     10  C   UNL     1      34.536 -20.101 -21.070  0.00  0.00    +0.308 C 
ATOM     11  H   UNL     1      36.089 -21.424 -20.913  0.00  0.00    +0.156 HD
ATOM     12  H   UNL     1      36.053 -20.127 -22.430  0.00  0.00    +0.156 HD
BRANCH   8  14
ATOM     13 CL   UNL     1      33.864 -24.214 -15.596  0.00  0.00    -0.082 Cl
ATOM     14  C   UNL     1      34.935 -21.880 -19.310  0.00  0.00    +0.052 C 
ATOM     15  C   UNL     1      35.561 -22.745 -17.143  0.00  0.00    +0.083 C 
ATOM     16  C   UNL     1      35.880 -22.026 -18.295  0.00  0.00    +0.019 C 
ATOM     17  C   UNL     1      33.671 -22.454 -19.175  0.00  0.00    +0.016 C 
ATOM     18  C   UNL     1      34.296 -23.319 -17.007  0.00  0.00    +0.062 C 
ATOM     19  C   UNL     1      33.352 -23.173 -18.023  0.00  0.00    +0.013 C 
BRANCH  15  23
ATOM     20  F   UNL     1      36.222 -22.343 -14.880  0.00  0.00    -0.166 F 
ATOM     21  F   UNL     1      36.938 -24.170 -15.804  0.00  0.00    -0.166 F 
ATOM     22  F   UNL     1      37.767 -22.252 -16.407  0.00  0.00    -0.166 F 
ATOM     23  C   UNL     1      36.600 -22.877 -16.077  0.00  0.00    +0.419 C 
ENDBRANCH  15  23
ENDBRANCH   8  14
ENDBRANCH   1   9
BRANCH   2  24
ATOM     24  O   UNL     1      33.734 -15.608 -25.704  0.00  0.00    -0.453 OA
BRANCH  24  26
ATOM     25  N   UNL     1      33.342 -11.773 -24.150  0.00  0.00    -0.239 NA
ATOM     26  C   UNL     1      33.605 -14.330 -25.186  0.00  0.00    +0.149 C 
ATOM     27  C   UNL     1      34.105 -13.260 -25.897  0.00  0.00    +0.061 C 
ATOM     28  C   UNL     1      33.948 -12.003 -25.337  0.00  0.00    +0.137 C 
ATOM     29  C   UNL     1      32.977 -14.156 -23.970  0.00  0.00    +0.058 C 
ATOM     30  C   UNL     1      32.872 -12.858 -23.496  0.00  0.00    +0.102 C 
BRANCH  28  33
ATOM     31  O   UNL     1      34.759 -10.883 -27.231  0.00  0.00    -0.268 OA
ATOM     32  N   UNL     1      34.538  -9.643 -25.285  0.00  0.00    -0.298 N 
ATOM     33  C   UNL     1      34.448 -10.826 -26.027  0.00  0.00    +0.264 C 
ATOM     34  C   UNL     1      34.994  -8.386 -25.835  0.00  0.00    +0.111 C 
ATOM     35  H   UNL     1      34.276  -9.667 -24.336  0.00  0.00    +0.150 HD
ENDBRANCH  28  33
ENDBRANCH  24  26
ENDBRANCH   2  24
TORSDOF 6
ENDMDL
MODEL 9
REMARK VINA RESULT:     -11.2      8.618     13.917
REMARK  Name = 216239
REMARK  6 active torsions:
REMARK  status: ('A' for Active; 'I' for Inactive)
REMARK    1  A    between atoms: C_1  and  N_9
REMARK    2  A    between atoms: C_2  and  O_24
REMARK    3  A    between atoms: N_8  and  C_14
REMARK    4  A    between atoms: C_15  and  C_23
REMARK    5  A    between atoms: O_24  and  C_26
REMARK    6  A    between atoms: C_28  and  C_33
REMARK                            x       y       z     vdW  Elec       q    Type
REMARK                         _______ _______ _______ _____ _____    ______ ____
ROOT
ATOM      1  C   UNL     1      35.437 -20.663 -20.257  0.00  0.00    +0.052 C 
ATOM      2  C   UNL     1      35.500 -18.732 -22.242  0.00  0.00    +0.145 C 
ATOM      3  C   UNL     1      34.282 -20.381 -20.965  0.00  0.00    +0.018 C 
ATOM      4  C   UNL     1      36.625 -20.000 -20.519  0.00  0.00    +0.018 C 
ATOM      5  C   UNL     1      34.313 -19.409 -21.965  0.00  0.00    +0.039 C 
ATOM      6  C   UNL     1      36.656 -19.026 -21.518  0.00  0.00    +0.039 C 
ENDROOT
BRANCH   1   9
ATOM      7  O   UNL     1      36.946 -20.833 -17.686  0.00  0.00    -0.252 OA
ATOM      8  N   UNL     1      35.809 -22.846 -17.309  0.00  0.00    -0.268 N 
ATOM      9  N   UNL     1      35.405 -21.649 -19.244  0.00  0.00    -0.268 N 
ATOM     10  C   UNL     1      36.139 -21.682 -18.046  0.00  0.00    +0.308 C 
ATOM     11  H   UNL     1      35.143 -23.441 -17.725  0.00  0.00    +0.156 HD
ATOM     12  H   UNL     1      34.794 -22.405 -19.395  0.00  0.00    +0.156 HD
BRANCH   8  14
ATOM     13 CL   UNL     1      37.948 -24.625 -12.095  0.00  0.00    -0.082 Cl
ATOM     14  C   UNL     1      36.305 -23.265 -16.074  0.00  0.00    +0.052 C 
ATOM     15  C   UNL     1      35.933 -23.857 -13.762  0.00  0.00    +0.083 C 
ATOM     16  C   UNL     1      35.437 -23.438 -14.996  0.00  0.00    +0.019 C 
ATOM     17  C   UNL     1      37.669 -23.510 -15.918  0.00  0.00    +0.016 C 
ATOM     18  C   UNL     1      37.298 -24.103 -13.605  0.00  0.00    +0.062 C 
ATOM     19  C   UNL     1      38.165 -23.930 -14.684  0.00  0.00    +0.013 C 
BRANCH  15  23
ATOM     20  F   UNL     1      35.231 -23.224 -11.565  0.00  0.00    -0.166 F 
ATOM     21  F   UNL     1      33.676 -23.772 -12.975  0.00  0.00    -0.166 F 
ATOM     22  F   UNL     1      34.972 -25.305 -12.139  0.00  0.00    -0.166 F 
ATOM     23  C   UNL     1      34.971 -24.033 -12.632  0.00  0.00    +0.419 C 
ENDBRANCH  15  23
ENDBRANCH   8  14
ENDBRANCH   1   9
BRANCH   2  24
ATOM     24  O   UNL     1      35.531 -17.781 -23.215  0.00  0.00    -0.453 OA
BRANCH  24  26
ATOM     25  N   UNL     1      33.928 -14.052 -22.322  0.00  0.00    -0.239 NA
ATOM     26  C   UNL     1      34.998 -16.539 -22.918  0.00  0.00    +0.149 C 
ATOM     27  C   UNL     1      34.695 -15.671 -23.946  0.00  0.00    +0.061 C 
ATOM     28  C   UNL     1      34.163 -14.441 -23.596  0.00  0.00    +0.137 C 
ATOM     29  C   UNL     1      34.780 -16.197 -21.600  0.00  0.00    +0.058 C 
ATOM     30  C   UNL     1      34.244 -14.942 -21.355  0.00  0.00    +0.102 C 
BRANCH  28  33
ATOM     31  O   UNL     1      33.188 -13.824 -25.638  0.00  0.00    -0.268 OA
ATOM     32  N   UNL     1      34.205 -12.146 -24.403  0.00  0.00    -0.298 N 
ATOM     33  C   UNL     1      33.818 -13.473 -24.624  0.00  0.00    +0.264 C 
ATOM     34  C   UNL     1      33.915 -11.066 -25.320  0.00  0.00    +0.111 C 
ATOM     35  H   UNL     1      34.702 -11.936 -23.579  0.00  0.00    +0.150 HD
ENDBRANCH  28  33
ENDBRANCH  24  26
ENDBRANCH   2  24
TORSDOF 6
ENDMDL
