MODEL 1
REMARK VINA RESULT:     -11.8      0.000      0.000
REMARK  Name = 66571548
REMARK  8 active torsions:
REMARK  status: ('A' for Active; 'I' for Inactive)
REMARK    1  A    between atoms: C_2  and  C_10
REMARK    2  A    between atoms: C_2  and  C_22
REMARK    3  A    between atoms: N_3  and  C_15
REMARK    4  A    between atoms: C_15  and  C_18
REMARK    5  A    between atoms: C_18  and  O_19
REMARK    6  A    between atoms: C_25  and  N_28
REMARK    7  A    between atoms: C_29  and  C_31
REMARK    8  A    between atoms: C_31  and  C_34
REMARK                            x       y       z     vdW  Elec       q    Type
REMARK                         _______ _______ _______ _____ _____    ______ ____
ROOT
ATOM      1  O   UNL     1      33.648 -24.064 -19.765  0.00  0.00    -0.286 OA
ATOM      2  C   UNL     1      33.988 -23.167 -18.963  0.00  0.00    +0.199 C 
ENDROOT
BRANCH   2  10
ATOM      3  N   UNL     1      32.528 -23.487 -15.679  0.00  0.00    -0.261 N 
ATOM      4  N   UNL     1      34.308 -23.441 -14.053  0.00  0.00    -0.322 NA
ATOM      5  N   UNL     1      36.510 -23.196 -15.063  0.00  0.00    -0.170 NA
ATOM      6  N   UNL     1      36.243 -23.360 -12.743  0.00  0.00    -0.293 N 
ATOM      7  C   UNL     1      33.845 -23.401 -15.314  0.00  0.00    +0.201 C 
ATOM      8  C   UNL     1      32.424 -23.414 -17.044  0.00  0.00    +0.071 C 
ATOM      9  C   UNL     1      34.601 -23.267 -16.473  0.00  0.00    +0.069 C 
ATOM     10  C   UNL     1      33.695 -23.276 -17.563  0.00  0.00    +0.059 C 
ATOM     11  C   UNL     1      35.982 -23.162 -16.309  0.00  0.00    +0.116 C 
ATOM     12  C   UNL     1      35.651 -23.331 -14.027  0.00  0.00    +0.143 C 
ATOM     13  H   UNL     1      35.678 -23.457 -11.943  0.00  0.00    +0.155 HD
ATOM     14  H   UNL     1      37.220 -23.286 -12.650  0.00  0.00    +0.155 HD
BRANCH   3  15
ATOM     15  C   UNL     1      31.336 -23.642 -14.714  0.00  0.00    +0.091 C 
ATOM     16  C   UNL     1      31.445 -22.759 -13.448  0.00  0.00    +0.023 C 
ATOM     17  C   UNL     1      30.039 -23.223 -15.444  0.00  0.00    +0.023 C 
BRANCH  15  18
ATOM     18  C   UNL     1      31.197 -25.118 -14.263  0.00  0.00    +0.155 C 
BRANCH  18  19
ATOM     19  O   UNL     1      32.208 -25.453 -13.318  0.00  0.00    -0.380 OA
ATOM     20  H   UNL     1      32.038 -24.987 -12.485  0.00  0.00    +0.211 HD
ENDBRANCH  18  19
ENDBRANCH  15  18
ENDBRANCH   3  15
ENDBRANCH   2  10
BRANCH   2  22
ATOM     21  N   UNL     1      36.595 -20.477 -19.500  0.00  0.00    -0.241 NA
ATOM     22  C   UNL     1      34.710 -21.990 -19.561  0.00  0.00    +0.059 C 
ATOM     23  C   UNL     1      34.207 -21.330 -20.677  0.00  0.00    +0.021 C 
ATOM     24  C   UNL     1      35.896 -21.528 -19.014  0.00  0.00    +0.102 C 
ATOM     25  C   UNL     1      34.897 -20.244 -21.205  0.00  0.00    +0.070 C 
ATOM     26  C   UNL     1      36.076 -19.861 -20.586  0.00  0.00    +0.113 C 
BRANCH  25  28
ATOM     27  O   UNL     1      36.355 -18.616 -23.264  0.00  0.00    -0.274 OA
ATOM     28  N   UNL     1      34.417 -19.564 -22.322  0.00  0.00    -0.282 N 
ATOM     29  C   UNL     1      35.142 -18.811 -23.262  0.00  0.00    +0.232 C 
ATOM     30  H   UNL     1      33.446 -19.616 -22.471  0.00  0.00    +0.155 HD
BRANCH  29  31
ATOM     31  C   UNL     1      34.226 -18.234 -24.329  0.00  0.00    +0.131 C 
BRANCH  31  34
ATOM     32 CL   UNL     1      33.902 -12.294 -24.377  0.00  0.00    -0.081 Cl
ATOM     33  N   UNL     1      33.672 -16.131 -25.421  0.00  0.00    -0.247 NA
ATOM     34  C   UNL     1      34.156 -16.729 -24.310  0.00  0.00    +0.068 C 
ATOM     35  C   UNL     1      34.582 -16.044 -23.183  0.00  0.00    +0.016 C 
ATOM     36  C   UNL     1      34.504 -14.656 -23.198  0.00  0.00    +0.014 C 
ATOM     37  C   UNL     1      33.612 -14.781 -25.399  0.00  0.00    +0.110 C 
ATOM     38  C   UNL     1      34.012 -14.004 -24.323  0.00  0.00    +0.077 C 
ENDBRANCH  31  34
ENDBRANCH  29  31
ENDBRANCH  25  28
ENDBRANCH   2  22
TORSDOF 8
ENDMDL
MODEL 2
REMARK VINA RESULT:     -11.7      1.314      2.848
REMARK  Name = 66571548
REMARK  8 active torsions:
REMARK  status: ('A' for Active; 'I' for Inactive)
REMARK    1  A    between atoms: C_2  and  C_10
REMARK    2  A    between atoms: C_2  and  C_22
REMARK    3  A    between atoms: N_3  and  C_15
REMARK    4  A    between atoms: C_15  and  C_18
REMARK    5  A    between atoms: C_18  and  O_19
REMARK    6  A    between atoms: C_25  and  N_28
REMARK    7  A    between atoms: C_29  and  C_31
REMARK    8  A    between atoms: C_31  and  C_34
REMARK                            x       y       z     vdW  Elec       q    Type
REMARK                         _______ _______ _______ _____ _____    ______ ____
ROOT
ATOM      1  O   UNL     1      31.944 -22.337 -19.213  0.00  0.00    -0.286 OA
ATOM      2  C   UNL     1      33.101 -22.307 -18.741  0.00  0.00    +0.199 C 
ENDROOT
BRANCH   2  10
ATOM      3  N   UNL     1      34.612 -23.845 -15.847  0.00  0.00    -0.261 N 
ATOM      4  N   UNL     1      32.849 -24.680 -14.429  0.00  0.00    -0.322 NA
ATOM      5  N   UNL     1      30.626 -24.261 -15.331  0.00  0.00    -0.170 NA
ATOM      6  N   UNL     1      30.926 -25.369 -13.291  0.00  0.00    -0.293 N 
ATOM      7  C   UNL     1      33.295 -24.060 -15.535  0.00  0.00    +0.201 C 
ATOM      8  C   UNL     1      34.696 -23.184 -17.045  0.00  0.00    +0.071 C 
ATOM      9  C   UNL     1      32.521 -23.525 -16.558  0.00  0.00    +0.069 C 
ATOM     10  C   UNL     1      33.415 -22.973 -17.509  0.00  0.00    +0.059 C 
ATOM     11  C   UNL     1      31.138 -23.647 -16.423  0.00  0.00    +0.116 C 
ATOM     12  C   UNL     1      31.502 -24.733 -14.415  0.00  0.00    +0.143 C 
ATOM     13  H   UNL     1      31.504 -25.736 -12.584  0.00  0.00    +0.155 HD
ATOM     14  H   UNL     1      29.948 -25.443 -13.215  0.00  0.00    +0.155 HD
BRANCH   3  15
ATOM     15  C   UNL     1      35.820 -24.276 -14.993  0.00  0.00    +0.091 C 
ATOM     16  C   UNL     1      36.150 -25.784 -15.103  0.00  0.00    +0.023 C 
ATOM     17  C   UNL     1      37.073 -23.505 -15.470  0.00  0.00    +0.023 C 
BRANCH  15  18
ATOM     18  C   UNL     1      35.570 -23.943 -13.501  0.00  0.00    +0.155 C 
BRANCH  18  19
ATOM     19  O   UNL     1      35.239 -25.120 -12.771  0.00  0.00    -0.380 OA
ATOM     20  H   UNL     1      34.279 -25.253 -12.790  0.00  0.00    +0.211 HD
ENDBRANCH  18  19
ENDBRANCH  15  18
ENDBRANCH   3  15
ENDBRANCH   2  10
BRANCH   2  22
ATOM     21  N   UNL     1      36.413 -20.835 -19.831  0.00  0.00    -0.241 NA
ATOM     22  C   UNL     1      34.118 -21.539 -19.541  0.00  0.00    +0.059 C 
ATOM     23  C   UNL     1      33.751 -20.839 -20.686  0.00  0.00    +0.021 C 
ATOM     24  C   UNL     1      35.449 -21.506 -19.159  0.00  0.00    +0.102 C 
ATOM     25  C   UNL     1      34.714 -20.137 -21.403  0.00  0.00    +0.070 C 
ATOM     26  C   UNL     1      36.019 -20.167 -20.938  0.00  0.00    +0.113 C 
BRANCH  25  28
ATOM     27  O   UNL     1      36.346 -18.247 -23.070  0.00  0.00    -0.274 OA
ATOM     28  N   UNL     1      34.376 -19.426 -22.552  0.00  0.00    -0.282 N 
ATOM     29  C   UNL     1      35.179 -18.549 -23.302  0.00  0.00    +0.232 C 
ATOM     30  H   UNL     1      33.458 -19.554 -22.881  0.00  0.00    +0.155 HD
BRANCH  29  31
ATOM     31  C   UNL     1      34.415 -17.983 -24.489  0.00  0.00    +0.131 C 
BRANCH  31  34
ATOM     32 CL   UNL     1      33.637 -12.086 -24.365  0.00  0.00    -0.081 Cl
ATOM     33  N   UNL     1      33.707 -15.898 -25.523  0.00  0.00    -0.247 NA
ATOM     34  C   UNL     1      34.230 -16.489 -24.426  0.00  0.00    +0.068 C 
ATOM     35  C   UNL     1      34.597 -15.807 -23.277  0.00  0.00    +0.016 C 
ATOM     36  C   UNL     1      34.414 -14.429 -23.252  0.00  0.00    +0.014 C 
ATOM     37  C   UNL     1      33.543 -14.557 -25.461  0.00  0.00    +0.110 C 
ATOM     38  C   UNL     1      33.878 -13.784 -24.361  0.00  0.00    +0.077 C 
ENDBRANCH  31  34
ENDBRANCH  29  31
ENDBRANCH  25  28
ENDBRANCH   2  22
TORSDOF 8
ENDMDL
MODEL 3
REMARK VINA RESULT:     -11.5      1.461      1.836
REMARK  Name = 66571548
REMARK  8 active torsions:
REMARK  status: ('A' for Active; 'I' for Inactive)
REMARK    1  A    between atoms: C_2  and  C_10
REMARK    2  A    between atoms: C_2  and  C_22
REMARK    3  A    between atoms: N_3  and  C_15
REMARK    4  A    between atoms: C_15  and  C_18
REMARK    5  A    between atoms: C_18  and  O_19
REMARK    6  A    between atoms: C_25  and  N_28
REMARK    7  A    between atoms: C_29  and  C_31
REMARK    8  A    between atoms: C_31  and  C_34
REMARK                            x       y       z     vdW  Elec       q    Type
REMARK                         _______ _______ _______ _____ _____    ______ ____
ROOT
ATOM      1  O   UNL     1      36.543 -22.360 -18.904  0.00  0.00    -0.286 OA
ATOM      2  C   UNL     1      35.354 -22.181 -18.562  0.00  0.00    +0.199 C 
ENDROOT
BRANCH   2  10
ATOM      3  N   UNL     1      33.455 -23.430 -15.759  0.00  0.00    -0.261 N 
ATOM      4  N   UNL     1      34.956 -23.702 -13.891  0.00  0.00    -0.322 NA
ATOM      5  N   UNL     1      37.249 -23.073 -14.416  0.00  0.00    -0.170 NA
ATOM      6  N   UNL     1      36.653 -23.850 -12.290  0.00  0.00    -0.293 N 
ATOM      7  C   UNL     1      34.687 -23.363 -15.164  0.00  0.00    +0.201 C 
ATOM      8  C   UNL     1      33.552 -23.011 -17.061  0.00  0.00    +0.071 C 
ATOM      9  C   UNL     1      35.592 -22.889 -16.106  0.00  0.00    +0.069 C 
ATOM     10  C   UNL     1      34.866 -22.668 -17.304  0.00  0.00    +0.059 C 
ATOM     11  C   UNL     1      36.914 -22.748 -15.687  0.00  0.00    +0.116 C 
ATOM     12  C   UNL     1      36.262 -23.524 -13.609  0.00  0.00    +0.143 C 
ATOM     13  H   UNL     1      35.986 -24.185 -11.648  0.00  0.00    +0.155 HD
ATOM     14  H   UNL     1      37.592 -23.745 -12.015  0.00  0.00    +0.155 HD
BRANCH   3  15
ATOM     15  C   UNL     1      32.153 -23.900 -15.082  0.00  0.00    +0.091 C 
ATOM     16  C   UNL     1      31.680 -22.973 -13.937  0.00  0.00    +0.023 C 
ATOM     17  C   UNL     1      31.020 -23.930 -16.134  0.00  0.00    +0.023 C 
BRANCH  15  18
ATOM     18  C   UNL     1      32.333 -25.328 -14.505  0.00  0.00    +0.155 C 
BRANCH  18  19
ATOM     19  O   UNL     1      32.488 -25.283 -13.090  0.00  0.00    -0.380 OA
ATOM     20  H   UNL     1      31.686 -25.627 -12.666  0.00  0.00    +0.211 HD
ENDBRANCH  18  19
ENDBRANCH  15  18
ENDBRANCH   3  15
ENDBRANCH   2  10
BRANCH   2  22
ATOM     21  N   UNL     1      32.304 -21.059 -20.500  0.00  0.00    -0.241 NA
ATOM     22  C   UNL     1      34.493 -21.435 -19.544  0.00  0.00    +0.059 C 
ATOM     23  C   UNL     1      35.034 -20.468 -20.385  0.00  0.00    +0.021 C 
ATOM     24  C   UNL     1      33.134 -21.691 -19.640  0.00  0.00    +0.102 C 
ATOM     25  C   UNL     1      34.212 -19.797 -21.283  0.00  0.00    +0.070 C 
ATOM     26  C   UNL     1      32.866 -20.125 -21.301  0.00  0.00    +0.113 C 
BRANCH  25  28
ATOM     27  O   UNL     1      33.716 -19.319 -24.206  0.00  0.00    -0.274 OA
ATOM     28  N   UNL     1      34.726 -18.824 -22.138  0.00  0.00    -0.282 N 
ATOM     29  C   UNL     1      34.462 -18.640 -23.506  0.00  0.00    +0.232 C 
ATOM     30  H   UNL     1      35.354 -18.186 -21.732  0.00  0.00    +0.155 HD
BRANCH  29  31
ATOM     31  C   UNL     1      35.236 -17.453 -24.060  0.00  0.00    +0.131 C 
BRANCH  31  34
ATOM     32 CL   UNL     1      32.614 -12.227 -22.967  0.00  0.00    -0.081 Cl
ATOM     33  N   UNL     1      34.701 -15.598 -22.580  0.00  0.00    -0.247 NA
ATOM     34  C   UNL     1      34.561 -16.130 -23.815  0.00  0.00    +0.068 C 
ATOM     35  C   UNL     1      33.845 -15.533 -24.840  0.00  0.00    +0.016 C 
ATOM     36  C   UNL     1      33.233 -14.311 -24.581  0.00  0.00    +0.014 C 
ATOM     37  C   UNL     1      34.093 -14.410 -22.365  0.00  0.00    +0.110 C 
ATOM     38  C   UNL     1      33.354 -13.732 -23.323  0.00  0.00    +0.077 C 
ENDBRANCH  31  34
ENDBRANCH  29  31
ENDBRANCH  25  28
ENDBRANCH   2  22
TORSDOF 8
ENDMDL
MODEL 4
REMARK VINA RESULT:     -11.5      5.018     12.643
REMARK  Name = 66571548
REMARK  8 active torsions:
REMARK  status: ('A' for Active; 'I' for Inactive)
REMARK    1  A    between atoms: C_2  and  C_10
REMARK    2  A    between atoms: C_2  and  C_22
REMARK    3  A    between atoms: N_3  and  C_15
REMARK    4  A    between atoms: C_15  and  C_18
REMARK    5  A    between atoms: C_18  and  O_19
REMARK    6  A    between atoms: C_25  and  N_28
REMARK    7  A    between atoms: C_29  and  C_31
REMARK    8  A    between atoms: C_31  and  C_34
REMARK                            x       y       z     vdW  Elec       q    Type
REMARK                         _______ _______ _______ _____ _____    ______ ____
ROOT
ATOM      1  O   UNL     1      31.975 -13.363 -21.854  0.00  0.00    -0.286 OA
ATOM      2  C   UNL     1      32.652 -13.021 -22.848  0.00  0.00    +0.199 C 
ENDROOT
BRANCH   2  10
ATOM      3  N   UNL     1      32.679  -9.419 -23.065  0.00  0.00    -0.261 N 
ATOM      4  N   UNL     1      34.080  -8.785 -24.922  0.00  0.00    -0.322 NA
ATOM      5  N   UNL     1      35.041 -10.697 -26.083  0.00  0.00    -0.170 NA
ATOM      6  N   UNL     1      35.485  -8.504 -26.770  0.00  0.00    -0.293 N 
ATOM      7  C   UNL     1      33.502  -9.699 -24.123  0.00  0.00    +0.201 C 
ATOM      8  C   UNL     1      32.275 -10.590 -22.477  0.00  0.00    +0.071 C 
ATOM      9  C   UNL     1      33.625 -11.080 -24.216  0.00  0.00    +0.069 C 
ATOM     10  C   UNL     1      32.846 -11.637 -23.171  0.00  0.00    +0.059 C 
ATOM     11  C   UNL     1      34.430 -11.567 -25.245  0.00  0.00    +0.116 C 
ATOM     12  C   UNL     1      34.830  -9.378 -25.871  0.00  0.00    +0.143 C 
ATOM     13  H   UNL     1      35.377  -7.530 -26.675  0.00  0.00    +0.155 HD
ATOM     14  H   UNL     1      36.050  -8.869 -27.488  0.00  0.00    +0.155 HD
BRANCH   3  15
ATOM     15  C   UNL     1      32.263  -8.011 -22.596  0.00  0.00    +0.091 C 
ATOM     16  C   UNL     1      33.376  -6.949 -22.761  0.00  0.00    +0.023 C 
ATOM     17  C   UNL     1      31.058  -7.535 -23.440  0.00  0.00    +0.023 C 
BRANCH  15  18
ATOM     18  C   UNL     1      31.843  -8.043 -21.104  0.00  0.00    +0.155 C 
BRANCH  18  19
ATOM     19  O   UNL     1      32.958  -7.770 -20.261  0.00  0.00    -0.380 OA
ATOM     20  H   UNL     1      33.582  -7.193 -20.729  0.00  0.00    +0.211 HD
ENDBRANCH  18  19
ENDBRANCH  15  18
ENDBRANCH   3  15
ENDBRANCH   2  10
BRANCH   2  22
ATOM     21  N   UNL     1      33.582 -15.153 -25.833  0.00  0.00    -0.241 NA
ATOM     22  C   UNL     1      33.234 -14.143 -23.664  0.00  0.00    +0.059 C 
ATOM     23  C   UNL     1      33.934 -15.182 -23.060  0.00  0.00    +0.021 C 
ATOM     24  C   UNL     1      33.086 -14.176 -25.042  0.00  0.00    +0.102 C 
ATOM     25  C   UNL     1      34.459 -16.206 -23.841  0.00  0.00    +0.070 C 
ATOM     26  C   UNL     1      34.258 -16.145 -25.211  0.00  0.00    +0.113 C 
BRANCH  25  28
ATOM     27  O   UNL     1      34.953 -16.863 -20.954  0.00  0.00    -0.274 OA
ATOM     28  N   UNL     1      35.164 -17.260 -23.264  0.00  0.00    -0.282 N 
ATOM     29  C   UNL     1      35.369 -17.527 -21.899  0.00  0.00    +0.232 C 
ATOM     30  H   UNL     1      35.572 -17.897 -23.893  0.00  0.00    +0.155 HD
BRANCH  29  31
ATOM     31  C   UNL     1      36.201 -18.785 -21.705  0.00  0.00    +0.131 C 
BRANCH  31  34
ATOM     32 CL   UNL     1      33.488 -23.090 -18.623  0.00  0.00    -0.081 Cl
ATOM     33  N   UNL     1      36.246 -20.651 -20.144  0.00  0.00    -0.247 NA
ATOM     34  C   UNL     1      35.484 -19.865 -20.938  0.00  0.00    +0.068 C 
ATOM     35  C   UNL     1      34.112 -20.002 -21.077  0.00  0.00    +0.016 C 
ATOM     36  C   UNL     1      33.482 -21.009 -20.355  0.00  0.00    +0.014 C 
ATOM     37  C   UNL     1      35.598 -21.619 -19.458  0.00  0.00    +0.110 C 
ATOM     38  C   UNL     1      34.231 -21.838 -19.528  0.00  0.00    +0.077 C 
ENDBRANCH  31  34
ENDBRANCH  29  31
ENDBRANCH  25  28
ENDBRANCH   2  22
TORSDOF 8
ENDMDL
MODEL 5
REMARK VINA RESULT:     -11.2      4.903     12.821
REMARK  Name = 66571548
REMARK  8 active torsions:
REMARK  status: ('A' for Active; 'I' for Inactive)
REMARK    1  A    between atoms: C_2  and  C_10
REMARK    2  A    between atoms: C_2  and  C_22
REMARK    3  A    between atoms: N_3  and  C_15
REMARK    4  A    between atoms: C_15  and  C_18
REMARK    5  A    between atoms: C_18  and  O_19
REMARK    6  A    between atoms: C_25  and  N_28
REMARK    7  A    between atoms: C_29  and  C_31
REMARK    8  A    between atoms: C_31  and  C_34
REMARK                            x       y       z     vdW  Elec       q    Type
REMARK                         _______ _______ _______ _____ _____    ______ ____
ROOT
ATOM      1  O   UNL     1      32.411 -13.472 -21.797  0.00  0.00    -0.286 OA
ATOM      2  C   UNL     1      32.969 -13.202 -22.882  0.00  0.00    +0.199 C 
ENDROOT
BRANCH   2  10
ATOM      3  N   UNL     1      33.891 -10.059 -24.397  0.00  0.00    -0.261 N 
ATOM      4  N   UNL     1      32.338  -8.375 -23.645  0.00  0.00    -0.322 NA
ATOM      5  N   UNL     1      30.648  -9.251 -22.126  0.00  0.00    -0.170 NA
ATOM      6  N   UNL     1      30.685  -6.992 -22.739  0.00  0.00    -0.293 N 
ATOM      7  C   UNL     1      32.806  -9.634 -23.677  0.00  0.00    +0.201 C 
ATOM      8  C   UNL     1      34.077 -11.402 -24.194  0.00  0.00    +0.071 C 
ATOM      9  C   UNL     1      32.288 -10.730 -22.998  0.00  0.00    +0.069 C 
ATOM     10  C   UNL     1      33.098 -11.845 -23.330  0.00  0.00    +0.059 C 
ATOM     11  C   UNL     1      31.168 -10.498 -22.200  0.00  0.00    +0.116 C 
ATOM     12  C   UNL     1      31.258  -8.280 -22.844  0.00  0.00    +0.143 C 
ATOM     13  H   UNL     1      31.077  -6.237 -23.235  0.00  0.00    +0.155 HD
ATOM     14  H   UNL     1      29.894  -6.850 -22.171  0.00  0.00    +0.155 HD
BRANCH   3  15
ATOM     15  C   UNL     1      34.775  -9.175 -25.297  0.00  0.00    +0.091 C 
ATOM     16  C   UNL     1      33.978  -8.384 -26.363  0.00  0.00    +0.023 C 
ATOM     17  C   UNL     1      35.507  -8.134 -24.419  0.00  0.00    +0.023 C 
BRANCH  15  18
ATOM     18  C   UNL     1      35.834 -10.040 -26.028  0.00  0.00    +0.155 C 
BRANCH  18  19
ATOM     19  O   UNL     1      35.286 -10.613 -27.211  0.00  0.00    -0.380 OA
ATOM     20  H   UNL     1      35.148 -11.564 -27.075  0.00  0.00    +0.211 HD
ENDBRANCH  18  19
ENDBRANCH  15  18
ENDBRANCH   3  15
ENDBRANCH   2  10
BRANCH   2  22
ATOM     21  N   UNL     1      33.750 -15.477 -25.804  0.00  0.00    -0.241 NA
ATOM     22  C   UNL     1      33.484 -14.378 -23.667  0.00  0.00    +0.059 C 
ATOM     23  C   UNL     1      34.145 -15.428 -23.036  0.00  0.00    +0.021 C 
ATOM     24  C   UNL     1      33.313 -14.450 -25.040  0.00  0.00    +0.102 C 
ATOM     25  C   UNL     1      34.608 -16.502 -23.789  0.00  0.00    +0.070 C 
ATOM     26  C   UNL     1      34.388 -16.478 -25.157  0.00  0.00    +0.113 C 
BRANCH  25  28
ATOM     27  O   UNL     1      35.059 -17.117 -20.885  0.00  0.00    -0.274 OA
ATOM     28  N   UNL     1      35.272 -17.567 -23.186  0.00  0.00    -0.282 N 
ATOM     29  C   UNL     1      35.458 -17.814 -21.814  0.00  0.00    +0.232 C 
ATOM     30  H   UNL     1      35.661 -18.231 -23.798  0.00  0.00    +0.155 HD
BRANCH  29  31
ATOM     31  C   UNL     1      36.244 -19.096 -21.588  0.00  0.00    +0.131 C 
BRANCH  31  34
ATOM     32 CL   UNL     1      33.390 -23.209 -18.375  0.00  0.00    -0.081 Cl
ATOM     33  N   UNL     1      36.227 -20.909 -19.965  0.00  0.00    -0.247 NA
ATOM     34  C   UNL     1      35.492 -20.128 -20.788  0.00  0.00    +0.068 C 
ATOM     35  C   UNL     1      34.117 -20.227 -20.929  0.00  0.00    +0.016 C 
ATOM     36  C   UNL     1      33.453 -21.189 -20.176  0.00  0.00    +0.014 C 
ATOM     37  C   UNL     1      35.548 -21.833 -19.249  0.00  0.00    +0.110 C 
ATOM     38  C   UNL     1      34.175 -22.012 -19.318  0.00  0.00    +0.077 C 
ENDBRANCH  31  34
ENDBRANCH  29  31
ENDBRANCH  25  28
ENDBRANCH   2  22
TORSDOF 8
ENDMDL
MODEL 6
REMARK VINA RESULT:     -11.1      2.203      3.640
REMARK  Name = 66571548
REMARK  8 active torsions:
REMARK  status: ('A' for Active; 'I' for Inactive)
REMARK    1  A    between atoms: C_2  and  C_10
REMARK    2  A    between atoms: C_2  and  C_22
REMARK    3  A    between atoms: N_3  and  C_15
REMARK    4  A    between atoms: C_15  and  C_18
REMARK    5  A    between atoms: C_18  and  O_19
REMARK    6  A    between atoms: C_25  and  N_28
REMARK    7  A    between atoms: C_29  and  C_31
REMARK    8  A    between atoms: C_31  and  C_34
REMARK                            x       y       z     vdW  Elec       q    Type
REMARK                         _______ _______ _______ _____ _____    ______ ____
ROOT
ATOM      1  O   UNL     1      37.539 -21.094 -17.052  0.00  0.00    -0.286 OA
ATOM      2  C   UNL     1      36.611 -21.919 -17.196  0.00  0.00    +0.199 C 
ENDROOT
BRANCH   2  10
ATOM      3  N   UNL     1      36.830 -24.657 -14.856  0.00  0.00    -0.261 N 
ATOM      4  N   UNL     1      34.616 -25.111 -14.015  0.00  0.00    -0.322 NA
ATOM      5  N   UNL     1      32.922 -23.640 -14.961  0.00  0.00    -0.170 NA
ATOM      6  N   UNL     1      32.367 -25.298 -13.404  0.00  0.00    -0.293 N 
ATOM      7  C   UNL     1      35.482 -24.428 -14.785  0.00  0.00    +0.201 C 
ATOM      8  C   UNL     1      37.399 -23.774 -15.737  0.00  0.00    +0.071 C 
ATOM      9  C   UNL     1      35.181 -23.376 -15.642  0.00  0.00    +0.069 C 
ATOM     10  C   UNL     1      36.399 -22.968 -16.240  0.00  0.00    +0.059 C 
ATOM     11  C   UNL     1      33.842 -22.991 -15.711  0.00  0.00    +0.116 C 
ATOM     12  C   UNL     1      33.361 -24.646 -14.170  0.00  0.00    +0.143 C 
ATOM     13  H   UNL     1      32.616 -26.039 -12.806  0.00  0.00    +0.155 HD
ATOM     14  H   UNL     1      31.428 -25.010 -13.467  0.00  0.00    +0.155 HD
BRANCH   3  15
ATOM     15  C   UNL     1      37.602 -25.736 -14.072  0.00  0.00    +0.091 C 
ATOM     16  C   UNL     1      37.156 -27.181 -14.405  0.00  0.00    +0.023 C 
ATOM     17  C   UNL     1      39.105 -25.637 -14.425  0.00  0.00    +0.023 C 
BRANCH  15  18
ATOM     18  C   UNL     1      37.435 -25.517 -12.547  0.00  0.00    +0.155 C 
BRANCH  18  19
ATOM     19  O   UNL     1      36.534 -26.473 -11.997  0.00  0.00    -0.380 OA
ATOM     20  H   UNL     1      36.188 -27.037 -12.707  0.00  0.00    +0.211 HD
ENDBRANCH  18  19
ENDBRANCH  15  18
ENDBRANCH   3  15
ENDBRANCH   2  10
BRANCH   2  22
ATOM     21  N   UNL     1      33.737 -22.302 -19.628  0.00  0.00    -0.241 NA
ATOM     22  C   UNL     1      35.752 -21.736 -18.418  0.00  0.00    +0.059 C 
ATOM     23  C   UNL     1      36.136 -20.879 -19.444  0.00  0.00    +0.021 C 
ATOM     24  C   UNL     1      34.555 -22.419 -18.558  0.00  0.00    +0.102 C 
ATOM     25  C   UNL     1      35.322 -20.732 -20.561  0.00  0.00    +0.070 C 
ATOM     26  C   UNL     1      34.143 -21.459 -20.605  0.00  0.00    +0.113 C 
BRANCH  25  28
ATOM     27  O   UNL     1      33.642 -19.474 -22.709  0.00  0.00    -0.274 OA
ATOM     28  N   UNL     1      35.680 -19.882 -21.604  0.00  0.00    -0.282 N 
ATOM     29  C   UNL     1      34.853 -19.315 -22.590  0.00  0.00    +0.232 C 
ATOM     30  H   UNL     1      36.634 -19.648 -21.658  0.00  0.00    +0.155 HD
BRANCH  29  31
ATOM     31  C   UNL     1      35.654 -18.441 -23.543  0.00  0.00    +0.131 C 
BRANCH  31  34
ATOM     32 CL   UNL     1      33.132 -13.178 -24.694  0.00  0.00    -0.081 Cl
ATOM     33  N   UNL     1      34.567 -16.876 -25.056  0.00  0.00    -0.247 NA
ATOM     34  C   UNL     1      35.021 -17.099 -23.802  0.00  0.00    +0.068 C 
ATOM     35  C   UNL     1      34.935 -16.178 -22.771  0.00  0.00    +0.016 C 
ATOM     36  C   UNL     1      34.345 -14.949 -23.044  0.00  0.00    +0.014 C 
ATOM     37  C   UNL     1      33.999 -15.671 -25.284  0.00  0.00    +0.110 C 
ATOM     38  C   UNL     1      33.866 -14.682 -24.321  0.00  0.00    +0.077 C 
ENDBRANCH  31  34
ENDBRANCH  29  31
ENDBRANCH  25  28
ENDBRANCH   2  22
TORSDOF 8
ENDMDL
MODEL 7
REMARK VINA RESULT:     -10.7      5.608     13.111
REMARK  Name = 66571548
REMARK  8 active torsions:
REMARK  status: ('A' for Active; 'I' for Inactive)
REMARK    1  A    between atoms: C_2  and  C_10
REMARK    2  A    between atoms: C_2  and  C_22
REMARK    3  A    between atoms: N_3  and  C_15
REMARK    4  A    between atoms: C_15  and  C_18
REMARK    5  A    between atoms: C_18  and  O_19
REMARK    6  A    between atoms: C_25  and  N_28
REMARK    7  A    between atoms: C_29  and  C_31
REMARK    8  A    between atoms: C_31  and  C_34
REMARK                            x       y       z     vdW  Elec       q    Type
REMARK                         _______ _______ _______ _____ _____    ______ ____
ROOT
ATOM      1  O   UNL     1      33.713 -12.637 -25.314  0.00  0.00    -0.286 OA
ATOM      2  C   UNL     1      33.532 -12.145 -24.179  0.00  0.00    +0.199 C 
ENDROOT
BRANCH   2  10
ATOM      3  N   UNL     1      32.773  -8.767 -23.163  0.00  0.00    -0.261 N 
ATOM      4  N   UNL     1      34.021  -7.257 -24.568  0.00  0.00    -0.322 NA
ATOM      5  N   UNL     1      35.390  -8.409 -26.220  0.00  0.00    -0.170 NA
ATOM      6  N   UNL     1      35.351  -6.073 -26.084  0.00  0.00    -0.293 N 
ATOM      7  C   UNL     1      33.648  -8.488 -24.179  0.00  0.00    +0.201 C 
ATOM      8  C   UNL     1      32.628 -10.125 -23.042  0.00  0.00    +0.071 C 
ATOM      9  C   UNL     1      34.071  -9.695 -24.721  0.00  0.00    +0.069 C 
ATOM     10  C   UNL     1      33.422 -10.726 -23.997  0.00  0.00    +0.059 C 
ATOM     11  C   UNL     1      34.975  -9.621 -25.781  0.00  0.00    +0.116 C 
ATOM     12  C   UNL     1      34.893  -7.318 -25.594  0.00  0.00    +0.143 C 
ATOM     13  H   UNL     1      35.031  -5.236 -25.676  0.00  0.00    +0.155 HD
ATOM     14  H   UNL     1      35.989  -6.043 -26.832  0.00  0.00    +0.155 HD
BRANCH   3  15
ATOM     15  C   UNL     1      32.054  -7.725 -22.284  0.00  0.00    +0.091 C 
ATOM     16  C   UNL     1      32.913  -6.475 -21.976  0.00  0.00    +0.023 C 
ATOM     17  C   UNL     1      30.788  -7.231 -23.021  0.00  0.00    +0.023 C 
BRANCH  15  18
ATOM     18  C   UNL     1      31.627  -8.361 -20.936  0.00  0.00    +0.155 C 
BRANCH  18  19
ATOM     19  O   UNL     1      32.636  -8.176 -19.950  0.00  0.00    -0.380 OA
ATOM     20  H   UNL     1      33.510  -8.231 -20.367  0.00  0.00    +0.211 HD
ENDBRANCH  18  19
ENDBRANCH  15  18
ENDBRANCH   3  15
ENDBRANCH   2  10
BRANCH   2  22
ATOM     21  N   UNL     1      32.389 -13.795 -20.971  0.00  0.00    -0.241 NA
ATOM     22  C   UNL     1      33.440 -13.128 -23.044  0.00  0.00    +0.059 C 
ATOM     23  C   UNL     1      34.273 -14.240 -22.988  0.00  0.00    +0.021 C 
ATOM     24  C   UNL     1      32.524 -12.952 -22.020  0.00  0.00    +0.102 C 
ATOM     25  C   UNL     1      34.165 -15.130 -21.924  0.00  0.00    +0.070 C 
ATOM     26  C   UNL     1      33.216 -14.865 -20.951  0.00  0.00    +0.113 C 
BRANCH  25  28
ATOM     27  O   UNL     1      34.515 -17.428 -23.825  0.00  0.00    -0.274 OA
ATOM     28  N   UNL     1      34.986 -16.252 -21.841  0.00  0.00    -0.282 N 
ATOM     29  C   UNL     1      35.117 -17.307 -22.762  0.00  0.00    +0.232 C 
ATOM     30  H   UNL     1      35.546 -16.314 -21.035  0.00  0.00    +0.155 HD
BRANCH  29  31
ATOM     31  C   UNL     1      36.129 -18.334 -22.280  0.00  0.00    +0.131 C 
BRANCH  31  34
ATOM     32 CL   UNL     1      33.864 -22.638 -18.855  0.00  0.00    -0.081 Cl
ATOM     33  N   UNL     1      36.380 -20.135 -20.664  0.00  0.00    -0.247 NA
ATOM     34  C   UNL     1      35.525 -19.416 -21.424  0.00  0.00    +0.068 C 
ATOM     35  C   UNL     1      34.155 -19.621 -21.455  0.00  0.00    +0.016 C 
ATOM     36  C   UNL     1      33.629 -20.628 -20.653  0.00  0.00    +0.014 C 
ATOM     37  C   UNL     1      35.833 -21.105 -19.897  0.00  0.00    +0.110 C 
ATOM     38  C   UNL     1      34.477 -21.389 -19.857  0.00  0.00    +0.077 C 
ENDBRANCH  31  34
ENDBRANCH  29  31
ENDBRANCH  25  28
ENDBRANCH   2  22
TORSDOF 8
ENDMDL
MODEL 8
REMARK VINA RESULT:     -10.5      1.693      3.213
REMARK  Name = 66571548
REMARK  8 active torsions:
REMARK  status: ('A' for Active; 'I' for Inactive)
REMARK    1  A    between atoms: C_2  and  C_10
REMARK    2  A    between atoms: C_2  and  C_22
REMARK    3  A    between atoms: N_3  and  C_15
REMARK    4  A    between atoms: C_15  and  C_18
REMARK    5  A    between atoms: C_18  and  O_19
REMARK    6  A    between atoms: C_25  and  N_28
REMARK    7  A    between atoms: C_29  and  C_31
REMARK    8  A    between atoms: C_31  and  C_34
REMARK                            x       y       z     vdW  Elec       q    Type
REMARK                         _______ _______ _______ _____ _____    ______ ____
ROOT
ATOM      1  O   UNL     1      36.737 -22.322 -19.072  0.00  0.00    -0.286 OA
ATOM      2  C   UNL     1      35.558 -22.181 -18.680  0.00  0.00    +0.199 C 
ENDROOT
BRANCH   2  10
ATOM      3  N   UNL     1      35.206 -23.532 -15.352  0.00  0.00    -0.261 N 
ATOM      4  N   UNL     1      32.874 -24.021 -14.979  0.00  0.00    -0.322 NA
ATOM      5  N   UNL     1      31.473 -23.483 -16.896  0.00  0.00    -0.170 NA
ATOM      6  N   UNL     1      30.564 -24.381 -14.934  0.00  0.00    -0.293 N 
ATOM      7  C   UNL     1      33.892 -23.576 -15.736  0.00  0.00    +0.201 C 
ATOM      8  C   UNL     1      35.964 -23.020 -16.373  0.00  0.00    +0.071 C 
ATOM      9  C   UNL     1      33.809 -23.083 -17.033  0.00  0.00    +0.069 C 
ATOM     10  C   UNL     1      35.124 -22.733 -17.429  0.00  0.00    +0.059 C 
ATOM     11  C   UNL     1      32.539 -23.048 -17.608  0.00  0.00    +0.116 C 
ATOM     12  C   UNL     1      31.704 -23.936 -15.643  0.00  0.00    +0.143 C 
ATOM     13  H   UNL     1      30.659 -24.724 -14.016  0.00  0.00    +0.155 HD
ATOM     14  H   UNL     1      29.677 -24.347 -15.358  0.00  0.00    +0.155 HD
BRANCH   3  15
ATOM     15  C   UNL     1      35.760 -23.984 -13.987  0.00  0.00    +0.091 C 
ATOM     16  C   UNL     1      36.186 -25.472 -13.954  0.00  0.00    +0.023 C 
ATOM     17  C   UNL     1      37.017 -23.149 -13.651  0.00  0.00    +0.023 C 
BRANCH  15  18
ATOM     18  C   UNL     1      34.703 -23.759 -12.876  0.00  0.00    +0.155 C 
BRANCH  18  19
ATOM     19  O   UNL     1      34.153 -25.000 -12.446  0.00  0.00    -0.380 OA
ATOM     20  H   UNL     1      34.687 -25.355 -11.717  0.00  0.00    +0.211 HD
ENDBRANCH  18  19
ENDBRANCH  15  18
ENDBRANCH   3  15
ENDBRANCH   2  10
BRANCH   2  22
ATOM     21  N   UNL     1      32.414 -21.005 -20.427  0.00  0.00    -0.241 NA
ATOM     22  C   UNL     1      34.648 -21.408 -19.595  0.00  0.00    +0.059 C 
ATOM     23  C   UNL     1      35.148 -20.419 -20.436  0.00  0.00    +0.021 C 
ATOM     24  C   UNL     1      33.286 -21.661 -19.629  0.00  0.00    +0.102 C 
ATOM     25  C   UNL     1      34.281 -19.722 -21.272  0.00  0.00    +0.070 C 
ATOM     26  C   UNL     1      32.936 -20.050 -21.230  0.00  0.00    +0.113 C 
BRANCH  25  28
ATOM     27  O   UNL     1      33.767 -19.264 -24.195  0.00  0.00    -0.274 OA
ATOM     28  N   UNL     1      34.753 -18.727 -22.126  0.00  0.00    -0.282 N 
ATOM     29  C   UNL     1      34.482 -18.553 -23.494  0.00  0.00    +0.232 C 
ATOM     30  H   UNL     1      35.352 -18.062 -21.718  0.00  0.00    +0.155 HD
BRANCH  29  31
ATOM     31  C   UNL     1      35.203 -17.333 -24.046  0.00  0.00    +0.131 C 
BRANCH  31  34
ATOM     32 CL   UNL     1      32.470 -12.211 -22.746  0.00  0.00    -0.081 Cl
ATOM     33  N   UNL     1      34.638 -15.544 -22.496  0.00  0.00    -0.247 NA
ATOM     34  C   UNL     1      34.499 -16.035 -23.748  0.00  0.00    +0.068 C 
ATOM     35  C   UNL     1      33.760 -15.419 -24.745  0.00  0.00    +0.016 C 
ATOM     36  C   UNL     1      33.123 -14.222 -24.438  0.00  0.00    +0.014 C 
ATOM     37  C   UNL     1      34.004 -14.379 -22.234  0.00  0.00    +0.110 C 
ATOM     38  C   UNL     1      33.241 -13.685 -23.160  0.00  0.00    +0.077 C 
ENDBRANCH  31  34
ENDBRANCH  29  31
ENDBRANCH  25  28
ENDBRANCH   2  22
TORSDOF 8
ENDMDL
MODEL 9
REMARK VINA RESULT:      -9.8      5.129      7.767
REMARK  Name = 66571548
REMARK  8 active torsions:
REMARK  status: ('A' for Active; 'I' for Inactive)
REMARK    1  A    between atoms: C_2  and  C_10
REMARK    2  A    between atoms: C_2  and  C_22
REMARK    3  A    between atoms: N_3  and  C_15
REMARK    4  A    between atoms: C_15  and  C_18
REMARK    5  A    between atoms: C_18  and  O_19
REMARK    6  A    between atoms: C_25  and  N_28
REMARK    7  A    between atoms: C_29  and  C_31
REMARK    8  A    between atoms: C_31  and  C_34
REMARK                            x       y       z     vdW  Elec       q    Type
REMARK                         _______ _______ _______ _____ _____    ______ ____
ROOT
ATOM      1  O   UNL     1      37.541 -21.585 -17.163  0.00  0.00    -0.286 OA
ATOM      2  C   UNL     1      36.730 -22.419 -16.707  0.00  0.00    +0.199 C 
ENDROOT
BRANCH   2  10
ATOM      3  N   UNL     1      36.936 -24.123 -13.532  0.00  0.00    -0.261 N 
ATOM      4  N   UNL     1      38.874 -25.559 -13.571  0.00  0.00    -0.322 NA
ATOM      5  N   UNL     1      40.097 -25.447 -15.673  0.00  0.00    -0.170 NA
ATOM      6  N   UNL     1      40.803 -26.832 -13.923  0.00  0.00    -0.293 N 
ATOM      7  C   UNL     1      38.044 -24.662 -14.131  0.00  0.00    +0.201 C 
ATOM      8  C   UNL     1      36.329 -23.249 -14.395  0.00  0.00    +0.071 C 
ATOM      9  C   UNL     1      38.148 -24.117 -15.406  0.00  0.00    +0.069 C 
ATOM     10  C   UNL     1      37.059 -23.224 -15.565  0.00  0.00    +0.059 C 
ATOM     11  C   UNL     1      39.226 -24.544 -16.181  0.00  0.00    +0.116 C 
ATOM     12  C   UNL     1      39.869 -25.892 -14.416  0.00  0.00    +0.143 C 
ATOM     13  H   UNL     1      40.699 -27.199 -13.016  0.00  0.00    +0.155 HD
ATOM     14  H   UNL     1      41.556 -27.121 -14.488  0.00  0.00    +0.155 HD
BRANCH   3  15
ATOM     15  C   UNL     1      36.439 -24.442 -12.109  0.00  0.00    +0.091 C 
ATOM     16  C   UNL     1      36.627 -25.925 -11.704  0.00  0.00    +0.023 C 
ATOM     17  C   UNL     1      37.239 -23.594 -11.094  0.00  0.00    +0.023 C 
BRANCH  15  18
ATOM     18  C   UNL     1      34.936 -24.091 -11.973  0.00  0.00    +0.155 C 
BRANCH  18  19
ATOM     19  O   UNL     1      34.128 -25.094 -12.581  0.00  0.00    -0.380 OA
ATOM     20  H   UNL     1      34.673 -25.631 -13.178  0.00  0.00    +0.211 HD
ENDBRANCH  18  19
ENDBRANCH  15  18
ENDBRANCH   3  15
ENDBRANCH   2  10
BRANCH   2  22
ATOM     21  N   UNL     1      34.102 -22.059 -19.406  0.00  0.00    -0.241 NA
ATOM     22  C   UNL     1      35.412 -22.516 -17.426  0.00  0.00    +0.059 C 
ATOM     23  C   UNL     1      34.310 -23.118 -16.827  0.00  0.00    +0.021 C 
ATOM     24  C   UNL     1      35.257 -22.006 -18.705  0.00  0.00    +0.102 C 
ATOM     25  C   UNL     1      33.104 -23.191 -17.517  0.00  0.00    +0.070 C 
ATOM     26  C   UNL     1      33.053 -22.652 -18.793  0.00  0.00    +0.113 C 
BRANCH  25  28
ATOM     27  O   UNL     1      32.518 -23.874 -14.653  0.00  0.00    -0.274 OA
ATOM     28  N   UNL     1      31.984 -23.788 -16.944  0.00  0.00    -0.282 N 
ATOM     29  C   UNL     1      31.754 -24.088 -15.590  0.00  0.00    +0.232 C 
ATOM     30  H   UNL     1      31.262 -24.030 -17.566  0.00  0.00    +0.155 HD
BRANCH  29  31
ATOM     31  C   UNL     1      30.394 -24.740 -15.395  0.00  0.00    +0.131 C 
BRANCH  31  34
ATOM     32 CL   UNL     1      25.883 -21.616 -17.692  0.00  0.00    -0.081 Cl
ATOM     33  N   UNL     1      28.691 -24.376 -17.095  0.00  0.00    -0.247 NA
ATOM     34  C   UNL     1      29.254 -23.927 -15.951  0.00  0.00    +0.068 C 
ATOM     35  C   UNL     1      28.845 -22.784 -15.282  0.00  0.00    +0.016 C 
ATOM     36  C   UNL     1      27.790 -22.056 -15.822  0.00  0.00    +0.014 C 
ATOM     37  C   UNL     1      27.669 -23.644 -17.590  0.00  0.00    +0.110 C 
ATOM     38  C   UNL     1      27.186 -22.487 -16.998  0.00  0.00    +0.077 C 
ENDBRANCH  31  34
ENDBRANCH  29  31
ENDBRANCH  25  28
ENDBRANCH   2  22
TORSDOF 8
ENDMDL
