MODEL 1
REMARK VINA RESULT:     -11.7      0.000      0.000
REMARK  Name = 66000
REMARK  8 active torsions:
REMARK  status: ('A' for Active; 'I' for Inactive)
REMARK    1  A    between atoms: C_1  and  O_19
REMARK    2  A    between atoms: C_4  and  C_7
REMARK    3  A    between atoms: C_10  and  C_15
REMARK    4  A    between atoms: O_19  and  C_20
REMARK    5  A    between atoms: C_20  and  C_24
REMARK    6  A    between atoms: C_23  and  C_28
REMARK    7  A    between atoms: C_28  and  C_30
REMARK    8  A    between atoms: C_30  and  O_31
REMARK                            x       y       z     vdW  Elec       q    Type
REMARK                         _______ _______ _______ _____ _____    ______ ____
ROOT
ATOM      1  C   UNL     1      34.696 -22.984 -17.665  0.00  0.00    +0.139 C 
ATOM      2  C   UNL     1      35.884 -22.326 -17.962  0.00  0.00    +0.037 C 
ATOM      3  C   UNL     1      33.551 -22.761 -18.419  0.00  0.00    +0.037 C 
ATOM      4  C   UNL     1      34.780 -21.199 -19.792  0.00  0.00    +0.000 C 
ATOM      5  C   UNL     1      35.925 -21.430 -19.030  0.00  0.00    +0.003 C 
ATOM      6  C   UNL     1      33.593 -21.864 -19.486  0.00  0.00    +0.003 C 
ENDROOT
BRANCH   4   7
ATOM      7  C   UNL     1      34.823 -20.268 -20.899  0.00  0.00    +0.000 C 
ATOM      8  C   UNL     1      33.718 -20.134 -21.740  0.00  0.00    +0.000 C 
ATOM      9  C   UNL     1      35.968 -19.505 -21.126  0.00  0.00    +0.000 C 
ATOM     10  C   UNL     1      34.903 -18.473 -23.032  0.00  0.00    +0.031 C 
ATOM     11  C   UNL     1      33.758 -19.235 -22.807  0.00  0.00    +0.003 C 
ATOM     12  C   UNL     1      36.009 -18.607 -22.193  0.00  0.00    +0.003 C 
BRANCH  10  15
ATOM     13  N   UNL     1      35.596 -16.309 -24.038  0.00  0.00    -0.343 N 
ATOM     14  N   UNL     1      34.354 -17.845 -25.287  0.00  0.00    -0.285 NA
ATOM     15  C   UNL     1      34.946 -17.537 -24.145  0.00  0.00    +0.117 C 
ATOM     16  H   UNL     1      35.611 -15.691 -24.803  0.00  0.00    +0.144 HD
ATOM     17  H   UNL     1      36.039 -16.060 -23.195  0.00  0.00    +0.144 HD
ATOM     18  H   UNL     1      34.381 -17.213 -26.041  0.00  0.00    +0.188 HD
ENDBRANCH  10  15
ENDBRANCH   4   7
BRANCH   1  19
ATOM     19  O   UNL     1      34.656 -23.866 -16.613  0.00  0.00    -0.474 OA
BRANCH  19  20
ATOM     20  C   UNL     1      34.946 -23.347 -15.328  0.00  0.00    +0.225 C 
BRANCH  20  24
ATOM     21  O   UNL     1      36.687 -27.323 -15.987  0.00  0.00    -0.275 OA
ATOM     22  N   UNL     1      35.184 -25.772 -15.085  0.00  0.00    -0.302 N 
ATOM     23  C   UNL     1      37.464 -25.279 -14.894  0.00  0.00    +0.089 C 
ATOM     24  C   UNL     1      35.241 -24.509 -14.389  0.00  0.00    +0.116 C 
ATOM     25  C   UNL     1      36.667 -24.490 -13.849  0.00  0.00    +0.033 C 
ATOM     26  C   UNL     1      36.442 -26.283 -15.394  0.00  0.00    +0.223 C 
ATOM     27  H   UNL     1      34.342 -26.225 -15.317  0.00  0.00    +0.149 HD
BRANCH  23  28
ATOM     28  C   UNL     1      38.708 -25.936 -14.327  0.00  0.00    +0.118 C 
BRANCH  28  30
ATOM     29  O   UNL     1      40.753 -24.632 -14.566  0.00  0.00    -0.250 OA
ATOM     30  C   UNL     1      39.964 -25.453 -15.007  0.00  0.00    +0.314 C 
BRANCH  30  31
ATOM     31  O   UNL     1      40.110 -26.069 -16.209  0.00  0.00    -0.480 OA
ATOM     32  H   UNL     1      40.966 -26.237 -16.549  0.00  0.00    +0.295 HD
ENDBRANCH  30  31
ENDBRANCH  28  30
ENDBRANCH  23  28
ENDBRANCH  20  24
ENDBRANCH  19  20
ENDBRANCH   1  19
TORSDOF 8
ENDMDL
MODEL 2
REMARK VINA RESULT:     -11.6      1.582      2.598
REMARK  Name = 66000
REMARK  8 active torsions:
REMARK  status: ('A' for Active; 'I' for Inactive)
REMARK    1  A    between atoms: C_1  and  O_19
REMARK    2  A    between atoms: C_4  and  C_7
REMARK    3  A    between atoms: C_10  and  C_15
REMARK    4  A    between atoms: O_19  and  C_20
REMARK    5  A    between atoms: C_20  and  C_24
REMARK    6  A    between atoms: C_23  and  C_28
REMARK    7  A    between atoms: C_28  and  C_30
REMARK    8  A    between atoms: C_30  and  O_31
REMARK                            x       y       z     vdW  Elec       q    Type
REMARK                         _______ _______ _______ _____ _____    ______ ____
ROOT
ATOM      1  C   UNL     1      34.212 -22.542 -18.886  0.00  0.00    +0.139 C 
ATOM      2  C   UNL     1      33.059 -21.942 -19.377  0.00  0.00    +0.037 C 
ATOM      3  C   UNL     1      35.468 -22.093 -19.273  0.00  0.00    +0.037 C 
ATOM      4  C   UNL     1      34.421 -20.418 -20.664  0.00  0.00    +0.000 C 
ATOM      5  C   UNL     1      33.164 -20.876 -20.270  0.00  0.00    +0.003 C 
ATOM      6  C   UNL     1      35.574 -21.027 -20.167  0.00  0.00    +0.003 C 
ENDROOT
BRANCH   4   7
ATOM      7  C   UNL     1      34.531 -19.313 -21.591  0.00  0.00    +0.000 C 
ATOM      8  C   UNL     1      35.021 -18.082 -21.154  0.00  0.00    +0.000 C 
ATOM      9  C   UNL     1      34.149 -19.478 -22.923  0.00  0.00    +0.000 C 
ATOM     10  C   UNL     1      34.746 -17.182 -23.379  0.00  0.00    +0.031 C 
ATOM     11  C   UNL     1      35.128 -17.016 -22.048  0.00  0.00    +0.003 C 
ATOM     12  C   UNL     1      34.256 -18.412 -23.817  0.00  0.00    +0.003 C 
BRANCH  10  15
ATOM     13  N   UNL     1      34.622 -14.757 -23.906  0.00  0.00    -0.343 N 
ATOM     14  N   UNL     1      35.182 -16.298 -25.571  0.00  0.00    -0.285 NA
ATOM     15  C   UNL     1      34.857 -16.070 -24.311  0.00  0.00    +0.117 C 
ATOM     16  H   UNL     1      34.702 -14.021 -24.554  0.00  0.00    +0.144 HD
ATOM     17  H   UNL     1      34.375 -14.568 -22.972  0.00  0.00    +0.144 HD
ATOM     18  H   UNL     1      35.258 -15.548 -26.204  0.00  0.00    +0.188 HD
ENDBRANCH  10  15
ENDBRANCH   4   7
BRANCH   1  19
ATOM     19  O   UNL     1      34.108 -23.592 -18.007  0.00  0.00    -0.474 OA
BRANCH  19  20
ATOM     20  C   UNL     1      33.485 -23.329 -16.763  0.00  0.00    +0.225 C 
BRANCH  20  24
ATOM     21  O   UNL     1      34.206 -24.713 -12.659  0.00  0.00    -0.275 OA
ATOM     22  N   UNL     1      34.067 -23.145 -14.392  0.00  0.00    -0.302 N 
ATOM     23  C   UNL     1      35.318 -25.079 -14.804  0.00  0.00    +0.089 C 
ATOM     24  C   UNL     1      34.562 -22.995 -15.739  0.00  0.00    +0.116 C 
ATOM     25  C   UNL     1      35.736 -23.967 -15.773  0.00  0.00    +0.033 C 
ATOM     26  C   UNL     1      34.484 -24.327 -13.785  0.00  0.00    +0.223 C 
ATOM     27  H   UNL     1      33.494 -22.480 -13.947  0.00  0.00    +0.149 HD
BRANCH  23  28
ATOM     28  C   UNL     1      36.497 -25.804 -14.183  0.00  0.00    +0.118 C 
BRANCH  28  30
ATOM     29  O   UNL     1      36.564 -27.326 -16.084  0.00  0.00    -0.250 OA
ATOM     30  C   UNL     1      37.117 -26.796 -15.134  0.00  0.00    +0.314 C 
BRANCH  30  31
ATOM     31  O   UNL     1      38.409 -27.029 -14.786  0.00  0.00    -0.480 OA
ATOM     32  H   UNL     1      38.629 -27.215 -13.895  0.00  0.00    +0.295 HD
ENDBRANCH  30  31
ENDBRANCH  28  30
ENDBRANCH  23  28
ENDBRANCH  20  24
ENDBRANCH  19  20
ENDBRANCH   1  19
TORSDOF 8
ENDMDL
MODEL 3
REMARK VINA RESULT:     -11.2      2.106      3.019
REMARK  Name = 66000
REMARK  8 active torsions:
REMARK  status: ('A' for Active; 'I' for Inactive)
REMARK    1  A    between atoms: C_1  and  O_19
REMARK    2  A    between atoms: C_4  and  C_7
REMARK    3  A    between atoms: C_10  and  C_15
REMARK    4  A    between atoms: O_19  and  C_20
REMARK    5  A    between atoms: C_20  and  C_24
REMARK    6  A    between atoms: C_23  and  C_28
REMARK    7  A    between atoms: C_28  and  C_30
REMARK    8  A    between atoms: C_30  and  O_31
REMARK                            x       y       z     vdW  Elec       q    Type
REMARK                         _______ _______ _______ _____ _____    ______ ____
ROOT
ATOM      1  C   UNL     1      34.253 -22.507 -18.528  0.00  0.00    +0.139 C 
ATOM      2  C   UNL     1      33.077 -22.016 -19.082  0.00  0.00    +0.037 C 
ATOM      3  C   UNL     1      35.490 -22.051 -18.964  0.00  0.00    +0.037 C 
ATOM      4  C   UNL     1      34.377 -20.591 -20.535  0.00  0.00    +0.000 C 
ATOM      5  C   UNL     1      33.140 -21.054 -20.089  0.00  0.00    +0.003 C 
ATOM      6  C   UNL     1      35.553 -21.089 -19.973  0.00  0.00    +0.003 C 
ENDROOT
BRANCH   4   7
ATOM      7  C   UNL     1      34.443 -19.593 -21.581  0.00  0.00    +0.000 C 
ATOM      8  C   UNL     1      35.072 -18.371 -21.341  0.00  0.00    +0.000 C 
ATOM      9  C   UNL     1      33.879 -19.853 -22.830  0.00  0.00    +0.000 C 
ATOM     10  C   UNL     1      34.572 -17.670 -23.598  0.00  0.00    +0.031 C 
ATOM     11  C   UNL     1      35.137 -17.409 -22.350  0.00  0.00    +0.003 C 
ATOM     12  C   UNL     1      33.943 -18.891 -23.839  0.00  0.00    +0.003 C 
BRANCH  10  15
ATOM     13  N   UNL     1      35.670 -15.731 -24.695  0.00  0.00    -0.343 N 
ATOM     14  N   UNL     1      33.706 -16.631 -25.584  0.00  0.00    -0.285 NA
ATOM     15  C   UNL     1      34.639 -16.667 -24.650  0.00  0.00    +0.117 C 
ATOM     16  H   UNL     1      35.695 -15.061 -25.415  0.00  0.00    +0.144 HD
ATOM     17  H   UNL     1      36.373 -15.740 -24.006  0.00  0.00    +0.144 HD
ATOM     18  H   UNL     1      33.748 -15.953 -26.297  0.00  0.00    +0.188 HD
ENDBRANCH  10  15
ENDBRANCH   4   7
BRANCH   1  19
ATOM     19  O   UNL     1      34.191 -23.455 -17.536  0.00  0.00    -0.474 OA
BRANCH  19  20
ATOM     20  C   UNL     1      34.908 -23.186 -16.344  0.00  0.00    +0.225 C 
BRANCH  20  24
ATOM     21  O   UNL     1      38.345 -24.003 -13.739  0.00  0.00    -0.275 OA
ATOM     22  N   UNL     1      36.950 -24.308 -15.594  0.00  0.00    -0.302 N 
ATOM     23  C   UNL     1      35.924 -24.230 -13.492  0.00  0.00    +0.089 C 
ATOM     24  C   UNL     1      35.542 -24.481 -15.854  0.00  0.00    +0.116 C 
ATOM     25  C   UNL     1      35.005 -24.930 -14.499  0.00  0.00    +0.033 C 
ATOM     26  C   UNL     1      37.243 -24.173 -14.239  0.00  0.00    +0.223 C 
ATOM     27  H   UNL     1      37.634 -24.287 -16.301  0.00  0.00    +0.149 HD
BRANCH  23  28
ATOM     28  C   UNL     1      36.028 -24.963 -12.168  0.00  0.00    +0.118 C 
BRANCH  28  30
ATOM     29  O   UNL     1      36.836 -23.024 -10.933  0.00  0.00    -0.250 OA
ATOM     30  C   UNL     1      36.124 -24.013 -11.001  0.00  0.00    +0.314 C 
BRANCH  30  31
ATOM     31  O   UNL     1      35.289 -24.412 -10.006  0.00  0.00    -0.480 OA
ATOM     32  H   UNL     1      34.477 -23.965  -9.868  0.00  0.00    +0.295 HD
ENDBRANCH  30  31
ENDBRANCH  28  30
ENDBRANCH  23  28
ENDBRANCH  20  24
ENDBRANCH  19  20
ENDBRANCH   1  19
TORSDOF 8
ENDMDL
MODEL 4
REMARK VINA RESULT:     -11.1      3.288      5.385
REMARK  Name = 66000
REMARK  8 active torsions:
REMARK  status: ('A' for Active; 'I' for Inactive)
REMARK    1  A    between atoms: C_1  and  O_19
REMARK    2  A    between atoms: C_4  and  C_7
REMARK    3  A    between atoms: C_10  and  C_15
REMARK    4  A    between atoms: O_19  and  C_20
REMARK    5  A    between atoms: C_20  and  C_24
REMARK    6  A    between atoms: C_23  and  C_28
REMARK    7  A    between atoms: C_28  and  C_30
REMARK    8  A    between atoms: C_30  and  O_31
REMARK                            x       y       z     vdW  Elec       q    Type
REMARK                         _______ _______ _______ _____ _____    ______ ____
ROOT
ATOM      1  C   UNL     1      34.457 -22.408 -18.800  0.00  0.00    +0.139 C 
ATOM      2  C   UNL     1      33.256 -21.930 -19.312  0.00  0.00    +0.037 C 
ATOM      3  C   UNL     1      35.672 -21.918 -19.262  0.00  0.00    +0.037 C 
ATOM      4  C   UNL     1      34.487 -20.451 -20.772  0.00  0.00    +0.000 C 
ATOM      5  C   UNL     1      33.272 -20.948 -20.301  0.00  0.00    +0.003 C 
ATOM      6  C   UNL     1      35.687 -20.936 -20.253  0.00  0.00    +0.003 C 
ENDROOT
BRANCH   4   7
ATOM      7  C   UNL     1      34.503 -19.433 -21.800  0.00  0.00    +0.000 C 
ATOM      8  C   UNL     1      35.045 -18.176 -21.528  0.00  0.00    +0.000 C 
ATOM      9  C   UNL     1      33.979 -19.708 -23.063  0.00  0.00    +0.000 C 
ATOM     10  C   UNL     1      34.537 -17.470 -23.782  0.00  0.00    +0.031 C 
ATOM     11  C   UNL     1      35.062 -17.195 -22.520  0.00  0.00    +0.003 C 
ATOM     12  C   UNL     1      33.995 -18.726 -24.054  0.00  0.00    +0.003 C 
BRANCH  10  15
ATOM     13  N   UNL     1      35.610 -15.544 -24.925  0.00  0.00    -0.343 N 
ATOM     14  N   UNL     1      33.551 -16.358 -25.671  0.00  0.00    -0.285 NA
ATOM     15  C   UNL     1      34.554 -16.446 -24.815  0.00  0.00    +0.117 C 
ATOM     16  H   UNL     1      35.600 -14.859 -25.632  0.00  0.00    +0.144 HD
ATOM     17  H   UNL     1      36.365 -15.591 -24.296  0.00  0.00    +0.144 HD
ATOM     18  H   UNL     1      33.560 -15.666 -26.370  0.00  0.00    +0.188 HD
ENDBRANCH  10  15
ENDBRANCH   4   7
BRANCH   1  19
ATOM     19  O   UNL     1      34.442 -23.375 -17.825  0.00  0.00    -0.474 OA
BRANCH  19  20
ATOM     20  C   UNL     1      33.969 -22.991 -16.546  0.00  0.00    +0.225 C 
BRANCH  20  24
ATOM     21  O   UNL     1      31.506 -23.285 -12.924  0.00  0.00    -0.275 OA
ATOM     22  N   UNL     1      32.925 -24.070 -14.612  0.00  0.00    -0.302 N 
ATOM     23  C   UNL     1      31.026 -22.880 -15.286  0.00  0.00    +0.089 C 
ATOM     24  C   UNL     1      32.986 -24.045 -16.054  0.00  0.00    +0.116 C 
ATOM     25  C   UNL     1      31.544 -23.741 -16.444  0.00  0.00    +0.033 C 
ATOM     26  C   UNL     1      31.801 -23.425 -14.102  0.00  0.00    +0.223 C 
ATOM     27  H   UNL     1      33.607 -24.499 -14.048  0.00  0.00    +0.149 HD
BRANCH  23  28
ATOM     28  C   UNL     1      29.524 -22.969 -15.100  0.00  0.00    +0.118 C 
BRANCH  28  30
ATOM     29  O   UNL     1      28.466 -24.441 -16.729  0.00  0.00    -0.250 OA
ATOM     30  C   UNL     1      28.814 -23.323 -16.382  0.00  0.00    +0.314 C 
BRANCH  30  31
ATOM     31  O   UNL     1      28.603 -22.204 -17.122  0.00  0.00    -0.480 OA
ATOM     32  H   UNL     1      28.745 -22.221 -18.048  0.00  0.00    +0.295 HD
ENDBRANCH  30  31
ENDBRANCH  28  30
ENDBRANCH  23  28
ENDBRANCH  20  24
ENDBRANCH  19  20
ENDBRANCH   1  19
TORSDOF 8
ENDMDL
MODEL 5
REMARK VINA RESULT:     -11.0      1.551      2.140
REMARK  Name = 66000
REMARK  8 active torsions:
REMARK  status: ('A' for Active; 'I' for Inactive)
REMARK    1  A    between atoms: C_1  and  O_19
REMARK    2  A    between atoms: C_4  and  C_7
REMARK    3  A    between atoms: C_10  and  C_15
REMARK    4  A    between atoms: O_19  and  C_20
REMARK    5  A    between atoms: C_20  and  C_24
REMARK    6  A    between atoms: C_23  and  C_28
REMARK    7  A    between atoms: C_28  and  C_30
REMARK    8  A    between atoms: C_30  and  O_31
REMARK                            x       y       z     vdW  Elec       q    Type
REMARK                         _______ _______ _______ _____ _____    ______ ____
ROOT
ATOM      1  C   UNL     1      34.967 -22.261 -18.567  0.00  0.00    +0.139 C 
ATOM      2  C   UNL     1      36.129 -21.670 -19.048  0.00  0.00    +0.037 C 
ATOM      3  C   UNL     1      33.728 -21.936 -19.107  0.00  0.00    +0.037 C 
ATOM      4  C   UNL     1      34.813 -20.407 -20.631  0.00  0.00    +0.000 C 
ATOM      5  C   UNL     1      36.052 -20.740 -20.084  0.00  0.00    +0.003 C 
ATOM      6  C   UNL     1      33.651 -21.005 -20.142  0.00  0.00    +0.003 C 
ENDROOT
BRANCH   4   7
ATOM      7  C   UNL     1      34.732 -19.441 -21.705  0.00  0.00    +0.000 C 
ATOM      8  C   UNL     1      35.158 -18.129 -21.497  0.00  0.00    +0.000 C 
ATOM      9  C   UNL     1      34.229 -19.822 -22.950  0.00  0.00    +0.000 C 
ATOM     10  C   UNL     1      34.578 -17.579 -23.777  0.00  0.00    +0.031 C 
ATOM     11  C   UNL     1      35.081 -17.198 -22.533  0.00  0.00    +0.003 C 
ATOM     12  C   UNL     1      34.152 -18.891 -23.986  0.00  0.00    +0.003 C 
BRANCH  10  15
ATOM     13  N   UNL     1      35.519 -15.688 -25.083  0.00  0.00    -0.343 N 
ATOM     14  N   UNL     1      33.436 -16.585 -25.643  0.00  0.00    -0.285 NA
ATOM     15  C   UNL     1      34.498 -16.608 -24.857  0.00  0.00    +0.117 C 
ATOM     16  H   UNL     1      35.443 -15.039 -25.820  0.00  0.00    +0.144 HD
ATOM     17  H   UNL     1      36.316 -15.687 -24.506  0.00  0.00    +0.144 HD
ATOM     18  H   UNL     1      33.378 -15.929 -26.375  0.00  0.00    +0.188 HD
ENDBRANCH  10  15
ENDBRANCH   4   7
BRANCH   1  19
ATOM     19  O   UNL     1      35.043 -23.176 -17.547  0.00  0.00    -0.474 OA
BRANCH  19  20
ATOM     20  C   UNL     1      35.935 -22.883 -16.486  0.00  0.00    +0.225 C 
BRANCH  20  24
ATOM     21  O   UNL     1      36.295 -27.139 -15.471  0.00  0.00    -0.275 OA
ATOM     22  N   UNL     1      35.231 -25.059 -15.610  0.00  0.00    -0.302 N 
ATOM     23  C   UNL     1      37.376 -25.097 -14.674  0.00  0.00    +0.089 C 
ATOM     24  C   UNL     1      35.517 -23.688 -15.262  0.00  0.00    +0.116 C 
ATOM     25  C   UNL     1      36.634 -23.830 -14.234  0.00  0.00    +0.033 C 
ATOM     26  C   UNL     1      36.264 -25.933 -15.280  0.00  0.00    +0.223 C 
ATOM     27  H   UNL     1      34.393 -25.347 -16.037  0.00  0.00    +0.149 HD
BRANCH  23  28
ATOM     28  C   UNL     1      38.087 -25.799 -13.533  0.00  0.00    +0.118 C 
BRANCH  28  30
ATOM     29  O   UNL     1      36.415 -26.335 -11.844  0.00  0.00    -0.250 OA
ATOM     30  C   UNL     1      37.349 -25.649 -12.227  0.00  0.00    +0.314 C 
BRANCH  30  31
ATOM     31  O   UNL     1      37.876 -24.622 -11.510  0.00  0.00    -0.480 OA
ATOM     32  H   UNL     1      38.555 -24.786 -10.886  0.00  0.00    +0.295 HD
ENDBRANCH  30  31
ENDBRANCH  28  30
ENDBRANCH  23  28
ENDBRANCH  20  24
ENDBRANCH  19  20
ENDBRANCH   1  19
TORSDOF 8
ENDMDL
MODEL 6
REMARK VINA RESULT:     -10.8      6.451     12.002
REMARK  Name = 66000
REMARK  8 active torsions:
REMARK  status: ('A' for Active; 'I' for Inactive)
REMARK    1  A    between atoms: C_1  and  O_19
REMARK    2  A    between atoms: C_4  and  C_7
REMARK    3  A    between atoms: C_10  and  C_15
REMARK    4  A    between atoms: O_19  and  C_20
REMARK    5  A    between atoms: C_20  and  C_24
REMARK    6  A    between atoms: C_23  and  C_28
REMARK    7  A    between atoms: C_28  and  C_30
REMARK    8  A    between atoms: C_30  and  O_31
REMARK                            x       y       z     vdW  Elec       q    Type
REMARK                         _______ _______ _______ _____ _____    ______ ____
ROOT
ATOM      1  C   UNL     1      34.597 -17.292 -24.363  0.00  0.00    +0.139 C 
ATOM      2  C   UNL     1      35.129 -16.979 -23.118  0.00  0.00    +0.037 C 
ATOM      3  C   UNL     1      33.984 -18.518 -24.588  0.00  0.00    +0.037 C 
ATOM      4  C   UNL     1      34.436 -19.143 -22.298  0.00  0.00    +0.000 C 
ATOM      5  C   UNL     1      35.048 -17.909 -22.082  0.00  0.00    +0.003 C 
ATOM      6  C   UNL     1      33.905 -19.448 -23.552  0.00  0.00    +0.003 C 
ENDROOT
BRANCH   4   7
ATOM      7  C   UNL     1      34.353 -20.108 -21.224  0.00  0.00    +0.000 C 
ATOM      8  C   UNL     1      33.107 -20.509 -20.741  0.00  0.00    +0.000 C 
ATOM      9  C   UNL     1      35.518 -20.639 -20.670  0.00  0.00    +0.000 C 
ATOM     10  C   UNL     1      34.192 -21.971 -19.153  0.00  0.00    +0.031 C 
ATOM     11  C   UNL     1      33.026 -21.441 -19.706  0.00  0.00    +0.003 C 
ATOM     12  C   UNL     1      35.438 -21.571 -19.635  0.00  0.00    +0.003 C 
BRANCH  10  15
ATOM     13  N   UNL     1      33.017 -23.801 -17.952  0.00  0.00    -0.343 N 
ATOM     14  N   UNL     1      35.078 -23.018 -17.179  0.00  0.00    -0.285 NA
ATOM     15  C   UNL     1      34.108 -22.942 -18.073  0.00  0.00    +0.117 C 
ATOM     16  H   UNL     1      32.980 -24.449 -17.213  0.00  0.00    +0.144 HD
ATOM     17  H   UNL     1      32.282 -23.757 -18.606  0.00  0.00    +0.144 HD
ATOM     18  H   UNL     1      35.023 -23.673 -16.447  0.00  0.00    +0.188 HD
ENDBRANCH  10  15
ENDBRANCH   4   7
BRANCH   1  19
ATOM     19  O   UNL     1      34.677 -16.377 -25.384  0.00  0.00    -0.474 OA
BRANCH  19  20
ATOM     20  C   UNL     1      34.879 -15.023 -25.018  0.00  0.00    +0.225 C 
BRANCH  20  24
ATOM     21  O   UNL     1      32.265 -12.702 -22.361  0.00  0.00    -0.275 OA
ATOM     22  N   UNL     1      32.769 -14.218 -24.072  0.00  0.00    -0.302 N 
ATOM     23  C   UNL     1      33.813 -12.126 -24.163  0.00  0.00    +0.089 C 
ATOM     24  C   UNL     1      33.586 -14.255 -25.261  0.00  0.00    +0.116 C 
ATOM     25  C   UNL     1      33.819 -12.776 -25.551  0.00  0.00    +0.033 C 
ATOM     26  C   UNL     1      32.841 -13.003 -23.396  0.00  0.00    +0.223 C 
ATOM     27  H   UNL     1      32.216 -14.975 -23.771  0.00  0.00    +0.149 HD
BRANCH  23  28
ATOM     28  C   UNL     1      33.397 -10.667 -24.189  0.00  0.00    +0.118 C 
BRANCH  28  30
ATOM     29  O   UNL     1      34.146  -9.279 -26.046  0.00  0.00    -0.250 OA
ATOM     30  C   UNL     1      34.364  -9.816 -24.971  0.00  0.00    +0.314 C 
BRANCH  30  31
ATOM     31  O   UNL     1      35.544  -9.719 -24.306  0.00  0.00    -0.480 OA
ATOM     32  H   UNL     1      35.936  -8.880 -24.165  0.00  0.00    +0.295 HD
ENDBRANCH  30  31
ENDBRANCH  28  30
ENDBRANCH  23  28
ENDBRANCH  20  24
ENDBRANCH  19  20
ENDBRANCH   1  19
TORSDOF 8
ENDMDL
MODEL 7
REMARK VINA RESULT:     -10.3      1.435      2.034
REMARK  Name = 66000
REMARK  8 active torsions:
REMARK  status: ('A' for Active; 'I' for Inactive)
REMARK    1  A    between atoms: C_1  and  O_19
REMARK    2  A    between atoms: C_4  and  C_7
REMARK    3  A    between atoms: C_10  and  C_15
REMARK    4  A    between atoms: O_19  and  C_20
REMARK    5  A    between atoms: C_20  and  C_24
REMARK    6  A    between atoms: C_23  and  C_28
REMARK    7  A    between atoms: C_28  and  C_30
REMARK    8  A    between atoms: C_30  and  O_31
REMARK                            x       y       z     vdW  Elec       q    Type
REMARK                         _______ _______ _______ _____ _____    ______ ____
ROOT
ATOM      1  C   UNL     1      33.622 -23.529 -16.513  0.00  0.00    +0.139 C 
ATOM      2  C   UNL     1      32.557 -23.290 -17.373  0.00  0.00    +0.037 C 
ATOM      3  C   UNL     1      34.878 -22.993 -16.769  0.00  0.00    +0.037 C 
ATOM      4  C   UNL     1      34.010 -21.964 -18.775  0.00  0.00    +0.000 C 
ATOM      5  C   UNL     1      32.752 -22.505 -18.509  0.00  0.00    +0.003 C 
ATOM      6  C   UNL     1      35.073 -22.208 -17.905  0.00  0.00    +0.003 C 
ENDROOT
BRANCH   4   7
ATOM      7  C   UNL     1      34.213 -21.149 -19.953  0.00  0.00    +0.000 C 
ATOM      8  C   UNL     1      33.120 -20.566 -20.595  0.00  0.00    +0.000 C 
ATOM      9  C   UNL     1      35.501 -20.946 -20.448  0.00  0.00    +0.000 C 
ATOM     10  C   UNL     1      34.604 -19.577 -22.224  0.00  0.00    +0.031 C 
ATOM     11  C   UNL     1      33.315 -19.780 -21.731  0.00  0.00    +0.003 C 
ATOM     12  C   UNL     1      35.697 -20.160 -21.584  0.00  0.00    +0.003 C 
BRANCH  10  15
ATOM     13  N   UNL     1      33.943 -18.831 -24.500  0.00  0.00    -0.343 N 
ATOM     14  N   UNL     1      35.832 -17.925 -23.465  0.00  0.00    -0.285 NA
ATOM     15  C   UNL     1      34.807 -18.758 -23.409  0.00  0.00    +0.117 C 
ATOM     16  H   UNL     1      34.100 -18.268 -25.291  0.00  0.00    +0.144 HD
ATOM     17  H   UNL     1      33.176 -19.447 -24.478  0.00  0.00    +0.144 HD
ATOM     18  H   UNL     1      35.972 -17.370 -24.266  0.00  0.00    +0.188 HD
ENDBRANCH  10  15
ENDBRANCH   4   7
BRANCH   1  19
ATOM     19  O   UNL     1      33.430 -24.302 -15.395  0.00  0.00    -0.474 OA
BRANCH  19  20
ATOM     20  C   UNL     1      34.493 -25.157 -15.014  0.00  0.00    +0.225 C 
BRANCH  20  24
ATOM     21  O   UNL     1      37.013 -26.720 -11.776  0.00  0.00    -0.275 OA
ATOM     22  N   UNL     1      35.412 -25.317 -12.750  0.00  0.00    -0.302 N 
ATOM     23  C   UNL     1      37.459 -25.530 -13.863  0.00  0.00    +0.089 C 
ATOM     24  C   UNL     1      35.298 -24.474 -13.916  0.00  0.00    +0.116 C 
ATOM     25  C   UNL     1      36.754 -24.242 -14.303  0.00  0.00    +0.033 C 
ATOM     26  C   UNL     1      36.650 -25.947 -12.650  0.00  0.00    +0.223 C 
ATOM     27  H   UNL     1      34.689 -25.434 -12.093  0.00  0.00    +0.149 HD
BRANCH  23  28
ATOM     28  C   UNL     1      38.930 -25.329 -13.551  0.00  0.00    +0.118 C 
BRANCH  28  30
ATOM     29  O   UNL     1      41.028 -25.587 -14.763  0.00  0.00    -0.250 OA
ATOM     30  C   UNL     1      39.812 -25.686 -14.721  0.00  0.00    +0.314 C 
BRANCH  30  31
ATOM     31  O   UNL     1      39.056 -26.146 -15.751  0.00  0.00    -0.480 OA
ATOM     32  H   UNL     1      39.415 -26.763 -16.358  0.00  0.00    +0.295 HD
ENDBRANCH  30  31
ENDBRANCH  28  30
ENDBRANCH  23  28
ENDBRANCH  20  24
ENDBRANCH  19  20
ENDBRANCH   1  19
TORSDOF 8
ENDMDL
MODEL 8
REMARK VINA RESULT:     -10.1      6.129     11.441
REMARK  Name = 66000
REMARK  8 active torsions:
REMARK  status: ('A' for Active; 'I' for Inactive)
REMARK    1  A    between atoms: C_1  and  O_19
REMARK    2  A    between atoms: C_4  and  C_7
REMARK    3  A    between atoms: C_10  and  C_15
REMARK    4  A    between atoms: O_19  and  C_20
REMARK    5  A    between atoms: C_20  and  C_24
REMARK    6  A    between atoms: C_23  and  C_28
REMARK    7  A    between atoms: C_28  and  C_30
REMARK    8  A    between atoms: C_30  and  O_31
REMARK                            x       y       z     vdW  Elec       q    Type
REMARK                         _______ _______ _______ _____ _____    ______ ____
ROOT
ATOM      1  C   UNL     1      34.685 -17.122 -24.052  0.00  0.00    +0.139 C 
ATOM      2  C   UNL     1      34.038 -18.318 -24.342  0.00  0.00    +0.037 C 
ATOM      3  C   UNL     1      35.230 -16.895 -22.795  0.00  0.00    +0.037 C 
ATOM      4  C   UNL     1      34.477 -19.080 -22.093  0.00  0.00    +0.000 C 
ATOM      5  C   UNL     1      33.934 -19.300 -23.358  0.00  0.00    +0.003 C 
ATOM      6  C   UNL     1      35.125 -17.877 -21.810  0.00  0.00    +0.003 C 
ENDROOT
BRANCH   4   7
ATOM      7  C   UNL     1      34.369 -20.099 -21.071  0.00  0.00    +0.000 C 
ATOM      8  C   UNL     1      35.520 -20.681 -20.541  0.00  0.00    +0.000 C 
ATOM      9  C   UNL     1      33.112 -20.499 -20.615  0.00  0.00    +0.000 C 
ATOM     10  C   UNL     1      34.159 -22.062 -19.100  0.00  0.00    +0.031 C 
ATOM     11  C   UNL     1      35.416 -21.663 -19.555  0.00  0.00    +0.003 C 
ATOM     12  C   UNL     1      33.007 -21.481 -19.629  0.00  0.00    +0.003 C 
BRANCH  10  15
ATOM     13  N   UNL     1      32.950 -23.939 -18.011  0.00  0.00    -0.343 N 
ATOM     14  N   UNL     1      35.007 -23.217 -17.169  0.00  0.00    -0.285 NA
ATOM     15  C   UNL     1      34.050 -23.086 -18.072  0.00  0.00    +0.117 C 
ATOM     16  H   UNL     1      32.897 -24.625 -17.307  0.00  0.00    +0.144 HD
ATOM     17  H   UNL     1      32.226 -23.855 -18.673  0.00  0.00    +0.144 HD
ATOM     18  H   UNL     1      34.936 -23.909 -16.473  0.00  0.00    +0.188 HD
ENDBRANCH  10  15
ENDBRANCH   4   7
BRANCH   1  19
ATOM     19  O   UNL     1      34.788 -16.155 -25.021  0.00  0.00    -0.474 OA
BRANCH  19  20
ATOM     20  C   UNL     1      33.867 -15.080 -24.956  0.00  0.00    +0.225 C 
BRANCH  20  24
ATOM     21  O   UNL     1      33.312 -10.771 -24.325  0.00  0.00    -0.275 OA
ATOM     22  N   UNL     1      34.484 -12.797 -24.321  0.00  0.00    -0.302 N 
ATOM     23  C   UNL     1      32.382 -12.781 -23.291  0.00  0.00    +0.089 C 
ATOM     24  C   UNL     1      34.291 -14.142 -23.834  0.00  0.00    +0.116 C 
ATOM     25  C   UNL     1      33.212 -13.960 -22.771  0.00  0.00    +0.033 C 
ATOM     26  C   UNL     1      33.419 -11.951 -24.024  0.00  0.00    +0.223 C 
ATOM     27  H   UNL     1      35.286 -12.508 -24.812  0.00  0.00    +0.149 HD
BRANCH  23  28
ATOM     28  C   UNL     1      31.682 -12.011 -22.188  0.00  0.00    +0.118 C 
BRANCH  28  30
ATOM     29  O   UNL     1      31.629 -13.952 -20.715  0.00  0.00    -0.250 OA
ATOM     30  C   UNL     1      31.723 -12.744 -20.871  0.00  0.00    +0.314 C 
BRANCH  30  31
ATOM     31  O   UNL     1      31.884 -11.862 -19.851  0.00  0.00    -0.480 OA
ATOM     32  H   UNL     1      32.045 -12.174 -18.983  0.00  0.00    +0.295 HD
ENDBRANCH  30  31
ENDBRANCH  28  30
ENDBRANCH  23  28
ENDBRANCH  20  24
ENDBRANCH  19  20
ENDBRANCH   1  19
TORSDOF 8
ENDMDL
MODEL 9
REMARK VINA RESULT:     -10.0      6.342     12.087
REMARK  Name = 66000
REMARK  8 active torsions:
REMARK  status: ('A' for Active; 'I' for Inactive)
REMARK    1  A    between atoms: C_1  and  O_19
REMARK    2  A    between atoms: C_4  and  C_7
REMARK    3  A    between atoms: C_10  and  C_15
REMARK    4  A    between atoms: O_19  and  C_20
REMARK    5  A    between atoms: C_20  and  C_24
REMARK    6  A    between atoms: C_23  and  C_28
REMARK    7  A    between atoms: C_28  and  C_30
REMARK    8  A    between atoms: C_30  and  O_31
REMARK                            x       y       z     vdW  Elec       q    Type
REMARK                         _______ _______ _______ _____ _____    ______ ____
ROOT
ATOM      1  C   UNL     1      34.858 -17.805 -23.737  0.00  0.00    +0.139 C 
ATOM      2  C   UNL     1      34.312 -19.050 -24.026  0.00  0.00    +0.037 C 
ATOM      3  C   UNL     1      35.198 -17.461 -22.435  0.00  0.00    +0.037 C 
ATOM      4  C   UNL     1      34.442 -19.629 -21.684  0.00  0.00    +0.000 C 
ATOM      5  C   UNL     1      34.104 -19.965 -22.995  0.00  0.00    +0.003 C 
ATOM      6  C   UNL     1      34.988 -18.377 -21.404  0.00  0.00    +0.003 C 
ENDROOT
BRANCH   4   7
ATOM      7  C   UNL     1      34.224 -20.578 -20.614  0.00  0.00    +0.000 C 
ATOM      8  C   UNL     1      35.311 -21.214 -20.014  0.00  0.00    +0.000 C 
ATOM      9  C   UNL     1      32.928 -20.857 -20.181  0.00  0.00    +0.000 C 
ATOM     10  C   UNL     1      33.806 -22.407 -18.549  0.00  0.00    +0.031 C 
ATOM     11  C   UNL     1      35.102 -22.128 -18.981  0.00  0.00    +0.003 C 
ATOM     12  C   UNL     1      32.718 -21.772 -19.149  0.00  0.00    +0.003 C 
BRANCH  10  15
ATOM     13  N   UNL     1      32.304 -23.760 -17.105  0.00  0.00    -0.343 N 
ATOM     14  N   UNL     1      34.621 -23.863 -16.819  0.00  0.00    -0.285 NA
ATOM     15  C   UNL     1      33.588 -23.361 -17.473  0.00  0.00    +0.117 C 
ATOM     16  H   UNL     1      32.180 -24.406 -16.374  0.00  0.00    +0.144 HD
ATOM     17  H   UNL     1      31.522 -23.394 -17.577  0.00  0.00    +0.144 HD
ATOM     18  H   UNL     1      34.476 -24.509 -16.091  0.00  0.00    +0.188 HD
ENDBRANCH  10  15
ENDBRANCH   4   7
BRANCH   1  19
ATOM     19  O   UNL     1      35.063 -16.903 -24.753  0.00  0.00    -0.474 OA
BRANCH  19  20
ATOM     20  C   UNL     1      35.024 -15.529 -24.410  0.00  0.00    +0.225 C 
BRANCH  20  24
ATOM     21  O   UNL     1      32.837 -11.993 -23.002  0.00  0.00    -0.275 OA
ATOM     22  N   UNL     1      33.105 -14.238 -23.606  0.00  0.00    -0.302 N 
ATOM     23  C   UNL     1      33.867 -12.629 -25.125  0.00  0.00    +0.089 C 
ATOM     24  C   UNL     1      33.634 -14.989 -24.719  0.00  0.00    +0.116 C 
ATOM     25  C   UNL     1      33.632 -13.962 -25.845  0.00  0.00    +0.033 C 
ATOM     26  C   UNL     1      33.194 -12.860 -23.785  0.00  0.00    +0.223 C 
ATOM     27  H   UNL     1      32.721 -14.657 -22.802  0.00  0.00    +0.149 HD
BRANCH  23  28
ATOM     28  C   UNL     1      33.299 -11.438 -25.872  0.00  0.00    +0.118 C 
BRANCH  28  30
ATOM     29  O   UNL     1      34.709 -11.428 -27.860  0.00  0.00    -0.250 OA
ATOM     30  C   UNL     1      33.602 -11.498 -27.348  0.00  0.00    +0.314 C 
BRANCH  30  31
ATOM     31  O   UNL     1      32.452 -11.645 -28.055  0.00  0.00    -0.480 OA
ATOM     32  H   UNL     1      32.378 -11.274 -28.912  0.00  0.00    +0.295 HD
ENDBRANCH  30  31
ENDBRANCH  28  30
ENDBRANCH  23  28
ENDBRANCH  20  24
ENDBRANCH  19  20
ENDBRANCH   1  19
TORSDOF 8
ENDMDL
