MODEL 1
REMARK VINA RESULT:     -11.5      0.000      0.000
REMARK  Name = 16122642
REMARK  7 active torsions:
REMARK  status: ('A' for Active; 'I' for Inactive)
REMARK    1  A    between atoms: C_2  and  C_10
REMARK    2  A    between atoms: C_3  and  O_18
REMARK    3  A    between atoms: O_18  and  C_19
REMARK    4  A    between atoms: C_19  and  C_20
REMARK    5  A    between atoms: C_20  and  N_21
REMARK    6  A    between atoms: C_20  and  C_25
REMARK    7  A    between atoms: C_25  and  C_27
REMARK                            x       y       z     vdW  Elec       q    Type
REMARK                         _______ _______ _______ _____ _____    ______ ____
ROOT
ATOM      1  N   UNL     1      33.603 -15.514 -25.732  0.00  0.00    -0.239 NA
ATOM      2  C   UNL     1      33.433 -14.202 -23.715  0.00  0.00    +0.022 C 
ATOM      3  C   UNL     1      34.909 -16.092 -23.781  0.00  0.00    +0.158 C 
ATOM      4  C   UNL     1      34.358 -15.022 -23.086  0.00  0.00    +0.040 C 
ATOM      5  C   UNL     1      33.090 -14.482 -25.024  0.00  0.00    +0.099 C 
ATOM      6  C   UNL     1      34.502 -16.293 -25.091  0.00  0.00    +0.136 C 
ENDROOT
BRANCH   2  10
ATOM      7  N   UNL     1      31.591  -8.965 -22.036  0.00  0.00    -0.280 N 
ATOM      8  N   UNL     1      31.201  -9.858 -21.106  0.00  0.00    -0.173 NA
ATOM      9  C   UNL     1      32.348 -10.835 -22.806  0.00  0.00    +0.032 A 
ATOM     10  C   UNL     1      32.841 -13.076 -23.016  0.00  0.00    +0.002 C 
ATOM     11  C   UNL     1      31.657 -11.040 -21.556  0.00  0.00    +0.102 A 
ATOM     12  C   UNL     1      32.964 -11.798 -23.595  0.00  0.00    +0.003 C 
ATOM     13  C   UNL     1      32.285  -9.498 -23.083  0.00  0.00    +0.053 A 
ATOM     14  C   UNL     1      32.168 -13.332 -21.781  0.00  0.00    +0.002 C 
ATOM     15  C   UNL     1      31.550 -12.330 -21.001  0.00  0.00    +0.021 C 
ATOM     16  C   UNL     1      32.788  -8.668 -24.190  0.00  0.00    +0.051 C 
ATOM     17  H   UNL     1      31.392  -8.005 -21.966  0.00  0.00    +0.189 HD
ENDBRANCH   2  10
BRANCH   3  18
ATOM     18  O   UNL     1      35.816 -16.913 -23.197  0.00  0.00    -0.476 OA
BRANCH  18  19
ATOM     19  C   UNL     1      35.634 -18.320 -23.370  0.00  0.00    +0.184 C 
BRANCH  19  20
ATOM     20  C   UNL     1      35.460 -19.005 -22.008  0.00  0.00    -0.017 C 
BRANCH  20  21
ATOM     21  N   UNL     1      35.649 -17.999 -20.958  0.00  0.00    +0.384 N 
ATOM     22  H   UNL     1      36.261 -18.374 -20.235  0.00  0.00    -0.089 HD
ATOM     23  H   UNL     1      34.745 -17.762 -20.549  0.00  0.00    -0.089 HD
ATOM     24  H   UNL     1      36.070 -17.162 -21.361  0.00  0.00    -0.089 HD
ENDBRANCH  20  21
BRANCH  20  25
ATOM     25  C   UNL     1      34.067 -19.643 -21.823  0.00  0.00    +0.008 C 
BRANCH  25  27
ATOM     26 BR   UNL     1      33.684 -23.674 -17.167  0.00  0.00    -0.049 Br
ATOM     27  C   UNL     1      33.973 -20.630 -20.685  0.00  0.00    -0.024 C 
ATOM     28  C   UNL     1      32.730 -20.941 -20.156  0.00  0.00    -0.004 C 
ATOM     29  C   UNL     1      35.131 -21.205 -20.189  0.00  0.00    -0.004 C 
ATOM     30  C   UNL     1      32.644 -21.852 -19.104  0.00  0.00    +0.006 C 
ATOM     31  C   UNL     1      35.045 -22.116 -19.136  0.00  0.00    +0.006 C 
ATOM     32  C   UNL     1      33.801 -22.440 -18.594  0.00  0.00    +0.035 C 
ENDBRANCH  25  27
ENDBRANCH  20  25
ENDBRANCH  19  20
ENDBRANCH  18  19
ENDBRANCH   3  18
TORSDOF 7
ENDMDL
MODEL 2
REMARK VINA RESULT:     -11.4      1.654      2.456
REMARK  Name = 16122642
REMARK  7 active torsions:
REMARK  status: ('A' for Active; 'I' for Inactive)
REMARK    1  A    between atoms: C_2  and  C_10
REMARK    2  A    between atoms: C_3  and  O_18
REMARK    3  A    between atoms: O_18  and  C_19
REMARK    4  A    between atoms: C_19  and  C_20
REMARK    5  A    between atoms: C_20  and  N_21
REMARK    6  A    between atoms: C_20  and  C_25
REMARK    7  A    between atoms: C_25  and  C_27
REMARK                            x       y       z     vdW  Elec       q    Type
REMARK                         _______ _______ _______ _____ _____    ______ ____
ROOT
ATOM      1  N   UNL     1      33.449 -14.916 -26.090  0.00  0.00    -0.239 NA
ATOM      2  C   UNL     1      33.827 -12.952 -24.744  0.00  0.00    +0.022 C 
ATOM      3  C   UNL     1      34.187 -15.127 -23.798  0.00  0.00    +0.158 C 
ATOM      4  C   UNL     1      34.192 -13.743 -23.665  0.00  0.00    +0.040 C 
ATOM      5  C   UNL     1      33.468 -13.575 -25.924  0.00  0.00    +0.099 C 
ATOM      6  C   UNL     1      33.811 -15.659 -25.021  0.00  0.00    +0.136 C 
ENDROOT
BRANCH   2  10
ATOM      7  N   UNL     1      32.919  -7.430 -23.220  0.00  0.00    -0.280 N 
ATOM      8  N   UNL     1      33.763  -7.435 -24.270  0.00  0.00    -0.173 NA
ATOM      9  C   UNL     1      33.146  -9.533 -23.653  0.00  0.00    +0.032 A 
ATOM     10  C   UNL     1      33.824 -11.504 -24.636  0.00  0.00    +0.002 C 
ATOM     11  C   UNL     1      33.928  -8.736 -24.568  0.00  0.00    +0.102 A 
ATOM     12  C   UNL     1      33.042 -10.918 -23.621  0.00  0.00    +0.003 C 
ATOM     13  C   UNL     1      32.515  -8.666 -22.806  0.00  0.00    +0.053 A 
ATOM     14  C   UNL     1      34.614 -10.760 -25.567  0.00  0.00    +0.002 C 
ATOM     15  C   UNL     1      34.699  -9.350 -25.572  0.00  0.00    +0.021 C 
ATOM     16  C   UNL     1      31.594  -8.848 -21.671  0.00  0.00    +0.051 C 
ATOM     17  H   UNL     1      32.617  -6.601 -22.786  0.00  0.00    +0.189 HD
ENDBRANCH   2  10
BRANCH   3  18
ATOM     18  O   UNL     1      34.538 -15.930 -22.764  0.00  0.00    -0.476 OA
BRANCH  18  19
ATOM     19  C   UNL     1      35.391 -17.040 -23.056  0.00  0.00    +0.184 C 
BRANCH  19  20
ATOM     20  C   UNL     1      34.717 -18.352 -22.636  0.00  0.00    -0.017 C 
BRANCH  20  21
ATOM     21  N   UNL     1      34.202 -19.011 -23.840  0.00  0.00    +0.384 N 
ATOM     22  H   UNL     1      33.440 -19.638 -23.584  0.00  0.00    -0.089 HD
ATOM     23  H   UNL     1      34.950 -19.548 -24.279  0.00  0.00    -0.089 HD
ATOM     24  H   UNL     1      33.859 -18.307 -24.493  0.00  0.00    -0.089 HD
ENDBRANCH  20  21
BRANCH  20  25
ATOM     25  C   UNL     1      35.679 -19.327 -21.924  0.00  0.00    +0.008 C 
BRANCH  25  27
ATOM     26 BR   UNL     1      32.959 -23.187 -17.951  0.00  0.00    -0.049 Br
ATOM     27  C   UNL     1      35.012 -20.272 -20.953  0.00  0.00    -0.024 C 
ATOM     28  C   UNL     1      33.631 -20.275 -20.847  0.00  0.00    -0.004 C 
ATOM     29  C   UNL     1      35.796 -21.117 -20.185  0.00  0.00    -0.004 C 
ATOM     30  C   UNL     1      33.016 -21.147 -19.949  0.00  0.00    +0.006 C 
ATOM     31  C   UNL     1      35.181 -21.989 -19.286  0.00  0.00    +0.006 C 
ATOM     32  C   UNL     1      33.792 -22.005 -19.169  0.00  0.00    +0.035 C 
ENDBRANCH  25  27
ENDBRANCH  20  25
ENDBRANCH  19  20
ENDBRANCH  18  19
ENDBRANCH   3  18
TORSDOF 7
ENDMDL
MODEL 3
REMARK VINA RESULT:     -10.9      3.764      7.106
REMARK  Name = 16122642
REMARK  7 active torsions:
REMARK  status: ('A' for Active; 'I' for Inactive)
REMARK    1  A    between atoms: C_2  and  C_10
REMARK    2  A    between atoms: C_3  and  O_18
REMARK    3  A    between atoms: O_18  and  C_19
REMARK    4  A    between atoms: C_19  and  C_20
REMARK    5  A    between atoms: C_20  and  N_21
REMARK    6  A    between atoms: C_20  and  C_25
REMARK    7  A    between atoms: C_25  and  C_27
REMARK                            x       y       z     vdW  Elec       q    Type
REMARK                         _______ _______ _______ _____ _____    ______ ____
ROOT
ATOM      1  N   UNL     1      36.207 -21.392 -19.631  0.00  0.00    -0.239 NA
ATOM      2  C   UNL     1      34.843 -20.116 -21.156  0.00  0.00    +0.022 C 
ATOM      3  C   UNL     1      33.803 -21.641 -19.622  0.00  0.00    +0.158 C 
ATOM      4  C   UNL     1      33.695 -20.705 -20.645  0.00  0.00    +0.040 C 
ATOM      5  C   UNL     1      36.063 -20.486 -20.624  0.00  0.00    +0.099 C 
ATOM      6  C   UNL     1      35.071 -21.947 -19.154  0.00  0.00    +0.136 C 
ENDROOT
BRANCH   2  10
ATOM      7  N   UNL     1      34.529 -15.268 -24.323  0.00  0.00    -0.280 N 
ATOM      8  N   UNL     1      34.536 -16.315 -25.171  0.00  0.00    -0.173 NA
ATOM      9  C   UNL     1      34.647 -16.968 -22.998  0.00  0.00    +0.032 A 
ATOM     10  C   UNL     1      34.763 -19.136 -22.223  0.00  0.00    +0.002 C 
ATOM     11  C   UNL     1      34.610 -17.397 -24.375  0.00  0.00    +0.102 A 
ATOM     12  C   UNL     1      34.723 -17.773 -21.868  0.00  0.00    +0.003 C 
ATOM     13  C   UNL     1      34.594 -15.603 -23.002  0.00  0.00    +0.053 A 
ATOM     14  C   UNL     1      34.728 -19.612 -23.571  0.00  0.00    +0.002 C 
ATOM     15  C   UNL     1      34.651 -18.766 -24.699  0.00  0.00    +0.021 C 
ATOM     16  C   UNL     1      34.597 -14.585 -21.938  0.00  0.00    +0.051 C 
ATOM     17  H   UNL     1      34.480 -14.336 -24.632  0.00  0.00    +0.189 HD
ENDBRANCH   2  10
BRANCH   3  18
ATOM     18  O   UNL     1      32.702 -22.234 -19.100  0.00  0.00    -0.476 OA
BRANCH  18  19
ATOM     19  C   UNL     1      32.909 -23.244 -18.109  0.00  0.00    +0.184 C 
BRANCH  19  20
ATOM     20  C   UNL     1      32.139 -22.897 -16.828  0.00  0.00    -0.017 C 
BRANCH  20  21
ATOM     21  N   UNL     1      30.717 -22.777 -17.162  0.00  0.00    +0.384 N 
ATOM     22  H   UNL     1      30.393 -23.646 -17.584  0.00  0.00    -0.089 HD
ATOM     23  H   UNL     1      30.587 -22.010 -17.822  0.00  0.00    -0.089 HD
ATOM     24  H   UNL     1      30.183 -22.590 -16.314  0.00  0.00    -0.089 HD
ENDBRANCH  20  21
BRANCH  20  25
ATOM     25  C   UNL     1      32.288 -23.965 -15.723  0.00  0.00    +0.008 C 
BRANCH  25  27
ATOM     26 BR   UNL     1      37.344 -23.376 -12.235  0.00  0.00    -0.049 Br
ATOM     27  C   UNL     1      33.525 -23.820 -14.870  0.00  0.00    -0.024 C 
ATOM     28  C   UNL     1      34.628 -23.153 -15.380  0.00  0.00    -0.004 C 
ATOM     29  C   UNL     1      33.534 -24.356 -13.594  0.00  0.00    -0.004 C 
ATOM     30  C   UNL     1      35.771 -23.021 -14.591  0.00  0.00    +0.006 C 
ATOM     31  C   UNL     1      34.677 -24.224 -12.805  0.00  0.00    +0.006 C 
ATOM     32  C   UNL     1      35.795 -23.556 -13.303  0.00  0.00    +0.035 C 
ENDBRANCH  25  27
ENDBRANCH  20  25
ENDBRANCH  19  20
ENDBRANCH  18  19
ENDBRANCH   3  18
TORSDOF 7
ENDMDL
MODEL 4
REMARK VINA RESULT:     -10.8      5.353     11.163
REMARK  Name = 16122642
REMARK  7 active torsions:
REMARK  status: ('A' for Active; 'I' for Inactive)
REMARK    1  A    between atoms: C_2  and  C_10
REMARK    2  A    between atoms: C_3  and  O_18
REMARK    3  A    between atoms: O_18  and  C_19
REMARK    4  A    between atoms: C_19  and  C_20
REMARK    5  A    between atoms: C_20  and  N_21
REMARK    6  A    between atoms: C_20  and  C_25
REMARK    7  A    between atoms: C_25  and  C_27
REMARK                            x       y       z     vdW  Elec       q    Type
REMARK                         _______ _______ _______ _____ _____    ______ ____
ROOT
ATOM      1  N   UNL     1      31.328 -11.825 -20.526  0.00  0.00    -0.239 NA
ATOM      2  C   UNL     1      32.463 -12.559 -22.523  0.00  0.00    +0.022 C 
ATOM      3  C   UNL     1      31.801 -10.262 -22.308  0.00  0.00    +0.158 C 
ATOM      4  C   UNL     1      32.401 -11.276 -23.047  0.00  0.00    +0.040 C 
ATOM      5  C   UNL     1      31.920 -12.784 -21.273  0.00  0.00    +0.099 C 
ATOM      6  C   UNL     1      31.285 -10.586 -21.064  0.00  0.00    +0.136 C 
ENDROOT
BRANCH   2  10
ATOM      7  N   UNL     1      35.284 -17.342 -24.195  0.00  0.00    -0.280 N 
ATOM      8  N   UNL     1      34.855 -16.707 -25.303  0.00  0.00    -0.173 NA
ATOM      9  C   UNL     1      34.270 -15.609 -23.403  0.00  0.00    +0.032 A 
ATOM     10  C   UNL     1      33.083 -13.637 -23.270  0.00  0.00    +0.002 C 
ATOM     11  C   UNL     1      34.215 -15.617 -24.845  0.00  0.00    +0.102 A 
ATOM     12  C   UNL     1      33.730 -14.658 -22.546  0.00  0.00    +0.003 C 
ATOM     13  C   UNL     1      34.960 -16.725 -23.022  0.00  0.00    +0.053 A 
ATOM     14  C   UNL     1      33.001 -13.599 -24.697  0.00  0.00    +0.002 C 
ATOM     15  C   UNL     1      33.561 -14.583 -25.541  0.00  0.00    +0.021 C 
ATOM     16  C   UNL     1      35.348 -17.280 -21.715  0.00  0.00    +0.051 C 
ATOM     17  H   UNL     1      35.792 -18.183 -24.229  0.00  0.00    +0.189 HD
ENDBRANCH   2  10
BRANCH   3  18
ATOM     18  O   UNL     1      31.725  -8.998 -22.790  0.00  0.00    -0.476 OA
BRANCH  18  19
ATOM     19  C   UNL     1      31.418  -7.958 -21.858  0.00  0.00    +0.184 C 
BRANCH  19  20
ATOM     20  C   UNL     1      32.669  -7.120 -21.566  0.00  0.00    -0.017 C 
BRANCH  20  21
ATOM     21  N   UNL     1      33.133  -7.441 -20.213  0.00  0.00    +0.384 N 
ATOM     22  H   UNL     1      33.312  -6.577 -19.702  0.00  0.00    -0.089 HD
ATOM     23  H   UNL     1      33.993  -7.987 -20.269  0.00  0.00    -0.089 HD
ATOM     24  H   UNL     1      32.418  -7.982 -19.727  0.00  0.00    -0.089 HD
ENDBRANCH  20  21
BRANCH  20  25
ATOM     25  C   UNL     1      33.826  -7.392 -22.551  0.00  0.00    +0.008 C 
BRANCH  25  27
ATOM     26 BR   UNL     1      34.131  -3.469 -27.304  0.00  0.00    -0.049 Br
ATOM     27  C   UNL     1      33.901  -6.434 -23.715  0.00  0.00    -0.024 C 
ATOM     28  C   UNL     1      34.877  -6.612 -24.681  0.00  0.00    -0.004 C 
ATOM     29  C   UNL     1      32.991  -5.392 -23.793  0.00  0.00    -0.004 C 
ATOM     30  C   UNL     1      34.946  -5.725 -25.755  0.00  0.00    +0.006 C 
ATOM     31  C   UNL     1      33.060  -4.504 -24.867  0.00  0.00    +0.006 C 
ATOM     32  C   UNL     1      34.037  -4.671 -25.848  0.00  0.00    +0.035 C 
ENDBRANCH  25  27
ENDBRANCH  20  25
ENDBRANCH  19  20
ENDBRANCH  18  19
ENDBRANCH   3  18
TORSDOF 7
ENDMDL
MODEL 5
REMARK VINA RESULT:     -10.8      5.694     12.253
REMARK  Name = 16122642
REMARK  7 active torsions:
REMARK  status: ('A' for Active; 'I' for Inactive)
REMARK    1  A    between atoms: C_2  and  C_10
REMARK    2  A    between atoms: C_3  and  O_18
REMARK    3  A    between atoms: O_18  and  C_19
REMARK    4  A    between atoms: C_19  and  C_20
REMARK    5  A    between atoms: C_20  and  N_21
REMARK    6  A    between atoms: C_20  and  C_25
REMARK    7  A    between atoms: C_25  and  C_27
REMARK                            x       y       z     vdW  Elec       q    Type
REMARK                         _______ _______ _______ _____ _____    ______ ____
ROOT
ATOM      1  N   UNL     1      31.162 -23.379 -15.745  0.00  0.00    -0.239 NA
ATOM      2  C   UNL     1      33.508 -23.808 -15.389  0.00  0.00    +0.022 C 
ATOM      3  C   UNL     1      32.737 -23.154 -17.565  0.00  0.00    +0.158 C 
ATOM      4  C   UNL     1      33.779 -23.517 -16.717  0.00  0.00    +0.040 C 
ATOM      5  C   UNL     1      32.200 -23.726 -14.951  0.00  0.00    +0.099 C 
ATOM      6  C   UNL     1      31.459 -23.101 -17.034  0.00  0.00    +0.136 C 
ENDROOT
BRANCH   2  10
ATOM      7  N   UNL     1      38.562 -25.280 -12.954  0.00  0.00    -0.280 N 
ATOM      8  N   UNL     1      37.627 -25.260 -11.984  0.00  0.00    -0.173 NA
ATOM      9  C   UNL     1      36.768 -24.722 -14.017  0.00  0.00    +0.032 A 
ATOM     10  C   UNL     1      34.574 -24.188 -14.480  0.00  0.00    +0.002 C 
ATOM     11  C   UNL     1      36.491 -24.914 -12.614  0.00  0.00    +0.102 A 
ATOM     12  C   UNL     1      35.868 -24.360 -15.011  0.00  0.00    +0.003 C 
ATOM     13  C   UNL     1      38.101 -24.964 -14.198  0.00  0.00    +0.053 A 
ATOM     14  C   UNL     1      34.248 -24.366 -13.099  0.00  0.00    +0.002 C 
ATOM     15  C   UNL     1      35.188 -24.735 -12.112  0.00  0.00    +0.021 C 
ATOM     16  C   UNL     1      38.985 -24.936 -15.375  0.00  0.00    +0.051 C 
ATOM     17  H   UNL     1      39.503 -25.505 -12.778  0.00  0.00    +0.189 HD
ENDBRANCH   2  10
BRANCH   3  18
ATOM     18  O   UNL     1      32.967 -22.863 -18.868  0.00  0.00    -0.476 OA
BRANCH  18  19
ATOM     19  C   UNL     1      34.220 -22.258 -19.194  0.00  0.00    +0.184 C 
BRANCH  19  20
ATOM     20  C   UNL     1      34.072 -21.364 -20.433  0.00  0.00    -0.017 C 
BRANCH  20  21
ATOM     21  N   UNL     1      32.869 -20.543 -20.269  0.00  0.00    +0.384 N 
ATOM     22  H   UNL     1      32.053 -21.148 -20.189  0.00  0.00    -0.089 HD
ATOM     23  H   UNL     1      32.762 -19.932 -21.078  0.00  0.00    -0.089 HD
ATOM     24  H   UNL     1      32.957 -19.977 -19.424  0.00  0.00    -0.089 HD
ENDBRANCH  20  21
BRANCH  20  25
ATOM     25  C   UNL     1      35.276 -20.422 -20.648  0.00  0.00    +0.008 C 
BRANCH  25  27
ATOM     26 BR   UNL     1      34.419 -16.086 -24.954  0.00  0.00    -0.049 Br
ATOM     27  C   UNL     1      35.065 -19.362 -21.702  0.00  0.00    -0.024 C 
ATOM     28  C   UNL     1      34.656 -19.738 -22.971  0.00  0.00    -0.004 C 
ATOM     29  C   UNL     1      35.286 -18.034 -21.379  0.00  0.00    -0.004 C 
ATOM     30  C   UNL     1      34.463 -18.757 -23.945  0.00  0.00    +0.006 C 
ATOM     31  C   UNL     1      35.093 -17.053 -22.353  0.00  0.00    +0.006 C 
ATOM     32  C   UNL     1      34.681 -17.415 -23.635  0.00  0.00    +0.035 C 
ENDBRANCH  25  27
ENDBRANCH  20  25
ENDBRANCH  19  20
ENDBRANCH  18  19
ENDBRANCH   3  18
TORSDOF 7
ENDMDL
MODEL 6
REMARK VINA RESULT:     -10.8      5.037     11.699
REMARK  Name = 16122642
REMARK  7 active torsions:
REMARK  status: ('A' for Active; 'I' for Inactive)
REMARK    1  A    between atoms: C_2  and  C_10
REMARK    2  A    between atoms: C_3  and  O_18
REMARK    3  A    between atoms: O_18  and  C_19
REMARK    4  A    between atoms: C_19  and  C_20
REMARK    5  A    between atoms: C_20  and  N_21
REMARK    6  A    between atoms: C_20  and  C_25
REMARK    7  A    between atoms: C_25  and  C_27
REMARK                            x       y       z     vdW  Elec       q    Type
REMARK                         _______ _______ _______ _____ _____    ______ ____
ROOT
ATOM      1  N   UNL     1      32.419 -22.685 -18.636  0.00  0.00    -0.239 NA
ATOM      2  C   UNL     1      34.261 -23.069 -17.128  0.00  0.00    +0.022 C 
ATOM      3  C   UNL     1      34.624 -21.844 -19.159  0.00  0.00    +0.158 C 
ATOM      4  C   UNL     1      35.117 -22.382 -17.975  0.00  0.00    +0.040 C 
ATOM      5  C   UNL     1      32.934 -23.193 -17.494  0.00  0.00    +0.099 C 
ATOM      6  C   UNL     1      33.279 -22.021 -19.440  0.00  0.00    +0.136 C 
ENDROOT
BRANCH   2  10
ATOM      7  N   UNL     1      37.436 -25.435 -12.890  0.00  0.00    -0.280 N 
ATOM      8  N   UNL     1      36.184 -25.262 -12.421  0.00  0.00    -0.173 NA
ATOM      9  C   UNL     1      36.402 -24.558 -14.570  0.00  0.00    +0.032 A 
ATOM     10  C   UNL     1      34.746 -23.641 -15.885  0.00  0.00    +0.002 C 
ATOM     11  C   UNL     1      35.509 -24.714 -13.447  0.00  0.00    +0.102 A 
ATOM     12  C   UNL     1      36.098 -24.032 -15.819  0.00  0.00    +0.003 C 
ATOM     13  C   UNL     1      37.623 -25.028 -14.179  0.00  0.00    +0.053 A 
ATOM     14  C   UNL     1      33.822 -23.775 -14.802  0.00  0.00    +0.002 C 
ATOM     15  C   UNL     1      34.163 -24.315 -13.543  0.00  0.00    +0.021 C 
ATOM     16  C   UNL     1      38.928 -25.142 -14.852  0.00  0.00    +0.051 C 
ATOM     17  H   UNL     1      38.157 -25.824 -12.347  0.00  0.00    +0.189 HD
ENDBRANCH   2  10
BRANCH   3  18
ATOM     18  O   UNL     1      35.434 -21.167 -20.009  0.00  0.00    -0.476 OA
BRANCH  18  19
ATOM     19  C   UNL     1      34.811 -20.454 -21.080  0.00  0.00    +0.184 C 
BRANCH  19  20
ATOM     20  C   UNL     1      35.545 -19.132 -21.336  0.00  0.00    -0.017 C 
BRANCH  20  21
ATOM     21  N   UNL     1      36.892 -19.234 -20.766  0.00  0.00    +0.384 N 
ATOM     22  H   UNL     1      36.844 -19.706 -19.864  0.00  0.00    -0.089 HD
ATOM     23  H   UNL     1      37.279 -18.299 -20.639  0.00  0.00    -0.089 HD
ATOM     24  H   UNL     1      37.489 -19.767 -21.398  0.00  0.00    -0.089 HD
ENDBRANCH  20  21
BRANCH  20  25
ATOM     25  C   UNL     1      35.679 -18.793 -22.836  0.00  0.00    +0.008 C 
BRANCH  25  27
ATOM     26 BR   UNL     1      33.491 -13.246 -24.425  0.00  0.00    -0.049 Br
ATOM     27  C   UNL     1      35.143 -17.437 -23.225  0.00  0.00    -0.024 C 
ATOM     28  C   UNL     1      34.813 -17.191 -24.548  0.00  0.00    -0.004 C 
ATOM     29  C   UNL     1      34.992 -16.463 -22.252  0.00  0.00    -0.004 C 
ATOM     30  C   UNL     1      34.318 -15.937 -24.907  0.00  0.00    +0.006 C 
ATOM     31  C   UNL     1      34.498 -15.209 -22.611  0.00  0.00    +0.006 C 
ATOM     32  C   UNL     1      34.160 -14.946 -23.938  0.00  0.00    +0.035 C 
ENDBRANCH  25  27
ENDBRANCH  20  25
ENDBRANCH  19  20
ENDBRANCH  18  19
ENDBRANCH   3  18
TORSDOF 7
ENDMDL
MODEL 7
REMARK VINA RESULT:     -10.7      3.783      6.979
REMARK  Name = 16122642
REMARK  7 active torsions:
REMARK  status: ('A' for Active; 'I' for Inactive)
REMARK    1  A    between atoms: C_2  and  C_10
REMARK    2  A    between atoms: C_3  and  O_18
REMARK    3  A    between atoms: O_18  and  C_19
REMARK    4  A    between atoms: C_19  and  C_20
REMARK    5  A    between atoms: C_20  and  N_21
REMARK    6  A    between atoms: C_20  and  C_25
REMARK    7  A    between atoms: C_25  and  C_27
REMARK                            x       y       z     vdW  Elec       q    Type
REMARK                         _______ _______ _______ _____ _____    ______ ____
ROOT
ATOM      1  N   UNL     1      32.787 -21.749 -19.691  0.00  0.00    -0.239 NA
ATOM      2  C   UNL     1      34.302 -20.330 -20.917  0.00  0.00    +0.022 C 
ATOM      3  C   UNL     1      35.166 -21.849 -19.273  0.00  0.00    +0.158 C 
ATOM      4  C   UNL     1      35.383 -20.866 -20.233  0.00  0.00    +0.040 C 
ATOM      5  C   UNL     1      33.037 -20.797 -20.618  0.00  0.00    +0.099 C 
ATOM      6  C   UNL     1      33.860 -22.252 -19.042  0.00  0.00    +0.136 C 
ENDROOT
BRANCH   2  10
ATOM      7  N   UNL     1      34.892 -15.348 -23.827  0.00  0.00    -0.280 N 
ATOM      8  N   UNL     1      35.035 -16.359 -24.706  0.00  0.00    -0.173 NA
ATOM      9  C   UNL     1      34.647 -17.104 -22.595  0.00  0.00    +0.032 A 
ATOM     10  C   UNL     1      34.497 -19.304 -21.925  0.00  0.00    +0.002 C 
ATOM     11  C   UNL     1      34.888 -17.474 -23.969  0.00  0.00    +0.102 A 
ATOM     12  C   UNL     1      34.443 -17.956 -21.518  0.00  0.00    +0.003 C 
ATOM     13  C   UNL     1      34.656 -15.739 -22.541  0.00  0.00    +0.053 A 
ATOM     14  C   UNL     1      34.733 -19.723 -23.272  0.00  0.00    +0.002 C 
ATOM     15  C   UNL     1      34.937 -18.829 -24.347  0.00  0.00    +0.021 C 
ATOM     16  C   UNL     1      34.476 -14.766 -21.450  0.00  0.00    +0.051 C 
ATOM     17  H   UNL     1      34.951 -14.402 -24.092  0.00  0.00    +0.189 HD
ENDBRANCH   2  10
BRANCH   3  18
ATOM     18  O   UNL     1      36.199 -22.394 -18.585  0.00  0.00    -0.476 OA
BRANCH  18  19
ATOM     19  C   UNL     1      36.346 -22.017 -17.215  0.00  0.00    +0.184 C 
BRANCH  19  20
ATOM     20  C   UNL     1      36.065 -23.215 -16.300  0.00  0.00    -0.017 C 
BRANCH  20  21
ATOM     21  N   UNL     1      37.348 -23.756 -15.840  0.00  0.00    +0.384 N 
ATOM     22  H   UNL     1      37.451 -23.582 -14.841  0.00  0.00    -0.089 HD
ATOM     23  H   UNL     1      38.109 -23.301 -16.344  0.00  0.00    -0.089 HD
ATOM     24  H   UNL     1      37.377 -24.760 -16.016  0.00  0.00    -0.089 HD
ENDBRANCH  20  21
BRANCH  20  25
ATOM     25  C   UNL     1      35.223 -22.848 -15.060  0.00  0.00    +0.008 C 
BRANCH  25  27
ATOM     26 BR   UNL     1      29.598 -25.381 -14.922  0.00  0.00    -0.049 Br
ATOM     27  C   UNL     1      33.847 -23.468 -15.027  0.00  0.00    -0.024 C 
ATOM     28  C   UNL     1      32.937 -23.156 -16.025  0.00  0.00    -0.004 C 
ATOM     29  C   UNL     1      33.519 -24.336 -13.999  0.00  0.00    -0.004 C 
ATOM     30  C   UNL     1      31.666 -23.729 -15.994  0.00  0.00    +0.006 C 
ATOM     31  C   UNL     1      32.248 -24.909 -13.968  0.00  0.00    +0.006 C 
ATOM     32  C   UNL     1      31.321 -24.606 -14.965  0.00  0.00    +0.035 C 
ENDBRANCH  25  27
ENDBRANCH  20  25
ENDBRANCH  19  20
ENDBRANCH  18  19
ENDBRANCH   3  18
TORSDOF 7
ENDMDL
MODEL 8
REMARK VINA RESULT:     -10.7      5.150     10.968
REMARK  Name = 16122642
REMARK  7 active torsions:
REMARK  status: ('A' for Active; 'I' for Inactive)
REMARK    1  A    between atoms: C_2  and  C_10
REMARK    2  A    between atoms: C_3  and  O_18
REMARK    3  A    between atoms: O_18  and  C_19
REMARK    4  A    between atoms: C_19  and  C_20
REMARK    5  A    between atoms: C_20  and  N_21
REMARK    6  A    between atoms: C_20  and  C_25
REMARK    7  A    between atoms: C_25  and  C_27
REMARK                            x       y       z     vdW  Elec       q    Type
REMARK                         _______ _______ _______ _____ _____    ______ ____
ROOT
ATOM      1  N   UNL     1      36.689 -22.254 -17.166  0.00  0.00    -0.239 NA
ATOM      2  C   UNL     1      34.371 -22.911 -17.061  0.00  0.00    +0.022 C 
ATOM      3  C   UNL     1      35.254 -21.990 -19.093  0.00  0.00    +0.158 C 
ATOM      4  C   UNL     1      34.184 -22.517 -18.377  0.00  0.00    +0.040 C 
ATOM      5  C   UNL     1      35.627 -22.764 -16.503  0.00  0.00    +0.099 C 
ATOM      6  C   UNL     1      36.475 -21.880 -18.447  0.00  0.00    +0.136 C 
ENDROOT
BRANCH   2  10
ATOM      7  N   UNL     1      29.191 -24.472 -14.973  0.00  0.00    -0.280 N 
ATOM      8  N   UNL     1      30.135 -24.993 -14.166  0.00  0.00    -0.173 NA
ATOM      9  C   UNL     1      31.031 -23.804 -15.881  0.00  0.00    +0.032 A 
ATOM     10  C   UNL     1      33.275 -23.466 -16.289  0.00  0.00    +0.002 C 
ATOM     11  C   UNL     1      31.301 -24.596 -14.705  0.00  0.00    +0.102 A 
ATOM     12  C   UNL     1      31.960 -23.206 -16.724  0.00  0.00    +0.003 C 
ATOM     13  C   UNL     1      29.674 -23.746 -16.022  0.00  0.00    +0.053 A 
ATOM     14  C   UNL     1      33.594 -24.243 -15.132  0.00  0.00    +0.002 C 
ATOM     15  C   UNL     1      32.625 -24.838 -14.295  0.00  0.00    +0.021 C 
ATOM     16  C   UNL     1      28.783 -23.105 -17.004  0.00  0.00    +0.051 C 
ATOM     17  H   UNL     1      28.228 -24.603 -14.817  0.00  0.00    +0.189 HD
ENDBRANCH   2  10
BRANCH   3  18
ATOM     18  O   UNL     1      35.105 -21.595 -20.381  0.00  0.00    -0.476 OA
BRANCH  18  19
ATOM     19  C   UNL     1      34.259 -20.470 -20.629  0.00  0.00    +0.184 C 
BRANCH  19  20
ATOM     20  C   UNL     1      35.063 -19.331 -21.268  0.00  0.00    -0.017 C 
BRANCH  20  21
ATOM     21  N   UNL     1      36.452 -19.434 -20.812  0.00  0.00    +0.384 N 
ATOM     22  H   UNL     1      36.697 -20.416 -20.687  0.00  0.00    -0.089 HD
ATOM     23  H   UNL     1      36.556 -18.943 -19.924  0.00  0.00    -0.089 HD
ATOM     24  H   UNL     1      37.071 -19.015 -21.507  0.00  0.00    -0.089 HD
ENDBRANCH  20  21
BRANCH  20  25
ATOM     25  C   UNL     1      35.056 -19.374 -22.811  0.00  0.00    +0.008 C 
BRANCH  25  27
ATOM     26 BR   UNL     1      33.486 -14.061 -25.529  0.00  0.00    -0.049 Br
ATOM     27  C   UNL     1      34.673 -18.074 -23.476  0.00  0.00    -0.024 C 
ATOM     28  C   UNL     1      34.993 -16.875 -22.859  0.00  0.00    -0.004 C 
ATOM     29  C   UNL     1      34.007 -18.104 -24.690  0.00  0.00    -0.004 C 
ATOM     30  C   UNL     1      34.638 -15.674 -23.473  0.00  0.00    +0.006 C 
ATOM     31  C   UNL     1      33.652 -16.904 -25.304  0.00  0.00    +0.006 C 
ATOM     32  C   UNL     1      33.968 -15.689 -24.696  0.00  0.00    +0.035 C 
ENDBRANCH  25  27
ENDBRANCH  20  25
ENDBRANCH  19  20
ENDBRANCH  18  19
ENDBRANCH   3  18
TORSDOF 7
ENDMDL
MODEL 9
REMARK VINA RESULT:     -10.6      4.454      9.701
REMARK  Name = 16122642
REMARK  7 active torsions:
REMARK  status: ('A' for Active; 'I' for Inactive)
REMARK    1  A    between atoms: C_2  and  C_10
REMARK    2  A    between atoms: C_3  and  O_18
REMARK    3  A    between atoms: O_18  and  C_19
REMARK    4  A    between atoms: C_19  and  C_20
REMARK    5  A    between atoms: C_20  and  N_21
REMARK    6  A    between atoms: C_20  and  C_25
REMARK    7  A    between atoms: C_25  and  C_27
REMARK                            x       y       z     vdW  Elec       q    Type
REMARK                         _______ _______ _______ _____ _____    ______ ____
ROOT
ATOM      1  N   UNL     1      31.562 -11.751 -20.153  0.00  0.00    -0.239 NA
ATOM      2  C   UNL     1      32.440 -12.452 -22.286  0.00  0.00    +0.022 C 
ATOM      3  C   UNL     1      31.605 -10.218 -22.022  0.00  0.00    +0.158 C 
ATOM      4  C   UNL     1      32.178 -11.200 -22.823  0.00  0.00    +0.040 C 
ATOM      5  C   UNL     1      32.121 -12.679 -20.961  0.00  0.00    +0.099 C 
ATOM      6  C   UNL     1      31.320 -10.541 -20.705  0.00  0.00    +0.136 C 
ENDROOT
BRANCH   2  10
ATOM      7  N   UNL     1      35.215 -17.152 -24.245  0.00  0.00    -0.280 N 
ATOM      8  N   UNL     1      34.747 -16.475 -25.312  0.00  0.00    -0.173 NA
ATOM      9  C   UNL     1      34.225 -15.457 -23.350  0.00  0.00    +0.032 A 
ATOM     10  C   UNL     1      33.038 -13.497 -23.097  0.00  0.00    +0.002 C 
ATOM     11  C   UNL     1      34.120 -15.407 -24.788  0.00  0.00    +0.102 A 
ATOM     12  C   UNL     1      33.712 -14.544 -22.437  0.00  0.00    +0.003 C 
ATOM     13  C   UNL     1      34.930 -16.584 -23.038  0.00  0.00    +0.053 A 
ATOM     14  C   UNL     1      32.907 -13.402 -24.518  0.00  0.00    +0.002 C 
ATOM     15  C   UNL     1      33.440 -14.349 -25.420  0.00  0.00    +0.021 C 
ATOM     16  C   UNL     1      35.364 -17.190 -21.768  0.00  0.00    +0.051 C 
ATOM     17  H   UNL     1      35.724 -17.990 -24.331  0.00  0.00    +0.189 HD
ENDBRANCH   2  10
BRANCH   3  18
ATOM     18  O   UNL     1      31.336  -8.984 -22.514  0.00  0.00    -0.476 OA
BRANCH  18  19
ATOM     19  C   UNL     1      32.117  -7.895 -22.017  0.00  0.00    +0.184 C 
BRANCH  19  20
ATOM     20  C   UNL     1      32.711  -7.092 -23.181  0.00  0.00    -0.017 C 
BRANCH  20  21
ATOM     21  N   UNL     1      32.717  -5.675 -22.808  0.00  0.00    +0.384 N 
ATOM     22  H   UNL     1      31.951  -5.490 -22.162  0.00  0.00    -0.089 HD
ATOM     23  H   UNL     1      32.602  -5.102 -23.644  0.00  0.00    -0.089 HD
ATOM     24  H   UNL     1      33.604  -5.445 -22.358  0.00  0.00    -0.089 HD
ENDBRANCH  20  21
BRANCH  20  25
ATOM     25  C   UNL     1      34.156  -7.507 -23.529  0.00  0.00    +0.008 C 
BRANCH  25  27
ATOM     26 BR   UNL     1      34.599 -11.953 -27.786  0.00  0.00    -0.049 Br
ATOM     27  C   UNL     1      34.265  -8.596 -24.570  0.00  0.00    -0.024 C 
ATOM     28  C   UNL     1      35.464  -9.274 -24.721  0.00  0.00    -0.004 C 
ATOM     29  C   UNL     1      33.164  -8.894 -25.355  0.00  0.00    -0.004 C 
ATOM     30  C   UNL     1      35.564 -10.279 -25.683  0.00  0.00    +0.006 C 
ATOM     31  C   UNL     1      33.264  -9.899 -26.318  0.00  0.00    +0.006 C 
ATOM     32  C   UNL     1      34.463 -10.592 -26.481  0.00  0.00    +0.035 C 
ENDBRANCH  25  27
ENDBRANCH  20  25
ENDBRANCH  19  20
ENDBRANCH  18  19
ENDBRANCH   3  18
TORSDOF 7
ENDMDL
