MODEL 1
REMARK VINA RESULT:     -12.1      0.000      0.000
REMARK  Name = 208951
REMARK  4 active torsions:
REMARK  status: ('A' for Active; 'I' for Inactive)
REMARK    1  A    between atoms: N_1  and  C_19
REMARK    2  A    between atoms: N_2  and  C_11
REMARK    3  A    between atoms: C_19  and  C_20
REMARK    4  A    between atoms: C_23  and  C_26
REMARK                            x       y       z     vdW  Elec       q    Type
REMARK                         _______ _______ _______ _____ _____    ______ ____
ROOT
ATOM      1  N   UNL     1      34.363 -16.168 -24.391  0.00  0.00    +0.392 N 
ATOM      2  N   UNL     1      33.753 -13.387 -24.161  0.00  0.00    -0.309 N 
ATOM      3  C   UNL     1      34.217 -15.546 -23.070  0.00  0.00    -0.055 C 
ATOM      4  C   UNL     1      33.454 -15.526 -25.349  0.00  0.00    -0.055 C 
ATOM      5  C   UNL     1      34.548 -14.053 -23.124  0.00  0.00    +0.068 C 
ATOM      6  C   UNL     1      33.761 -14.032 -25.480  0.00  0.00    +0.068 C 
ATOM      7  H   UNL     1      35.323 -16.039 -24.712  0.00  0.00    -0.079 HD
ENDROOT
BRANCH   2  11
ATOM      8  O   UNL     1      31.814 -12.077 -22.373  0.00  0.00    -0.406 OA
ATOM      9  O   UNL     1      30.246 -11.217 -20.906  0.00  0.00    -0.223 OA
ATOM     10  N   UNL     1      31.494  -9.803 -22.275  0.00  0.00    -0.287 N 
ATOM     11  C   UNL     1      33.564 -12.001 -24.108  0.00  0.00    +0.084 C 
ATOM     12  C   UNL     1      32.643 -11.404 -23.256  0.00  0.00    +0.179 A 
ATOM     13  C   UNL     1      34.305 -11.122 -24.924  0.00  0.00    +0.018 C 
ATOM     14  C   UNL     1      32.466 -10.038 -23.212  0.00  0.00    +0.098 A 
ATOM     15  C   UNL     1      34.115  -9.726 -24.871  0.00  0.00    +0.003 C 
ATOM     16  C   UNL     1      33.179  -9.164 -24.000  0.00  0.00    +0.020 C 
ATOM     17  C   UNL     1      31.098 -11.028 -21.766  0.00  0.00    +0.419 A 
ATOM     18  H   UNL     1      31.142  -8.923 -22.012  0.00  0.00    +0.172 HD
ENDBRANCH   2  11
BRANCH   1  19
ATOM     19  C   UNL     1      34.096 -17.603 -24.315  0.00  0.00    -0.050 C 
BRANCH  19  20
ATOM     20  C   UNL     1      34.906 -18.248 -23.223  0.00  0.00    -0.043 C 
ATOM     21  C   UNL     1      34.298 -19.156 -22.366  0.00  0.00    -0.006 C 
ATOM     22  C   UNL     1      36.250 -17.927 -23.087  0.00  0.00    -0.006 C 
ATOM     23  C   UNL     1      35.050 -19.754 -21.354  0.00  0.00    -0.000 C 
ATOM     24  C   UNL     1      37.001 -18.525 -22.076  0.00  0.00    -0.000 C 
ATOM     25  C   UNL     1      36.401 -19.438 -21.209  0.00  0.00    -0.000 C 
BRANCH  23  26
ATOM     26  C   UNL     1      34.429 -20.704 -20.456  0.00  0.00    -0.000 C 
ATOM     27  C   UNL     1      35.219 -21.588 -19.721  0.00  0.00    -0.000 C 
ATOM     28  C   UNL     1      33.040 -20.733 -20.324  0.00  0.00    -0.000 C 
ATOM     29  C   UNL     1      34.620 -22.503 -18.855  0.00  0.00    -0.000 C 
ATOM     30  C   UNL     1      32.442 -21.648 -19.458  0.00  0.00    -0.000 C 
ATOM     31  C   UNL     1      33.232 -22.533 -18.723  0.00  0.00    +0.000 C 
ENDBRANCH  23  26
ENDBRANCH  19  20
ENDBRANCH   1  19
TORSDOF 4
ENDMDL
MODEL 2
REMARK VINA RESULT:     -12.1      1.560      2.434
REMARK  Name = 208951
REMARK  4 active torsions:
REMARK  status: ('A' for Active; 'I' for Inactive)
REMARK    1  A    between atoms: N_1  and  C_19
REMARK    2  A    between atoms: N_2  and  C_11
REMARK    3  A    between atoms: C_19  and  C_20
REMARK    4  A    between atoms: C_23  and  C_26
REMARK                            x       y       z     vdW  Elec       q    Type
REMARK                         _______ _______ _______ _____ _____    ______ ____
ROOT
ATOM      1  N   UNL     1      34.590 -16.538 -24.266  0.00  0.00    +0.392 N 
ATOM      2  N   UNL     1      33.491 -13.987 -23.598  0.00  0.00    -0.309 N 
ATOM      3  C   UNL     1      34.526 -16.100 -22.867  0.00  0.00    -0.055 C 
ATOM      4  C   UNL     1      33.440 -16.008 -25.009  0.00  0.00    -0.055 C 
ATOM      5  C   UNL     1      34.548 -14.573 -22.767  0.00  0.00    +0.068 C 
ATOM      6  C   UNL     1      33.426 -14.477 -24.981  0.00  0.00    +0.068 C 
ATOM      7  H   UNL     1      35.447 -16.177 -24.685  0.00  0.00    -0.079 HD
ENDROOT
BRANCH   2  11
ATOM      8  O   UNL     1      34.518 -11.609 -24.999  0.00  0.00    -0.406 OA
ATOM      9  O   UNL     1      35.435  -9.855 -26.197  0.00  0.00    -0.223 OA
ATOM     10  N   UNL     1      33.793  -9.467 -24.588  0.00  0.00    -0.287 N 
ATOM     11  C   UNL     1      33.045 -12.686 -23.341  0.00  0.00    +0.084 C 
ATOM     12  C   UNL     1      33.543 -11.577 -24.014  0.00  0.00    +0.179 A 
ATOM     13  C   UNL     1      32.054 -12.422 -22.374  0.00  0.00    +0.018 C 
ATOM     14  C   UNL     1      33.096 -10.300 -23.753  0.00  0.00    +0.098 A 
ATOM     15  C   UNL     1      31.604 -11.111 -22.115  0.00  0.00    +0.003 C 
ATOM     16  C   UNL     1      32.129 -10.023 -22.814  0.00  0.00    +0.020 C 
ATOM     17  C   UNL     1      34.652 -10.251 -25.341  0.00  0.00    +0.419 A 
ATOM     18  H   UNL     1      33.701  -8.489 -24.642  0.00  0.00    +0.172 HD
ENDBRANCH   2  11
BRANCH   1  19
ATOM     19  C   UNL     1      34.623 -17.997 -24.345  0.00  0.00    -0.050 C 
BRANCH  19  20
ATOM     20  C   UNL     1      35.289 -18.591 -23.134  0.00  0.00    -0.043 C 
ATOM     21  C   UNL     1      34.566 -19.434 -22.299  0.00  0.00    -0.006 C 
ATOM     22  C   UNL     1      36.618 -18.291 -22.868  0.00  0.00    -0.006 C 
ATOM     23  C   UNL     1      35.185 -19.985 -21.177  0.00  0.00    -0.000 C 
ATOM     24  C   UNL     1      37.236 -18.841 -21.746  0.00  0.00    -0.000 C 
ATOM     25  C   UNL     1      36.520 -19.688 -20.900  0.00  0.00    -0.000 C 
BRANCH  23  26
ATOM     26  C   UNL     1      34.443 -20.865 -20.301  0.00  0.00    -0.000 C 
ATOM     27  C   UNL     1      33.051 -20.793 -20.255  0.00  0.00    -0.000 C 
ATOM     28  C   UNL     1      35.121 -21.787 -19.501  0.00  0.00    -0.000 C 
ATOM     29  C   UNL     1      32.336 -21.642 -19.410  0.00  0.00    -0.000 C 
ATOM     30  C   UNL     1      34.405 -22.635 -18.656  0.00  0.00    -0.000 C 
ATOM     31  C   UNL     1      33.012 -22.563 -18.611  0.00  0.00    +0.000 C 
ENDBRANCH  23  26
ENDBRANCH  19  20
ENDBRANCH   1  19
TORSDOF 4
ENDMDL
MODEL 3
REMARK VINA RESULT:     -11.6      7.011     12.421
REMARK  Name = 208951
REMARK  4 active torsions:
REMARK  status: ('A' for Active; 'I' for Inactive)
REMARK    1  A    between atoms: N_1  and  C_19
REMARK    2  A    between atoms: N_2  and  C_11
REMARK    3  A    between atoms: C_19  and  C_20
REMARK    4  A    between atoms: C_23  and  C_26
REMARK                            x       y       z     vdW  Elec       q    Type
REMARK                         _______ _______ _______ _____ _____    ______ ____
ROOT
ATOM      1  N   UNL     1      35.951 -21.882 -18.047  0.00  0.00    +0.392 N 
ATOM      2  N   UNL     1      35.964 -23.263 -15.547  0.00  0.00    -0.309 N 
ATOM      3  C   UNL     1      37.207 -22.085 -17.317  0.00  0.00    -0.055 C 
ATOM      4  C   UNL     1      35.054 -23.023 -17.825  0.00  0.00    -0.055 C 
ATOM      5  C   UNL     1      36.955 -22.216 -15.813  0.00  0.00    +0.068 C 
ATOM      6  C   UNL     1      34.729 -23.184 -16.337  0.00  0.00    +0.068 C 
ATOM      7  H   UNL     1      35.500 -21.036 -17.698  0.00  0.00    -0.079 HD
ENDROOT
BRANCH   2  11
ATOM      8  O   UNL     1      38.046 -25.037 -14.457  0.00  0.00    -0.406 OA
ATOM      9  O   UNL     1      39.775 -26.407 -13.760  0.00  0.00    -0.223 OA
ATOM     10  N   UNL     1      37.946 -26.003 -12.373  0.00  0.00    -0.287 N 
ATOM     11  C   UNL     1      35.895 -23.847 -14.277  0.00  0.00    +0.084 C 
ATOM     12  C   UNL     1      36.889 -24.682 -13.782  0.00  0.00    +0.179 A 
ATOM     13  C   UNL     1      34.801 -23.620 -13.417  0.00  0.00    +0.018 C 
ATOM     14  C   UNL     1      36.811 -25.251 -12.529  0.00  0.00    +0.098 A 
ATOM     15  C   UNL     1      34.731 -24.208 -12.137  0.00  0.00    +0.003 C 
ATOM     16  C   UNL     1      35.752 -25.041 -11.676  0.00  0.00    +0.020 C 
ATOM     17  C   UNL     1      38.694 -25.877 -13.532  0.00  0.00    +0.419 A 
ATOM     18  H   UNL     1      38.186 -26.535 -11.581  0.00  0.00    +0.172 HD
ENDBRANCH   2  11
BRANCH   1  19
ATOM     19  C   UNL     1      36.210 -21.705 -19.475  0.00  0.00    -0.050 C 
BRANCH  19  20
ATOM     20  C   UNL     1      35.038 -21.059 -20.163  0.00  0.00    -0.043 C 
ATOM     21  C   UNL     1      35.263 -20.109 -21.151  0.00  0.00    -0.006 C 
ATOM     22  C   UNL     1      33.747 -21.421 -19.802  0.00  0.00    -0.006 C 
ATOM     23  C   UNL     1      34.176 -19.512 -21.789  0.00  0.00    -0.000 C 
ATOM     24  C   UNL     1      32.661 -20.824 -20.439  0.00  0.00    -0.000 C 
ATOM     25  C   UNL     1      32.875 -19.869 -21.433  0.00  0.00    -0.000 C 
BRANCH  23  26
ATOM     26  C   UNL     1      34.397 -18.522 -22.822  0.00  0.00    -0.000 C 
ATOM     27  C   UNL     1      34.991 -17.301 -22.502  0.00  0.00    -0.000 C 
ATOM     28  C   UNL     1      34.017 -18.790 -24.138  0.00  0.00    -0.000 C 
ATOM     29  C   UNL     1      35.205 -16.348 -23.497  0.00  0.00    -0.000 C 
ATOM     30  C   UNL     1      34.230 -17.836 -25.132  0.00  0.00    -0.000 C 
ATOM     31  C   UNL     1      34.825 -16.615 -24.812  0.00  0.00    +0.000 C 
ENDBRANCH  23  26
ENDBRANCH  19  20
ENDBRANCH   1  19
TORSDOF 4
ENDMDL
MODEL 4
REMARK VINA RESULT:     -11.5      2.819      9.529
REMARK  Name = 208951
REMARK  4 active torsions:
REMARK  status: ('A' for Active; 'I' for Inactive)
REMARK    1  A    between atoms: N_1  and  C_19
REMARK    2  A    between atoms: N_2  and  C_11
REMARK    3  A    between atoms: C_19  and  C_20
REMARK    4  A    between atoms: C_23  and  C_26
REMARK                            x       y       z     vdW  Elec       q    Type
REMARK                         _______ _______ _______ _____ _____    ______ ____
ROOT
ATOM      1  N   UNL     1      33.958 -15.075 -24.638  0.00  0.00    +0.392 N 
ATOM      2  N   UNL     1      34.906 -17.211 -22.995  0.00  0.00    -0.309 N 
ATOM      3  C   UNL     1      33.798 -16.470 -25.066  0.00  0.00    -0.055 C 
ATOM      4  C   UNL     1      33.859 -14.988 -23.176  0.00  0.00    -0.055 C 
ATOM      5  C   UNL     1      34.881 -17.362 -24.454  0.00  0.00    +0.068 C 
ATOM      6  C   UNL     1      34.944 -15.829 -22.500  0.00  0.00    +0.068 C 
ATOM      7  H   UNL     1      34.881 -14.746 -24.925  0.00  0.00    -0.079 HD
ENDROOT
BRANCH   2  11
ATOM      8  O   UNL     1      33.360 -19.317 -21.637  0.00  0.00    -0.406 OA
ATOM      9  O   UNL     1      31.991 -20.896 -20.643  0.00  0.00    -0.223 OA
ATOM     10  N   UNL     1      34.301 -20.962 -20.336  0.00  0.00    -0.287 N 
ATOM     11  C   UNL     1      35.487 -18.209 -22.204  0.00  0.00    +0.084 C 
ATOM     12  C   UNL     1      34.738 -19.194 -21.572  0.00  0.00    +0.179 A 
ATOM     13  C   UNL     1      36.881 -18.274 -22.001  0.00  0.00    +0.018 C 
ATOM     14  C   UNL     1      35.322 -20.172 -20.796  0.00  0.00    +0.098 A 
ATOM     15  C   UNL     1      37.467 -19.279 -21.204  0.00  0.00    +0.003 C 
ATOM     16  C   UNL     1      36.679 -20.251 -20.586  0.00  0.00    +0.020 C 
ATOM     17  C   UNL     1      33.116 -20.451 -20.840  0.00  0.00    +0.419 A 
ATOM     18  H   UNL     1      34.393 -21.749 -19.753  0.00  0.00    +0.172 HD
ENDBRANCH   2  11
BRANCH   1  19
ATOM     19  C   UNL     1      32.952 -14.225 -25.272  0.00  0.00    -0.050 C 
BRANCH  19  20
ATOM     20  C   UNL     1      33.567 -12.955 -25.795  0.00  0.00    -0.043 C 
ATOM     21  C   UNL     1      33.608 -11.830 -24.982  0.00  0.00    -0.006 C 
ATOM     22  C   UNL     1      34.087 -12.925 -27.082  0.00  0.00    -0.006 C 
ATOM     23  C   UNL     1      34.179 -10.653 -25.467  0.00  0.00    -0.000 C 
ATOM     24  C   UNL     1      34.658 -11.749 -27.566  0.00  0.00    -0.000 C 
ATOM     25  C   UNL     1      34.703 -10.613 -26.759  0.00  0.00    -0.000 C 
BRANCH  23  26
ATOM     26  C   UNL     1      34.228  -9.474 -24.630  0.00  0.00    -0.000 C 
ATOM     27  C   UNL     1      35.286  -8.574 -24.753  0.00  0.00    -0.000 C 
ATOM     28  C   UNL     1      33.216  -9.236 -23.699  0.00  0.00    -0.000 C 
ATOM     29  C   UNL     1      35.334  -7.437 -23.947  0.00  0.00    -0.000 C 
ATOM     30  C   UNL     1      33.264  -8.100 -22.892  0.00  0.00    -0.000 C 
ATOM     31  C   UNL     1      34.322  -7.200 -23.016  0.00  0.00    +0.000 C 
ENDBRANCH  23  26
ENDBRANCH  19  20
ENDBRANCH   1  19
TORSDOF 4
ENDMDL
MODEL 5
REMARK VINA RESULT:     -11.4      6.815     12.315
REMARK  Name = 208951
REMARK  4 active torsions:
REMARK  status: ('A' for Active; 'I' for Inactive)
REMARK    1  A    between atoms: N_1  and  C_19
REMARK    2  A    between atoms: N_2  and  C_11
REMARK    3  A    between atoms: C_19  and  C_20
REMARK    4  A    between atoms: C_23  and  C_26
REMARK                            x       y       z     vdW  Elec       q    Type
REMARK                         _______ _______ _______ _____ _____    ______ ____
ROOT
ATOM      1  N   UNL     1      34.238 -22.334 -18.147  0.00  0.00    +0.392 N 
ATOM      2  N   UNL     1      35.024 -23.626 -15.725  0.00  0.00    -0.309 N 
ATOM      3  C   UNL     1      35.659 -22.497 -17.819  0.00  0.00    -0.055 C 
ATOM      4  C   UNL     1      33.472 -23.475 -17.633  0.00  0.00    -0.055 C 
ATOM      5  C   UNL     1      35.869 -22.578 -16.306  0.00  0.00    +0.068 C 
ATOM      6  C   UNL     1      33.608 -23.589 -16.113  0.00  0.00    +0.068 C 
ATOM      7  H   UNL     1      33.894 -21.481 -17.705  0.00  0.00    -0.079 HD
ENDROOT
BRANCH   2  11
ATOM      8  O   UNL     1      37.345 -25.380 -15.264  0.00  0.00    -0.406 OA
ATOM      9  O   UNL     1      39.207 -26.740 -15.083  0.00  0.00    -0.223 OA
ATOM     10  N   UNL     1      37.889 -26.275 -13.217  0.00  0.00    -0.287 N 
ATOM     11  C   UNL     1      35.349 -24.168 -14.475  0.00  0.00    +0.084 C 
ATOM     12  C   UNL     1      36.449 -24.993 -14.280  0.00  0.00    +0.179 A 
ATOM     13  C   UNL     1      34.570 -23.902 -13.330  0.00  0.00    +0.018 C 
ATOM     14  C   UNL     1      36.759 -25.519 -13.045  0.00  0.00    +0.098 A 
ATOM     15  C   UNL     1      34.897 -24.447 -12.071  0.00  0.00    +0.003 C 
ATOM     16  C   UNL     1      36.012 -25.272 -11.916  0.00  0.00    +0.020 C 
ATOM     17  C   UNL     1      38.247 -26.194 -14.554  0.00  0.00    +0.419 A 
ATOM     18  H   UNL     1      38.362 -26.781 -12.519  0.00  0.00    +0.172 HD
ENDBRANCH   2  11
BRANCH   1  19
ATOM     19  C   UNL     1      34.057 -22.203 -19.592  0.00  0.00    -0.050 C 
BRANCH  19  20
ATOM     20  C   UNL     1      34.978 -21.158 -20.162  0.00  0.00    -0.043 C 
ATOM     21  C   UNL     1      34.528 -20.334 -21.185  0.00  0.00    -0.006 C 
ATOM     22  C   UNL     1      36.265 -21.032 -19.657  0.00  0.00    -0.006 C 
ATOM     23  C   UNL     1      35.382 -19.365 -21.712  0.00  0.00    -0.000 C 
ATOM     24  C   UNL     1      37.119 -20.064 -20.184  0.00  0.00    -0.000 C 
ATOM     25  C   UNL     1      36.678 -19.231 -21.211  0.00  0.00    -0.000 C 
BRANCH  23  26
ATOM     26  C   UNL     1      34.925 -18.498 -22.776  0.00  0.00    -0.000 C 
ATOM     27  C   UNL     1      35.181 -17.129 -22.720  0.00  0.00    -0.000 C 
ATOM     28  C   UNL     1      34.227 -19.034 -23.860  0.00  0.00    -0.000 C 
ATOM     29  C   UNL     1      34.741 -16.294 -23.747  0.00  0.00    -0.000 C 
ATOM     30  C   UNL     1      33.786 -18.198 -24.886  0.00  0.00    -0.000 C 
ATOM     31  C   UNL     1      34.044 -16.828 -24.830  0.00  0.00    +0.000 C 
ENDBRANCH  23  26
ENDBRANCH  19  20
ENDBRANCH   1  19
TORSDOF 4
ENDMDL
MODEL 6
REMARK VINA RESULT:     -11.1      1.751      3.079
REMARK  Name = 208951
REMARK  4 active torsions:
REMARK  status: ('A' for Active; 'I' for Inactive)
REMARK    1  A    between atoms: N_1  and  C_19
REMARK    2  A    between atoms: N_2  and  C_11
REMARK    3  A    between atoms: C_19  and  C_20
REMARK    4  A    between atoms: C_23  and  C_26
REMARK                            x       y       z     vdW  Elec       q    Type
REMARK                         _______ _______ _______ _____ _____    ______ ____
ROOT
ATOM      1  N   UNL     1      34.060 -14.833 -22.999  0.00  0.00    +0.392 N 
ATOM      2  N   UNL     1      32.873 -12.500 -21.855  0.00  0.00    -0.309 N 
ATOM      3  C   UNL     1      33.935 -13.601 -23.786  0.00  0.00    -0.055 C 
ATOM      4  C   UNL     1      34.284 -14.503 -21.586  0.00  0.00    -0.055 C 
ATOM      5  C   UNL     1      32.760 -12.751 -23.296  0.00  0.00    +0.068 C 
ATOM      6  C   UNL     1      33.121 -13.684 -21.022  0.00  0.00    +0.068 C 
ATOM      7  H   UNL     1      33.192 -15.365 -23.079  0.00  0.00    -0.079 HD
ENDROOT
BRANCH   2  11
ATOM      8  O   UNL     1      32.433  -9.932 -23.227  0.00  0.00    -0.406 OA
ATOM      9  O   UNL     1      32.179  -7.984 -24.450  0.00  0.00    -0.223 OA
ATOM     10  N   UNL     1      31.303  -8.159 -22.297  0.00  0.00    -0.287 N 
ATOM     11  C   UNL     1      32.184 -11.425 -21.281  0.00  0.00    +0.084 C 
ATOM     12  C   UNL     1      31.988 -10.221 -21.947  0.00  0.00    +0.179 A 
ATOM     13  C   UNL     1      31.644 -11.503 -19.982  0.00  0.00    +0.018 C 
ATOM     14  C   UNL     1      31.308  -9.170 -21.372  0.00  0.00    +0.098 A 
ATOM     15  C   UNL     1      30.950 -10.420 -19.403  0.00  0.00    +0.003 C 
ATOM     16  C   UNL     1      30.773  -9.227 -20.105  0.00  0.00    +0.020 C 
ATOM     17  C   UNL     1      31.980  -8.613 -23.417  0.00  0.00    +0.419 A 
ATOM     18  H   UNL     1      30.894  -7.271 -22.185  0.00  0.00    +0.172 HD
ENDBRANCH   2  11
BRANCH   1  19
ATOM     19  C   UNL     1      35.150 -15.661 -23.511  0.00  0.00    -0.050 C 
BRANCH  19  20
ATOM     20  C   UNL     1      34.737 -17.105 -23.607  0.00  0.00    -0.043 C 
ATOM     21  C   UNL     1      34.846 -17.923 -22.490  0.00  0.00    -0.006 C 
ATOM     22  C   UNL     1      34.251 -17.600 -24.809  0.00  0.00    -0.006 C 
ATOM     23  C   UNL     1      34.461 -19.261 -22.578  0.00  0.00    -0.000 C 
ATOM     24  C   UNL     1      33.867 -18.937 -24.898  0.00  0.00    -0.000 C 
ATOM     25  C   UNL     1      33.972 -19.768 -23.783  0.00  0.00    -0.000 C 
BRANCH  23  26
ATOM     26  C   UNL     1      34.568 -20.123 -21.421  0.00  0.00    -0.000 C 
ATOM     27  C   UNL     1      35.824 -20.454 -20.912  0.00  0.00    -0.000 C 
ATOM     28  C   UNL     1      33.415 -20.623 -20.814  0.00  0.00    -0.000 C 
ATOM     29  C   UNL     1      35.927 -21.285 -19.796  0.00  0.00    -0.000 C 
ATOM     30  C   UNL     1      33.519 -21.454 -19.699  0.00  0.00    -0.000 C 
ATOM     31  C   UNL     1      34.775 -21.784 -19.189  0.00  0.00    +0.000 C 
ENDBRANCH  23  26
ENDBRANCH  19  20
ENDBRANCH   1  19
TORSDOF 4
ENDMDL
MODEL 7
REMARK VINA RESULT:     -10.9      4.928     10.517
REMARK  Name = 208951
REMARK  4 active torsions:
REMARK  status: ('A' for Active; 'I' for Inactive)
REMARK    1  A    between atoms: N_1  and  C_19
REMARK    2  A    between atoms: N_2  and  C_11
REMARK    3  A    between atoms: C_19  and  C_20
REMARK    4  A    between atoms: C_23  and  C_26
REMARK                            x       y       z     vdW  Elec       q    Type
REMARK                         _______ _______ _______ _____ _____    ______ ____
ROOT
ATOM      1  N   UNL     1      35.605 -20.394 -21.062  0.00  0.00    +0.392 N 
ATOM      2  N   UNL     1      34.303 -21.753 -18.914  0.00  0.00    -0.309 N 
ATOM      3  C   UNL     1      34.219 -20.067 -20.707  0.00  0.00    -0.055 C 
ATOM      4  C   UNL     1      36.355 -20.766 -19.857  0.00  0.00    -0.055 C 
ATOM      5  C   UNL     1      33.521 -21.262 -20.053  0.00  0.00    +0.068 C 
ATOM      6  C   UNL     1      35.729 -21.985 -19.174  0.00  0.00    +0.068 C 
ATOM      7  H   UNL     1      35.602 -21.187 -21.705  0.00  0.00    -0.079 HD
ENDROOT
BRANCH   2  11
ATOM      8  O   UNL     1      35.768 -23.120 -16.756  0.00  0.00    -0.406 OA
ATOM      9  O   UNL     1      37.076 -24.124 -15.133  0.00  0.00    -0.223 OA
ATOM     10  N   UNL     1      34.760 -24.392 -15.128  0.00  0.00    -0.287 N 
ATOM     11  C   UNL     1      33.681 -22.527 -17.926  0.00  0.00    +0.084 C 
ATOM     12  C   UNL     1      34.392 -23.163 -16.917  0.00  0.00    +0.179 A 
ATOM     13  C   UNL     1      32.283 -22.705 -17.898  0.00  0.00    +0.018 C 
ATOM     14  C   UNL     1      33.769 -23.921 -15.949  0.00  0.00    +0.098 A 
ATOM     15  C   UNL     1      31.657 -23.484 -16.904  0.00  0.00    +0.003 C 
ATOM     16  C   UNL     1      32.407 -24.107 -15.905  0.00  0.00    +0.020 C 
ATOM     17  C   UNL     1      35.967 -23.912 -15.610  0.00  0.00    +0.419 A 
ATOM     18  H   UNL     1      34.637 -24.966 -14.339  0.00  0.00    +0.172 HD
ENDBRANCH   2  11
BRANCH   1  19
ATOM     19  C   UNL     1      36.242 -19.263 -21.735  0.00  0.00    -0.050 C 
BRANCH  19  20
ATOM     20  C   UNL     1      35.400 -18.767 -22.878  0.00  0.00    -0.043 C 
ATOM     21  C   UNL     1      35.158 -17.406 -23.009  0.00  0.00    -0.006 C 
ATOM     22  C   UNL     1      34.876 -19.676 -23.787  0.00  0.00    -0.006 C 
ATOM     23  C   UNL     1      34.377 -16.946 -24.070  0.00  0.00    -0.000 C 
ATOM     24  C   UNL     1      34.096 -19.217 -24.847  0.00  0.00    -0.000 C 
ATOM     25  C   UNL     1      33.845 -17.852 -24.989  0.00  0.00    -0.000 C 
BRANCH  23  26
ATOM     26  C   UNL     1      34.119 -15.530 -24.219  0.00  0.00    -0.000 C 
ATOM     27  C   UNL     1      33.597 -15.038 -25.415  0.00  0.00    -0.000 C 
ATOM     28  C   UNL     1      34.391 -14.657 -23.164  0.00  0.00    -0.000 C 
ATOM     29  C   UNL     1      33.348 -13.673 -25.557  0.00  0.00    -0.000 C 
ATOM     30  C   UNL     1      34.142 -13.293 -23.308  0.00  0.00    -0.000 C 
ATOM     31  C   UNL     1      33.620 -12.800 -24.504  0.00  0.00    +0.000 C 
ENDBRANCH  23  26
ENDBRANCH  19  20
ENDBRANCH   1  19
TORSDOF 4
ENDMDL
MODEL 8
REMARK VINA RESULT:     -10.2      3.414      6.496
REMARK  Name = 208951
REMARK  4 active torsions:
REMARK  status: ('A' for Active; 'I' for Inactive)
REMARK    1  A    between atoms: N_1  and  C_19
REMARK    2  A    between atoms: N_2  and  C_11
REMARK    3  A    between atoms: C_19  and  C_20
REMARK    4  A    between atoms: C_23  and  C_26
REMARK                            x       y       z     vdW  Elec       q    Type
REMARK                         _______ _______ _______ _____ _____    ______ ____
ROOT
ATOM      1  N   UNL     1      35.891 -20.563 -19.850  0.00  0.00    +0.392 N 
ATOM      2  N   UNL     1      35.190 -18.854 -22.028  0.00  0.00    -0.309 N 
ATOM      3  C   UNL     1      34.742 -20.882 -20.704  0.00  0.00    -0.055 C 
ATOM      4  C   UNL     1      36.936 -19.906 -20.644  0.00  0.00    -0.055 C 
ATOM      5  C   UNL     1      34.151 -19.615 -21.327  0.00  0.00    +0.068 C 
ATOM      6  C   UNL     1      36.419 -18.606 -21.264  0.00  0.00    +0.068 C 
ATOM      7  H   UNL     1      35.588 -19.925 -19.113  0.00  0.00    -0.079 HD
ENDROOT
BRANCH   2  11
ATOM      8  O   UNL     1      34.743 -15.996 -21.477  0.00  0.00    -0.406 OA
ATOM      9  O   UNL     1      34.433 -13.786 -20.866  0.00  0.00    -0.223 OA
ATOM     10  N   UNL     1      34.150 -14.458 -23.079  0.00  0.00    -0.287 N 
ATOM     11  C   UNL     1      34.827 -17.924 -23.010  0.00  0.00    +0.084 C 
ATOM     12  C   UNL     1      34.622 -16.579 -22.728  0.00  0.00    +0.179 A 
ATOM     13  C   UNL     1      34.650 -18.302 -24.356  0.00  0.00    +0.018 C 
ATOM     14  C   UNL     1      34.267 -15.673 -23.703  0.00  0.00    +0.098 A 
ATOM     15  C   UNL     1      34.285 -17.366 -25.346  0.00  0.00    +0.003 C 
ATOM     16  C   UNL     1      34.088 -16.023 -25.022  0.00  0.00    +0.020 C 
ATOM     17  C   UNL     1      34.436 -14.647 -21.737  0.00  0.00    +0.419 A 
ATOM     18  H   UNL     1      33.907 -13.607 -23.507  0.00  0.00    +0.172 HD
ENDBRANCH   2  11
BRANCH   1  19
ATOM     19  C   UNL     1      36.413 -21.774 -19.218  0.00  0.00    -0.050 C 
BRANCH  19  20
ATOM     20  C   UNL     1      35.426 -22.338 -18.232  0.00  0.00    -0.043 C 
ATOM     21  C   UNL     1      35.834 -22.601 -16.930  0.00  0.00    -0.006 C 
ATOM     22  C   UNL     1      34.122 -22.589 -18.635  0.00  0.00    -0.006 C 
ATOM     23  C   UNL     1      34.918 -23.123 -16.016  0.00  0.00    -0.000 C 
ATOM     24  C   UNL     1      33.207 -23.111 -17.722  0.00  0.00    -0.000 C 
ATOM     25  C   UNL     1      33.605 -23.379 -16.412  0.00  0.00    -0.000 C 
BRANCH  23  26
ATOM     26  C   UNL     1      35.330 -23.399 -14.657  0.00  0.00    -0.000 C 
ATOM     27  C   UNL     1      36.616 -23.061 -14.235  0.00  0.00    -0.000 C 
ATOM     28  C   UNL     1      34.441 -24.004 -13.767  0.00  0.00    -0.000 C 
ATOM     29  C   UNL     1      37.013 -23.326 -12.924  0.00  0.00    -0.000 C 
ATOM     30  C   UNL     1      34.838 -24.270 -12.458  0.00  0.00    -0.000 C 
ATOM     31  C   UNL     1      36.124 -23.931 -12.036  0.00  0.00    +0.000 C 
ENDBRANCH  23  26
ENDBRANCH  19  20
ENDBRANCH   1  19
TORSDOF 4
ENDMDL
MODEL 9
REMARK VINA RESULT:     -10.1      3.097      5.990
REMARK  Name = 208951
REMARK  4 active torsions:
REMARK  status: ('A' for Active; 'I' for Inactive)
REMARK    1  A    between atoms: N_1  and  C_19
REMARK    2  A    between atoms: N_2  and  C_11
REMARK    3  A    between atoms: C_19  and  C_20
REMARK    4  A    between atoms: C_23  and  C_26
REMARK                            x       y       z     vdW  Elec       q    Type
REMARK                         _______ _______ _______ _____ _____    ______ ____
ROOT
ATOM      1  N   UNL     1      35.961 -20.654 -20.131  0.00  0.00    +0.392 N 
ATOM      2  N   UNL     1      35.214 -18.752 -22.127  0.00  0.00    -0.309 N 
ATOM      3  C   UNL     1      34.732 -20.839 -20.912  0.00  0.00    -0.055 C 
ATOM      4  C   UNL     1      36.985 -20.006 -20.959  0.00  0.00    -0.055 C 
ATOM      5  C   UNL     1      34.182 -19.497 -21.400  0.00  0.00    +0.068 C 
ATOM      6  C   UNL     1      36.511 -18.635 -21.447  0.00  0.00    +0.068 C 
ATOM      7  H   UNL     1      35.756 -20.054 -19.332  0.00  0.00    -0.079 HD
ENDROOT
BRANCH   2  11
ATOM      8  O   UNL     1      34.724 -15.970 -21.293  0.00  0.00    -0.406 OA
ATOM      9  O   UNL     1      34.379 -13.838 -20.464  0.00  0.00    -0.223 OA
ATOM     10  N   UNL     1      34.115 -14.288 -22.736  0.00  0.00    -0.287 N 
ATOM     11  C   UNL     1      34.843 -17.733 -23.012  0.00  0.00    +0.084 C 
ATOM     12  C   UNL     1      34.616 -16.427 -22.597  0.00  0.00    +0.179 A 
ATOM     13  C   UNL     1      34.677 -17.976 -24.391  0.00  0.00    +0.018 C 
ATOM     14  C   UNL     1      34.252 -15.432 -23.478  0.00  0.00    +0.098 A 
ATOM     15  C   UNL     1      34.303 -16.950 -25.283  0.00  0.00    +0.003 C 
ATOM     16  C   UNL     1      34.085 -15.649 -24.826  0.00  0.00    +0.020 C 
ATOM     17  C   UNL     1      34.398 -14.607 -21.418  0.00  0.00    +0.419 A 
ATOM     18  H   UNL     1      33.861 -13.401 -23.077  0.00  0.00    +0.172 HD
ENDBRANCH   2  11
BRANCH   1  19
ATOM     19  C   UNL     1      36.446 -21.937 -19.626  0.00  0.00    -0.050 C 
BRANCH  19  20
ATOM     20  C   UNL     1      36.133 -22.097 -18.163  0.00  0.00    -0.043 C 
ATOM     21  C   UNL     1      34.904 -22.617 -17.778  0.00  0.00    -0.006 C 
ATOM     22  C   UNL     1      37.078 -21.723 -17.216  0.00  0.00    -0.006 C 
ATOM     23  C   UNL     1      34.616 -22.766 -16.421  0.00  0.00    -0.000 C 
ATOM     24  C   UNL     1      36.789 -21.871 -15.861  0.00  0.00    -0.000 C 
ATOM     25  C   UNL     1      35.558 -22.392 -15.463  0.00  0.00    -0.000 C 
BRANCH  23  26
ATOM     26  C   UNL     1      33.340 -23.308 -16.008  0.00  0.00    -0.000 C 
ATOM     27  C   UNL     1      32.237 -23.224 -16.858  0.00  0.00    -0.000 C 
ATOM     28  C   UNL     1      33.212 -23.917 -14.759  0.00  0.00    -0.000 C 
ATOM     29  C   UNL     1      31.007 -23.747 -16.460  0.00  0.00    -0.000 C 
ATOM     30  C   UNL     1      31.982 -24.440 -14.361  0.00  0.00    -0.000 C 
ATOM     31  C   UNL     1      30.880 -24.356 -15.212  0.00  0.00    +0.000 C 
ENDBRANCH  23  26
ENDBRANCH  19  20
ENDBRANCH   1  19
TORSDOF 4
ENDMDL
