MODEL 1
REMARK VINA RESULT:     -12.1      0.000      0.000
REMARK  Name = 657077
REMARK  7 active torsions:
REMARK  status: ('A' for Active; 'I' for Inactive)
REMARK    1  A    between atoms: C_3  and  C_23
REMARK    2  A    between atoms: C_8  and  C_10
REMARK    3  A    between atoms: C_12  and  C_15
REMARK    4  A    between atoms: C_15  and  C_16
REMARK    5  A    between atoms: C_16  and  C_17
REMARK    6  A    between atoms: C_26  and  C_29
REMARK    7  A    between atoms: C_29  and  N_30
REMARK                            x       y       z     vdW  Elec       q    Type
REMARK                         _______ _______ _______ _____ _____    ______ ____
ROOT
ATOM      1  O   UNL     1      33.263 -15.790 -26.022  0.00  0.00    -0.270 OA
ATOM      2  N   UNL     1      34.611 -16.464 -24.235  0.00  0.00    -0.276 N 
ATOM      3  C   UNL     1      35.138 -18.654 -22.418  0.00  0.00    +0.026 C 
ATOM      4  C   UNL     1      34.881 -17.222 -21.909  0.00  0.00    +0.026 C 
ATOM      5  C   UNL     1      34.455 -18.875 -23.782  0.00  0.00    +0.026 C 
ATOM      6  C   UNL     1      35.285 -16.188 -22.960  0.00  0.00    +0.094 C 
ATOM      7  C   UNL     1      34.865 -17.796 -24.784  0.00  0.00    +0.094 C 
ATOM      8  C   UNL     1      33.806 -15.567 -24.941  0.00  0.00    +0.251 C 
ENDROOT
BRANCH   8  10
ATOM      9  N   UNL     1      32.767 -12.935 -22.490  0.00  0.00    -0.242 NA
ATOM     10  C   UNL     1      33.563 -14.245 -24.353  0.00  0.00    +0.072 C 
ATOM     11  C   UNL     1      33.877 -13.088 -25.051  0.00  0.00    +0.003 C 
ATOM     12  C   UNL     1      33.635 -11.848 -24.468  0.00  0.00    -0.003 C 
ATOM     13  C   UNL     1      33.016 -14.121 -23.090  0.00  0.00    +0.103 C 
ATOM     14  C   UNL     1      33.084 -11.827 -23.196  0.00  0.00    +0.095 C 
BRANCH  12  15
ATOM     15  C   UNL     1      33.959 -10.587 -25.185  0.00  0.00    +0.033 C 
BRANCH  15  16
ATOM     16  C   UNL     1      34.968  -9.682 -24.446  0.00  0.00    +0.031 C 
BRANCH  16  17
ATOM     17  C   UNL     1      34.482  -8.261 -24.284  0.00  0.00    -0.022 C 
ATOM     18  C   UNL     1      33.617  -7.954 -23.245  0.00  0.00    -0.004 C 
ATOM     19  C   UNL     1      34.909  -7.292 -25.177  0.00  0.00    -0.004 C 
ATOM     20  C   UNL     1      33.168  -6.642 -23.096  0.00  0.00    -0.000 C 
ATOM     21  C   UNL     1      34.461  -5.979 -25.026  0.00  0.00    -0.000 C 
ATOM     22  C   UNL     1      33.590  -5.655 -23.986  0.00  0.00    -0.000 C 
ENDBRANCH  16  17
ENDBRANCH  15  16
ENDBRANCH  12  15
ENDBRANCH   8  10
BRANCH   3  23
ATOM     23  C   UNL     1      34.729 -19.701 -21.400  0.00  0.00    -0.023 C 
ATOM     24  C   UNL     1      35.699 -20.331 -20.623  0.00  0.00    -0.011 C 
ATOM     25  C   UNL     1      33.383 -20.029 -21.244  0.00  0.00    -0.004 C 
ATOM     26  C   UNL     1      35.322 -21.293 -19.687  0.00  0.00    -0.045 C 
ATOM     27  C   UNL     1      33.007 -20.992 -20.307  0.00  0.00    -0.001 C 
ATOM     28  C   UNL     1      33.976 -21.623 -19.528  0.00  0.00    -0.006 C 
BRANCH  26  29
ATOM     29  C   UNL     1      36.358 -21.969 -18.852  0.00  0.00    -0.059 C 
BRANCH  29  30
ATOM     30  N   UNL     1      36.747 -21.167 -17.690  0.00  0.00    +0.383 N 
ATOM     31  H   UNL     1      37.559 -21.591 -17.241  0.00  0.00    -0.089 HD
ATOM     32  H   UNL     1      35.973 -21.130 -17.028  0.00  0.00    -0.089 HD
ATOM     33  H   UNL     1      36.982 -20.222 -17.993  0.00  0.00    -0.089 HD
ENDBRANCH  29  30
ENDBRANCH  26  29
ENDBRANCH   3  23
TORSDOF 7
ENDMDL
MODEL 2
REMARK VINA RESULT:     -12.1      1.796      2.482
REMARK  Name = 657077
REMARK  7 active torsions:
REMARK  status: ('A' for Active; 'I' for Inactive)
REMARK    1  A    between atoms: C_3  and  C_23
REMARK    2  A    between atoms: C_8  and  C_10
REMARK    3  A    between atoms: C_12  and  C_15
REMARK    4  A    between atoms: C_15  and  C_16
REMARK    5  A    between atoms: C_16  and  C_17
REMARK    6  A    between atoms: C_26  and  C_29
REMARK    7  A    between atoms: C_29  and  N_30
REMARK                            x       y       z     vdW  Elec       q    Type
REMARK                         _______ _______ _______ _____ _____    ______ ____
ROOT
ATOM      1  O   UNL     1      33.243 -15.859 -26.021  0.00  0.00    -0.270 OA
ATOM      2  N   UNL     1      34.588 -16.551 -24.237  0.00  0.00    -0.276 N 
ATOM      3  C   UNL     1      35.070 -18.736 -22.402  0.00  0.00    +0.026 C 
ATOM      4  C   UNL     1      34.856 -17.293 -21.906  0.00  0.00    +0.026 C 
ATOM      5  C   UNL     1      34.369 -18.952 -23.758  0.00  0.00    +0.026 C 
ATOM      6  C   UNL     1      35.280 -16.281 -22.971  0.00  0.00    +0.094 C 
ATOM      7  C   UNL     1      34.801 -17.896 -24.775  0.00  0.00    +0.094 C 
ATOM      8  C   UNL     1      33.801 -15.640 -24.946  0.00  0.00    +0.251 C 
ENDROOT
BRANCH   8  10
ATOM      9  N   UNL     1      33.969 -11.926 -24.509  0.00  0.00    -0.242 NA
ATOM     10  C   UNL     1      33.599 -14.306 -24.370  0.00  0.00    +0.072 C 
ATOM     11  C   UNL     1      32.882 -14.140 -23.194  0.00  0.00    +0.003 C 
ATOM     12  C   UNL     1      32.707 -12.863 -22.672  0.00  0.00    -0.003 C 
ATOM     13  C   UNL     1      34.118 -13.183 -24.986  0.00  0.00    +0.103 C 
ATOM     14  C   UNL     1      33.265 -11.799 -23.362  0.00  0.00    +0.095 C 
BRANCH  12  15
ATOM     15  C   UNL     1      31.944 -12.646 -21.414  0.00  0.00    +0.033 C 
BRANCH  15  16
ATOM     16  C   UNL     1      30.783 -11.639 -21.546  0.00  0.00    +0.031 C 
BRANCH  16  17
ATOM     17  C   UNL     1      31.232 -10.200 -21.449  0.00  0.00    -0.022 C 
ATOM     18  C   UNL     1      31.800  -9.744 -20.270  0.00  0.00    -0.004 C 
ATOM     19  C   UNL     1      31.068  -9.363 -22.541  0.00  0.00    -0.004 C 
ATOM     20  C   UNL     1      32.215  -8.415 -20.181  0.00  0.00    -0.000 C 
ATOM     21  C   UNL     1      31.483  -8.034 -22.451  0.00  0.00    -0.000 C 
ATOM     22  C   UNL     1      32.056  -7.560 -21.271  0.00  0.00    -0.000 C 
ENDBRANCH  16  17
ENDBRANCH  15  16
ENDBRANCH  12  15
ENDBRANCH   8  10
BRANCH   3  23
ATOM     23  C   UNL     1      34.640 -19.761 -21.370  0.00  0.00    -0.023 C 
ATOM     24  C   UNL     1      35.597 -20.392 -20.578  0.00  0.00    -0.011 C 
ATOM     25  C   UNL     1      33.289 -20.068 -21.215  0.00  0.00    -0.004 C 
ATOM     26  C   UNL     1      35.203 -21.334 -19.628  0.00  0.00    -0.045 C 
ATOM     27  C   UNL     1      32.895 -21.010 -20.265  0.00  0.00    -0.001 C 
ATOM     28  C   UNL     1      33.851 -21.643 -19.472  0.00  0.00    -0.006 C 
BRANCH  26  29
ATOM     29  C   UNL     1      36.225 -22.011 -18.777  0.00  0.00    -0.059 C 
BRANCH  29  30
ATOM     30  N   UNL     1      36.844 -21.096 -17.816  0.00  0.00    +0.383 N 
ATOM     31  H   UNL     1      36.373 -21.180 -16.915  0.00  0.00    -0.089 HD
ATOM     32  H   UNL     1      36.760 -20.138 -18.156  0.00  0.00    -0.089 HD
ATOM     33  H   UNL     1      37.830 -21.333 -17.708  0.00  0.00    -0.089 HD
ENDBRANCH  29  30
ENDBRANCH  26  29
ENDBRANCH   3  23
TORSDOF 7
ENDMDL
MODEL 3
REMARK VINA RESULT:     -11.4      1.309      1.896
REMARK  Name = 657077
REMARK  7 active torsions:
REMARK  status: ('A' for Active; 'I' for Inactive)
REMARK    1  A    between atoms: C_3  and  C_23
REMARK    2  A    between atoms: C_8  and  C_10
REMARK    3  A    between atoms: C_12  and  C_15
REMARK    4  A    between atoms: C_15  and  C_16
REMARK    5  A    between atoms: C_16  and  C_17
REMARK    6  A    between atoms: C_26  and  C_29
REMARK    7  A    between atoms: C_29  and  N_30
REMARK                            x       y       z     vdW  Elec       q    Type
REMARK                         _______ _______ _______ _____ _____    ______ ____
ROOT
ATOM      1  O   UNL     1      32.871 -15.256 -25.804  0.00  0.00    -0.270 OA
ATOM      2  N   UNL     1      34.485 -15.882 -24.232  0.00  0.00    -0.276 N 
ATOM      3  C   UNL     1      35.432 -18.099 -22.630  0.00  0.00    +0.026 C 
ATOM      4  C   UNL     1      35.106 -16.727 -22.006  0.00  0.00    +0.026 C 
ATOM      5  C   UNL     1      34.611 -18.317 -23.916  0.00  0.00    +0.026 C 
ATOM      6  C   UNL     1      35.281 -15.606 -23.030  0.00  0.00    +0.094 C 
ATOM      7  C   UNL     1      34.793 -17.153 -24.890  0.00  0.00    +0.094 C 
ATOM      8  C   UNL     1      33.519 -15.036 -24.782  0.00  0.00    +0.251 C 
ENDROOT
BRANCH   8  10
ATOM      9  N   UNL     1      32.096 -12.630 -22.292  0.00  0.00    -0.242 NA
ATOM     10  C   UNL     1      33.227 -13.777 -24.088  0.00  0.00    +0.072 C 
ATOM     11  C   UNL     1      33.770 -12.579 -24.530  0.00  0.00    +0.003 C 
ATOM     12  C   UNL     1      33.475 -11.401 -23.852  0.00  0.00    -0.003 C 
ATOM     13  C   UNL     1      32.405 -13.754 -22.978  0.00  0.00    +0.103 C 
ATOM     14  C   UNL     1      32.641 -11.480 -22.748  0.00  0.00    +0.095 C 
BRANCH  12  15
ATOM     15  C   UNL     1      34.039 -10.098 -24.296  0.00  0.00    +0.033 C 
BRANCH  15  16
ATOM     16  C   UNL     1      33.220  -9.399 -25.401  0.00  0.00    +0.031 C 
BRANCH  16  17
ATOM     17  C   UNL     1      33.127  -7.903 -25.214  0.00  0.00    -0.022 C 
ATOM     18  C   UNL     1      34.284  -7.174 -24.991  0.00  0.00    -0.004 C 
ATOM     19  C   UNL     1      31.887  -7.289 -25.268  0.00  0.00    -0.004 C 
ATOM     20  C   UNL     1      34.198  -5.792 -24.818  0.00  0.00    -0.000 C 
ATOM     21  C   UNL     1      31.801  -5.907 -25.096  0.00  0.00    -0.000 C 
ATOM     22  C   UNL     1      32.957  -5.159 -24.871  0.00  0.00    -0.000 C 
ENDBRANCH  16  17
ENDBRANCH  15  16
ENDBRANCH  12  15
ENDBRANCH   8  10
BRANCH   3  23
ATOM     23  C   UNL     1      35.249 -19.232 -21.639  0.00  0.00    -0.023 C 
ATOM     24  C   UNL     1      33.966 -19.637 -21.276  0.00  0.00    -0.011 C 
ATOM     25  C   UNL     1      36.365 -19.867 -21.096  0.00  0.00    -0.004 C 
ATOM     26  C   UNL     1      33.798 -20.680 -20.366  0.00  0.00    -0.045 C 
ATOM     27  C   UNL     1      36.196 -20.910 -20.185  0.00  0.00    -0.001 C 
ATOM     28  C   UNL     1      34.913 -21.317 -19.821  0.00  0.00    -0.006 C 
BRANCH  26  29
ATOM     29  C   UNL     1      32.426 -21.117 -19.975  0.00  0.00    -0.059 C 
BRANCH  29  30
ATOM     30  N   UNL     1      32.442 -22.308 -19.124  0.00  0.00    +0.383 N 
ATOM     31  H   UNL     1      31.543 -22.786 -19.191  0.00  0.00    -0.089 HD
ATOM     32  H   UNL     1      32.609 -22.032 -18.157  0.00  0.00    -0.089 HD
ATOM     33  H   UNL     1      33.184 -22.936 -19.432  0.00  0.00    -0.089 HD
ENDBRANCH  29  30
ENDBRANCH  26  29
ENDBRANCH   3  23
TORSDOF 7
ENDMDL
MODEL 4
REMARK VINA RESULT:     -10.9      1.709     10.683
REMARK  Name = 657077
REMARK  7 active torsions:
REMARK  status: ('A' for Active; 'I' for Inactive)
REMARK    1  A    between atoms: C_3  and  C_23
REMARK    2  A    between atoms: C_8  and  C_10
REMARK    3  A    between atoms: C_12  and  C_15
REMARK    4  A    between atoms: C_15  and  C_16
REMARK    5  A    between atoms: C_16  and  C_17
REMARK    6  A    between atoms: C_26  and  C_29
REMARK    7  A    between atoms: C_29  and  N_30
REMARK                            x       y       z     vdW  Elec       q    Type
REMARK                         _______ _______ _______ _____ _____    ______ ____
ROOT
ATOM      1  O   UNL     1      34.772 -15.535 -25.827  0.00  0.00    -0.270 OA
ATOM      2  N   UNL     1      33.526 -13.931 -24.669  0.00  0.00    -0.276 N 
ATOM      3  C   UNL     1      33.147 -11.082 -24.331  0.00  0.00    +0.026 C 
ATOM      4  C   UNL     1      33.384 -12.017 -23.129  0.00  0.00    +0.026 C 
ATOM      5  C   UNL     1      33.775 -11.673 -25.608  0.00  0.00    +0.026 C 
ATOM      6  C   UNL     1      32.902 -13.434 -23.437  0.00  0.00    +0.094 C 
ATOM      7  C   UNL     1      33.288 -13.101 -25.851  0.00  0.00    +0.094 C 
ATOM      8  C   UNL     1      34.271 -15.106 -24.788  0.00  0.00    +0.251 C 
ENDROOT
BRANCH   8  10
ATOM      9  N   UNL     1      34.728 -15.989 -21.179  0.00  0.00    -0.242 NA
ATOM     10  C   UNL     1      34.501 -15.905 -23.580  0.00  0.00    +0.072 C 
ATOM     11  C   UNL     1      34.701 -17.276 -23.661  0.00  0.00    +0.003 C 
ATOM     12  C   UNL     1      34.916 -18.008 -22.498  0.00  0.00    -0.003 C 
ATOM     13  C   UNL     1      34.522 -15.312 -22.332  0.00  0.00    +0.103 C 
ATOM     14  C   UNL     1      34.919 -17.323 -21.293  0.00  0.00    +0.095 C 
BRANCH  12  15
ATOM     15  C   UNL     1      35.133 -19.478 -22.545  0.00  0.00    +0.033 C 
BRANCH  15  16
ATOM     16  C   UNL     1      35.765 -20.064 -21.265  0.00  0.00    +0.031 C 
BRANCH  16  17
ATOM     17  C   UNL     1      34.785 -20.849 -20.426  0.00  0.00    -0.022 C 
ATOM     18  C   UNL     1      33.430 -20.580 -20.534  0.00  0.00    -0.004 C 
ATOM     19  C   UNL     1      35.259 -21.823 -19.562  0.00  0.00    -0.004 C 
ATOM     20  C   UNL     1      32.525 -21.304 -19.758  0.00  0.00    -0.000 C 
ATOM     21  C   UNL     1      34.354 -22.549 -18.787  0.00  0.00    -0.000 C 
ATOM     22  C   UNL     1      32.986 -22.288 -18.885  0.00  0.00    -0.000 C 
ENDBRANCH  16  17
ENDBRANCH  15  16
ENDBRANCH  12  15
ENDBRANCH   8  10
BRANCH   3  23
ATOM     23  C   UNL     1      33.634  -9.671 -24.058  0.00  0.00    -0.023 C 
ATOM     24  C   UNL     1      33.062  -8.926 -23.029  0.00  0.00    -0.011 C 
ATOM     25  C   UNL     1      34.653  -9.125 -24.837  0.00  0.00    -0.004 C 
ATOM     26  C   UNL     1      33.509  -7.630 -22.778  0.00  0.00    -0.045 C 
ATOM     27  C   UNL     1      35.101  -7.828 -24.585  0.00  0.00    -0.001 C 
ATOM     28  C   UNL     1      34.529  -7.081 -23.556  0.00  0.00    -0.006 C 
BRANCH  26  29
ATOM     29  C   UNL     1      32.899  -6.829 -21.676  0.00  0.00    -0.059 C 
BRANCH  29  30
ATOM     30  N   UNL     1      33.065  -7.466 -20.368  0.00  0.00    +0.383 N 
ATOM     31  H   UNL     1      32.210  -7.963 -20.121  0.00  0.00    -0.089 HD
ATOM     32  H   UNL     1      33.260  -6.753 -19.665  0.00  0.00    -0.089 HD
ATOM     33  H   UNL     1      33.842  -8.126 -20.407  0.00  0.00    -0.089 HD
ENDBRANCH  29  30
ENDBRANCH  26  29
ENDBRANCH   3  23
TORSDOF 7
ENDMDL
MODEL 5
REMARK VINA RESULT:     -10.6      2.003     10.999
REMARK  Name = 657077
REMARK  7 active torsions:
REMARK  status: ('A' for Active; 'I' for Inactive)
REMARK    1  A    between atoms: C_3  and  C_23
REMARK    2  A    between atoms: C_8  and  C_10
REMARK    3  A    between atoms: C_12  and  C_15
REMARK    4  A    between atoms: C_15  and  C_16
REMARK    5  A    between atoms: C_16  and  C_17
REMARK    6  A    between atoms: C_26  and  C_29
REMARK    7  A    between atoms: C_29  and  N_30
REMARK                            x       y       z     vdW  Elec       q    Type
REMARK                         _______ _______ _______ _____ _____    ______ ____
ROOT
ATOM      1  O   UNL     1      34.168 -15.332 -26.187  0.00  0.00    -0.270 OA
ATOM      2  N   UNL     1      33.233 -13.554 -24.991  0.00  0.00    -0.276 N 
ATOM      3  C   UNL     1      33.082 -10.667 -24.857  0.00  0.00    +0.026 C 
ATOM      4  C   UNL     1      33.467 -11.516 -23.630  0.00  0.00    +0.026 C 
ATOM      5  C   UNL     1      33.447 -11.403 -26.161  0.00  0.00    +0.026 C 
ATOM      6  C   UNL     1      32.858 -12.916 -23.723  0.00  0.00    +0.094 C 
ATOM      7  C   UNL     1      32.844 -12.807 -26.188  0.00  0.00    +0.094 C 
ATOM      8  C   UNL     1      33.878 -14.785 -25.124  0.00  0.00    +0.251 C 
ENDROOT
BRANCH   8  10
ATOM      9  N   UNL     1      34.590 -15.462 -21.511  0.00  0.00    -0.242 NA
ATOM     10  C   UNL     1      34.264 -15.499 -23.901  0.00  0.00    +0.072 C 
ATOM     11  C   UNL     1      34.656 -16.829 -23.948  0.00  0.00    +0.003 C 
ATOM     12  C   UNL     1      35.016 -17.480 -22.773  0.00  0.00    -0.003 C 
ATOM     13  C   UNL     1      34.247 -14.863 -22.675  0.00  0.00    +0.103 C 
ATOM     14  C   UNL     1      34.966 -16.758 -21.591  0.00  0.00    +0.095 C 
BRANCH  12  15
ATOM     15  C   UNL     1      35.440 -18.905 -22.784  0.00  0.00    +0.033 C 
BRANCH  15  16
ATOM     16  C   UNL     1      35.981 -19.414 -21.431  0.00  0.00    +0.031 C 
BRANCH  16  17
ATOM     17  C   UNL     1      35.025 -20.344 -20.722  0.00  0.00    -0.022 C 
ATOM     18  C   UNL     1      33.660 -20.171 -20.889  0.00  0.00    -0.004 C 
ATOM     19  C   UNL     1      35.531 -21.352 -19.918  0.00  0.00    -0.004 C 
ATOM     20  C   UNL     1      32.778 -21.030 -20.234  0.00  0.00    -0.000 C 
ATOM     21  C   UNL     1      34.648 -22.212 -19.264  0.00  0.00    -0.000 C 
ATOM     22  C   UNL     1      33.271 -22.050 -19.421  0.00  0.00    -0.000 C 
ENDBRANCH  16  17
ENDBRANCH  15  16
ENDBRANCH  12  15
ENDBRANCH   8  10
BRANCH   3  23
ATOM     23  C   UNL     1      33.689  -9.277 -24.799  0.00  0.00    -0.023 C 
ATOM     24  C   UNL     1      32.924  -8.170 -25.161  0.00  0.00    -0.011 C 
ATOM     25  C   UNL     1      35.008  -9.112 -24.382  0.00  0.00    -0.004 C 
ATOM     26  C   UNL     1      33.480  -6.893 -25.106  0.00  0.00    -0.045 C 
ATOM     27  C   UNL     1      35.565  -7.834 -24.328  0.00  0.00    -0.001 C 
ATOM     28  C   UNL     1      34.801  -6.725 -24.690  0.00  0.00    -0.006 C 
BRANCH  26  29
ATOM     29  C   UNL     1      32.664  -5.705 -25.492  0.00  0.00    -0.059 C 
BRANCH  29  30
ATOM     30  N   UNL     1      32.770  -4.617 -24.518  0.00  0.00    +0.383 N 
ATOM     31  H   UNL     1      31.843  -4.228 -24.340  0.00  0.00    -0.089 HD
ATOM     32  H   UNL     1      33.379  -3.888 -24.888  0.00  0.00    -0.089 HD
ATOM     33  H   UNL     1      33.160  -4.977 -23.647  0.00  0.00    -0.089 HD
ENDBRANCH  29  30
ENDBRANCH  26  29
ENDBRANCH   3  23
TORSDOF 7
ENDMDL
MODEL 6
REMARK VINA RESULT:     -10.4      3.885      6.686
REMARK  Name = 657077
REMARK  7 active torsions:
REMARK  status: ('A' for Active; 'I' for Inactive)
REMARK    1  A    between atoms: C_3  and  C_23
REMARK    2  A    between atoms: C_8  and  C_10
REMARK    3  A    between atoms: C_12  and  C_15
REMARK    4  A    between atoms: C_15  and  C_16
REMARK    5  A    between atoms: C_16  and  C_17
REMARK    6  A    between atoms: C_26  and  C_29
REMARK    7  A    between atoms: C_29  and  N_30
REMARK                            x       y       z     vdW  Elec       q    Type
REMARK                         _______ _______ _______ _____ _____    ______ ____
ROOT
ATOM      1  O   UNL     1      31.768  -7.970 -19.770  0.00  0.00    -0.270 OA
ATOM      2  N   UNL     1      31.309  -9.785 -21.171  0.00  0.00    -0.276 N 
ATOM      3  C   UNL     1      31.934 -12.571 -21.646  0.00  0.00    +0.026 C 
ATOM      4  C   UNL     1      32.041 -11.514 -22.763  0.00  0.00    +0.026 C 
ATOM      5  C   UNL     1      32.126 -11.918 -20.263  0.00  0.00    +0.026 C 
ATOM      6  C   UNL     1      31.083 -10.351 -22.507  0.00  0.00    +0.094 C 
ATOM      7  C   UNL     1      31.170 -10.741 -20.072  0.00  0.00    +0.094 C 
ATOM      8  C   UNL     1      31.604  -8.449 -20.892  0.00  0.00    +0.251 C 
ENDROOT
BRANCH   8  10
ATOM      9  N   UNL     1      30.728  -5.942 -23.531  0.00  0.00    -0.242 NA
ATOM     10  C   UNL     1      31.749  -7.522 -22.020  0.00  0.00    +0.072 C 
ATOM     11  C   UNL     1      32.979  -7.337 -22.635  0.00  0.00    +0.003 C 
ATOM     12  C   UNL     1      33.086  -6.452 -23.702  0.00  0.00    -0.003 C 
ATOM     13  C   UNL     1      30.664  -6.811 -22.496  0.00  0.00    +0.103 C 
ATOM     14  C   UNL     1      31.941  -5.785 -24.108  0.00  0.00    +0.095 C 
BRANCH  12  15
ATOM     15  C   UNL     1      34.387  -6.227 -24.386  0.00  0.00    +0.033 C 
BRANCH  15  16
ATOM     16  C   UNL     1      35.438  -7.326 -24.120  0.00  0.00    +0.031 C 
BRANCH  16  17
ATOM     17  C   UNL     1      35.205  -8.578 -24.932  0.00  0.00    -0.022 C 
ATOM     18  C   UNL     1      35.450  -8.559 -26.296  0.00  0.00    -0.004 C 
ATOM     19  C   UNL     1      34.750  -9.723 -24.298  0.00  0.00    -0.004 C 
ATOM     20  C   UNL     1      35.234  -9.715 -27.045  0.00  0.00    -0.000 C 
ATOM     21  C   UNL     1      34.535 -10.880 -25.048  0.00  0.00    -0.000 C 
ATOM     22  C   UNL     1      34.776 -10.875 -26.422  0.00  0.00    -0.000 C 
ENDBRANCH  16  17
ENDBRANCH  15  16
ENDBRANCH  12  15
ENDBRANCH   8  10
BRANCH   3  23
ATOM     23  C   UNL     1      32.889 -13.729 -21.866  0.00  0.00    -0.023 C 
ATOM     24  C   UNL     1      33.181 -14.151 -23.161  0.00  0.00    -0.011 C 
ATOM     25  C   UNL     1      33.472 -14.366 -20.772  0.00  0.00    -0.004 C 
ATOM     26  C   UNL     1      34.059 -15.215 -23.364  0.00  0.00    -0.045 C 
ATOM     27  C   UNL     1      34.351 -15.430 -20.975  0.00  0.00    -0.001 C 
ATOM     28  C   UNL     1      34.645 -15.855 -22.271  0.00  0.00    -0.006 C 
BRANCH  26  29
ATOM     29  C   UNL     1      34.375 -15.669 -24.750  0.00  0.00    -0.059 C 
BRANCH  29  30
ATOM     30  N   UNL     1      35.257 -16.839 -24.765  0.00  0.00    +0.383 N 
ATOM     31  H   UNL     1      35.614 -16.982 -25.709  0.00  0.00    -0.089 HD
ATOM     32  H   UNL     1      34.733 -17.663 -24.470  0.00  0.00    -0.089 HD
ATOM     33  H   UNL     1      36.037 -16.684 -24.126  0.00  0.00    -0.089 HD
ENDBRANCH  29  30
ENDBRANCH  26  29
ENDBRANCH   3  23
TORSDOF 7
ENDMDL
MODEL 7
REMARK VINA RESULT:     -10.4      4.477     12.610
REMARK  Name = 657077
REMARK  7 active torsions:
REMARK  status: ('A' for Active; 'I' for Inactive)
REMARK    1  A    between atoms: C_3  and  C_23
REMARK    2  A    between atoms: C_8  and  C_10
REMARK    3  A    between atoms: C_12  and  C_15
REMARK    4  A    between atoms: C_15  and  C_16
REMARK    5  A    between atoms: C_16  and  C_17
REMARK    6  A    between atoms: C_26  and  C_29
REMARK    7  A    between atoms: C_29  and  N_30
REMARK                            x       y       z     vdW  Elec       q    Type
REMARK                         _______ _______ _______ _____ _____    ______ ____
ROOT
ATOM      1  O   UNL     1      37.038 -21.519 -18.315  0.00  0.00    -0.270 OA
ATOM      2  N   UNL     1      35.839 -20.899 -20.225  0.00  0.00    -0.276 N 
ATOM      3  C   UNL     1      35.303 -18.692 -22.018  0.00  0.00    +0.026 C 
ATOM      4  C   UNL     1      34.165 -19.490 -21.352  0.00  0.00    +0.026 C 
ATOM      5  C   UNL     1      36.581 -18.750 -21.158  0.00  0.00    +0.026 C 
ATOM      6  C   UNL     1      34.613 -20.916 -21.032  0.00  0.00    +0.094 C 
ATOM      7  C   UNL     1      36.965 -20.194 -20.838  0.00  0.00    +0.094 C 
ATOM      8  C   UNL     1      36.002 -21.511 -18.979  0.00  0.00    +0.251 C 
ENDROOT
BRANCH   8  10
ATOM      9  N   UNL     1      32.540 -22.875 -18.575  0.00  0.00    -0.242 NA
ATOM     10  C   UNL     1      34.848 -22.197 -18.389  0.00  0.00    +0.072 C 
ATOM     11  C   UNL     1      34.940 -22.800 -17.143  0.00  0.00    +0.003 C 
ATOM     12  C   UNL     1      33.828 -23.443 -16.608  0.00  0.00    -0.003 C 
ATOM     13  C   UNL     1      33.642 -22.260 -19.060  0.00  0.00    +0.103 C 
ATOM     14  C   UNL     1      32.663 -23.453 -17.358  0.00  0.00    +0.095 C 
BRANCH  12  15
ATOM     15  C   UNL     1      33.889 -24.101 -15.276  0.00  0.00    +0.033 C 
BRANCH  15  16
ATOM     16  C   UNL     1      35.034 -25.125 -15.129  0.00  0.00    +0.031 C 
BRANCH  16  17
ATOM     17  C   UNL     1      36.019 -24.760 -14.044  0.00  0.00    -0.022 C 
ATOM     18  C   UNL     1      37.041 -25.643 -13.730  0.00  0.00    -0.004 C 
ATOM     19  C   UNL     1      35.883 -23.551 -13.382  0.00  0.00    -0.004 C 
ATOM     20  C   UNL     1      37.950 -25.307 -12.727  0.00  0.00    -0.000 C 
ATOM     21  C   UNL     1      36.794 -23.214 -12.380  0.00  0.00    -0.000 C 
ATOM     22  C   UNL     1      37.827 -24.093 -12.052  0.00  0.00    -0.000 C 
ENDBRANCH  16  17
ENDBRANCH  15  16
ENDBRANCH  12  15
ENDBRANCH   8  10
BRANCH   3  23
ATOM     23  C   UNL     1      34.891 -17.266 -22.330  0.00  0.00    -0.023 C 
ATOM     24  C   UNL     1      34.603 -16.897 -23.642  0.00  0.00    -0.011 C 
ATOM     25  C   UNL     1      34.799 -16.329 -21.302  0.00  0.00    -0.004 C 
ATOM     26  C   UNL     1      34.223 -15.587 -23.929  0.00  0.00    -0.045 C 
ATOM     27  C   UNL     1      34.419 -15.018 -21.589  0.00  0.00    -0.001 C 
ATOM     28  C   UNL     1      34.131 -14.647 -22.902  0.00  0.00    -0.006 C 
BRANCH  26  29
ATOM     29  C   UNL     1      33.913 -15.189 -25.333  0.00  0.00    -0.059 C 
BRANCH  29  30
ATOM     30  N   UNL     1      32.884 -14.149 -25.403  0.00  0.00    +0.383 N 
ATOM     31  H   UNL     1      32.944 -13.556 -24.576  0.00  0.00    -0.089 HD
ATOM     32  H   UNL     1      31.964 -14.585 -25.444  0.00  0.00    -0.089 HD
ATOM     33  H   UNL     1      33.031 -13.583 -26.239  0.00  0.00    -0.089 HD
ENDBRANCH  29  30
ENDBRANCH  26  29
ENDBRANCH   3  23
TORSDOF 7
ENDMDL
MODEL 8
REMARK VINA RESULT:     -10.2      3.890      7.249
REMARK  Name = 657077
REMARK  7 active torsions:
REMARK  status: ('A' for Active; 'I' for Inactive)
REMARK    1  A    between atoms: C_3  and  C_23
REMARK    2  A    between atoms: C_8  and  C_10
REMARK    3  A    between atoms: C_12  and  C_15
REMARK    4  A    between atoms: C_15  and  C_16
REMARK    5  A    between atoms: C_16  and  C_17
REMARK    6  A    between atoms: C_26  and  C_29
REMARK    7  A    between atoms: C_29  and  N_30
REMARK                            x       y       z     vdW  Elec       q    Type
REMARK                         _______ _______ _______ _____ _____    ______ ____
ROOT
ATOM      1  O   UNL     1      32.132 -20.478 -20.265  0.00  0.00    -0.270 OA
ATOM      2  N   UNL     1      33.858 -21.899 -19.580  0.00  0.00    -0.276 N 
ATOM      3  C   UNL     1      34.992 -23.237 -17.278  0.00  0.00    +0.026 C 
ATOM      4  C   UNL     1      35.851 -22.359 -18.211  0.00  0.00    +0.026 C 
ATOM      5  C   UNL     1      33.520 -22.783 -17.312  0.00  0.00    +0.026 C 
ATOM      6  C   UNL     1      35.263 -22.324 -19.621  0.00  0.00    +0.094 C 
ATOM      7  C   UNL     1      32.992 -22.732 -18.746  0.00  0.00    +0.094 C 
ATOM      8  C   UNL     1      33.314 -20.819 -20.279  0.00  0.00    +0.251 C 
ENDROOT
BRANCH   8  10
ATOM      9  N   UNL     1      36.374 -18.954 -21.363  0.00  0.00    -0.242 NA
ATOM     10  C   UNL     1      34.215 -19.998 -21.095  0.00  0.00    +0.072 C 
ATOM     11  C   UNL     1      33.806 -19.498 -22.323  0.00  0.00    +0.003 C 
ATOM     12  C   UNL     1      34.682 -18.723 -23.075  0.00  0.00    -0.003 C 
ATOM     13  C   UNL     1      35.494 -19.704 -20.661  0.00  0.00    +0.103 C 
ATOM     14  C   UNL     1      35.944 -18.483 -22.555  0.00  0.00    +0.095 C 
BRANCH  12  15
ATOM     15  C   UNL     1      34.279 -18.170 -24.395  0.00  0.00    +0.033 C 
BRANCH  15  16
ATOM     16  C   UNL     1      35.012 -16.870 -24.786  0.00  0.00    +0.031 C 
BRANCH  16  17
ATOM     17  C   UNL     1      34.334 -15.627 -24.260  0.00  0.00    -0.022 C 
ATOM     18  C   UNL     1      33.504 -14.899 -25.097  0.00  0.00    -0.004 C 
ATOM     19  C   UNL     1      34.556 -15.237 -22.949  0.00  0.00    -0.004 C 
ATOM     20  C   UNL     1      32.878 -13.751 -24.611  0.00  0.00    -0.000 C 
ATOM     21  C   UNL     1      33.929 -14.089 -22.462  0.00  0.00    -0.000 C 
ATOM     22  C   UNL     1      33.091 -13.346 -23.294  0.00  0.00    -0.000 C 
ENDBRANCH  16  17
ENDBRANCH  15  16
ENDBRANCH  12  15
ENDBRANCH   8  10
BRANCH   3  23
ATOM     23  C   UNL     1      35.544 -23.274 -15.866  0.00  0.00    -0.023 C 
ATOM     24  C   UNL     1      34.811 -23.883 -14.849  0.00  0.00    -0.011 C 
ATOM     25  C   UNL     1      36.784 -22.701 -15.589  0.00  0.00    -0.004 C 
ATOM     26  C   UNL     1      35.318 -23.919 -13.551  0.00  0.00    -0.045 C 
ATOM     27  C   UNL     1      37.292 -22.736 -14.290  0.00  0.00    -0.001 C 
ATOM     28  C   UNL     1      36.559 -23.345 -13.272  0.00  0.00    -0.006 C 
BRANCH  26  29
ATOM     29  C   UNL     1      34.536 -24.571 -12.461  0.00  0.00    -0.059 C 
BRANCH  29  30
ATOM     30  N   UNL     1      35.323 -24.746 -11.239  0.00  0.00    +0.383 N 
ATOM     31  H   UNL     1      34.931 -24.167 -10.496  0.00  0.00    -0.089 HD
ATOM     32  H   UNL     1      36.288 -24.467 -11.413  0.00  0.00    -0.089 HD
ATOM     33  H   UNL     1      35.298 -25.725 -10.956  0.00  0.00    -0.089 HD
ENDBRANCH  29  30
ENDBRANCH  26  29
ENDBRANCH   3  23
TORSDOF 7
ENDMDL
MODEL 9
REMARK VINA RESULT:     -10.2      4.484     12.191
REMARK  Name = 657077
REMARK  7 active torsions:
REMARK  status: ('A' for Active; 'I' for Inactive)
REMARK    1  A    between atoms: C_3  and  C_23
REMARK    2  A    between atoms: C_8  and  C_10
REMARK    3  A    between atoms: C_12  and  C_15
REMARK    4  A    between atoms: C_15  and  C_16
REMARK    5  A    between atoms: C_16  and  C_17
REMARK    6  A    between atoms: C_26  and  C_29
REMARK    7  A    between atoms: C_29  and  N_30
REMARK                            x       y       z     vdW  Elec       q    Type
REMARK                         _______ _______ _______ _____ _____    ______ ____
ROOT
ATOM      1  O   UNL     1      36.972 -21.172 -18.021  0.00  0.00    -0.270 OA
ATOM      2  N   UNL     1      36.063 -20.857 -20.153  0.00  0.00    -0.276 N 
ATOM      3  C   UNL     1      35.627 -18.884 -22.225  0.00  0.00    +0.026 C 
ATOM      4  C   UNL     1      34.476 -19.748 -21.673  0.00  0.00    +0.026 C 
ATOM      5  C   UNL     1      36.737 -18.722 -21.168  0.00  0.00    +0.026 C 
ATOM      6  C   UNL     1      35.002 -21.082 -21.142  0.00  0.00    +0.094 C 
ATOM      7  C   UNL     1      37.202 -20.081 -20.645  0.00  0.00    +0.094 C 
ATOM      8  C   UNL     1      36.071 -21.339 -18.842  0.00  0.00    +0.251 C 
ENDROOT
BRANCH   8  10
ATOM      9  N   UNL     1      32.683 -22.932 -18.814  0.00  0.00    -0.242 NA
ATOM     10  C   UNL     1      34.906 -22.101 -18.379  0.00  0.00    +0.072 C 
ATOM     11  C   UNL     1      34.898 -22.697 -17.126  0.00  0.00    +0.003 C 
ATOM     12  C   UNL     1      33.780 -23.414 -16.714  0.00  0.00    -0.003 C 
ATOM     13  C   UNL     1      33.788 -22.243 -19.179  0.00  0.00    +0.103 C 
ATOM     14  C   UNL     1      32.708 -23.501 -17.588  0.00  0.00    +0.095 C 
BRANCH  12  15
ATOM     15  C   UNL     1      33.736 -24.068 -15.379  0.00  0.00    +0.033 C 
BRANCH  15  16
ATOM     16  C   UNL     1      32.678 -23.479 -14.422  0.00  0.00    +0.031 C 
BRANCH  16  17
ATOM     17  C   UNL     1      31.272 -23.924 -14.747  0.00  0.00    -0.022 C 
ATOM     18  C   UNL     1      30.345 -22.988 -15.177  0.00  0.00    -0.004 C 
ATOM     19  C   UNL     1      30.934 -25.261 -14.609  0.00  0.00    -0.004 C 
ATOM     20  C   UNL     1      29.046 -23.399 -15.476  0.00  0.00    -0.000 C 
ATOM     21  C   UNL     1      29.635 -25.672 -14.909  0.00  0.00    -0.000 C 
ATOM     22  C   UNL     1      28.691 -24.741 -15.342  0.00  0.00    -0.000 C 
ENDBRANCH  16  17
ENDBRANCH  15  16
ENDBRANCH  12  15
ENDBRANCH   8  10
BRANCH   3  23
ATOM     23  C   UNL     1      35.135 -17.546 -22.742  0.00  0.00    -0.023 C 
ATOM     24  C   UNL     1      34.863 -16.512 -21.848  0.00  0.00    -0.011 C 
ATOM     25  C   UNL     1      34.957 -17.353 -24.112  0.00  0.00    -0.004 C 
ATOM     26  C   UNL     1      34.412 -15.282 -22.324  0.00  0.00    -0.045 C 
ATOM     27  C   UNL     1      34.505 -16.122 -24.587  0.00  0.00    -0.001 C 
ATOM     28  C   UNL     1      34.233 -15.087 -23.694  0.00  0.00    -0.006 C 
BRANCH  26  29
ATOM     29  C   UNL     1      34.121 -14.172 -21.369  0.00  0.00    -0.059 C 
BRANCH  29  30
ATOM     30  N   UNL     1      32.718 -13.756 -21.410  0.00  0.00    +0.383 N 
ATOM     31  H   UNL     1      32.137 -14.546 -21.692  0.00  0.00    -0.089 HD
ATOM     32  H   UNL     1      32.608 -12.997 -22.082  0.00  0.00    -0.089 HD
ATOM     33  H   UNL     1      32.431 -13.436 -20.485  0.00  0.00    -0.089 HD
ENDBRANCH  29  30
ENDBRANCH  26  29
ENDBRANCH   3  23
TORSDOF 7
ENDMDL
