MODEL 1
REMARK VINA RESULT:     -11.0      0.000      0.000
REMARK  Name = 11979006
REMARK  7 active torsions:
REMARK  status: ('A' for Active; 'I' for Inactive)
REMARK    1  A    between atoms: C_1  and  N_2
REMARK    2  A    between atoms: C_1  and  C_22
REMARK    3  A    between atoms: C_3  and  N_9
REMARK    4  A    between atoms: C_4  and  O_18
REMARK    5  A    between atoms: C_10  and  C_14
REMARK    6  A    between atoms: N_21  and  C_25
REMARK    7  A    between atoms: C_28  and  N_32
REMARK                            x       y       z     vdW  Elec       q    Type
REMARK                         _______ _______ _______ _____ _____    ______ ____
ROOT
ATOM      1  C   UNL     1      33.389 -13.119 -25.914  0.00  0.00    +0.010 C 
ENDROOT
BRANCH   1   2
ATOM      2  N   UNL     1      34.205 -11.982 -25.515  0.00  0.00    +0.396 N 
ATOM      3  C   UNL     1      34.427  -9.772 -24.874  0.00  0.00    +0.076 C 
ATOM      4  C   UNL     1      35.245  -9.959 -26.154  0.00  0.00    +0.106 C 
ATOM      5  C   UNL     1      33.413 -10.908 -24.915  0.00  0.00    -0.054 C 
ATOM      6  C   UNL     1      34.906 -11.367 -26.648  0.00  0.00    -0.045 C 
ATOM      7  H   UNL     1      34.863 -12.375 -24.842  0.00  0.00    -0.079 HD
BRANCH   3   9
ATOM      8  O   UNL     1      35.621  -7.411 -23.899  0.00  0.00    -0.270 OA
ATOM      9  N   UNL     1      33.800  -8.481 -24.805  0.00  0.00    -0.302 N 
ATOM     10  C   UNL     1      34.460  -7.354 -24.307  0.00  0.00    +0.252 C 
ATOM     11  H   UNL     1      32.872  -8.386 -25.119  0.00  0.00    +0.150 HD
BRANCH  10  14
ATOM     12 CL   UNL     1      32.511  -2.448 -25.761  0.00  0.00    -0.075 Cl
ATOM     13  S   UNL     1      33.988  -5.018 -25.601  0.00  0.00    -0.071 S 
ATOM     14  C   UNL     1      33.697  -6.098 -24.331  0.00  0.00    +0.084 C 
ATOM     15  C   UNL     1      32.769  -5.685 -23.440  0.00  0.00    +0.012 C 
ATOM     16  C   UNL     1      32.254  -4.408 -23.807  0.00  0.00    +0.019 C 
ATOM     17  C   UNL     1      32.830  -3.931 -24.963  0.00  0.00    +0.087 C 
ENDBRANCH  10  14
ENDBRANCH   3   9
BRANCH   4  18
ATOM     18  O   UNL     1      36.629  -9.850 -25.847  0.00  0.00    -0.385 OA
ATOM     19  H   UNL     1      37.140  -9.805 -26.670  0.00  0.00    +0.210 HD
ENDBRANCH   4  18
ENDBRANCH   1   2
BRANCH   1  22
ATOM     20  O   UNL     1      32.418 -13.974 -23.877  0.00  0.00    -0.277 OA
ATOM     21  N   UNL     1      34.243 -15.083 -24.853  0.00  0.00    -0.284 N 
ATOM     22  C   UNL     1      33.272 -14.089 -24.752  0.00  0.00    +0.205 C 
ATOM     23  H   UNL     1      34.847 -15.022 -25.629  0.00  0.00    +0.155 HD
BRANCH  21  25
ATOM     24  F   UNL     1      34.850 -14.662 -22.177  0.00  0.00    -0.203 F 
ATOM     25  C   UNL     1      34.465 -16.168 -23.972  0.00  0.00    +0.078 C 
ATOM     26  C   UNL     1      34.766 -15.916 -22.644  0.00  0.00    +0.155 C 
ATOM     27  C   UNL     1      34.376 -17.461 -24.460  0.00  0.00    +0.018 C 
ATOM     28  C   UNL     1      34.899 -18.297 -22.254  0.00  0.00    +0.061 C 
ATOM     29  C   UNL     1      34.984 -16.988 -21.779  0.00  0.00    +0.046 C 
ATOM     30  C   UNL     1      34.595 -18.533 -23.595  0.00  0.00    +0.017 C 
BRANCH  28  32
ATOM     31  O   UNL     1      37.479 -19.134 -21.250  0.00  0.00    -0.269 OA
ATOM     32  N   UNL     1      35.127 -19.411 -21.354  0.00  0.00    -0.233 N 
ATOM     33  C   UNL     1      36.441 -19.696 -20.901  0.00  0.00    +0.257 C 
ATOM     34  C   UNL     1      34.065 -20.220 -20.946  0.00  0.00    +0.072 C 
ATOM     35  C   UNL     1      36.581 -20.832 -19.938  0.00  0.00    +0.059 C 
ATOM     36  C   UNL     1      34.221 -21.251 -20.110  0.00  0.00    +0.017 C 
ATOM     37  C   UNL     1      35.518 -21.559 -19.586  0.00  0.00    +0.006 C 
ENDBRANCH  28  32
ENDBRANCH  21  25
ENDBRANCH   1  22
TORSDOF 7
ENDMDL
MODEL 2
REMARK VINA RESULT:     -10.7      2.854      5.244
REMARK  Name = 11979006
REMARK  7 active torsions:
REMARK  status: ('A' for Active; 'I' for Inactive)
REMARK    1  A    between atoms: C_1  and  N_2
REMARK    2  A    between atoms: C_1  and  C_22
REMARK    3  A    between atoms: C_3  and  N_9
REMARK    4  A    between atoms: C_4  and  O_18
REMARK    5  A    between atoms: C_10  and  C_14
REMARK    6  A    between atoms: N_21  and  C_25
REMARK    7  A    between atoms: C_28  and  N_32
REMARK                            x       y       z     vdW  Elec       q    Type
REMARK                         _______ _______ _______ _____ _____    ______ ____
ROOT
ATOM      1  C   UNL     1      34.825 -17.856 -24.212  0.00  0.00    +0.010 C 
ENDROOT
BRANCH   1   2
ATOM      2  N   UNL     1      34.190 -16.629 -23.758  0.00  0.00    +0.396 N 
ATOM      3  C   UNL     1      33.782 -14.362 -23.963  0.00  0.00    +0.076 C 
ATOM      4  C   UNL     1      34.416 -14.588 -22.588  0.00  0.00    +0.106 C 
ATOM      5  C   UNL     1      34.217 -15.575 -24.774  0.00  0.00    -0.054 C 
ATOM      6  C   UNL     1      34.852 -16.055 -22.581  0.00  0.00    -0.045 C 
ATOM      7  H   UNL     1      33.233 -16.910 -23.545  0.00  0.00    -0.079 HD
BRANCH   3   9
ATOM      8  O   UNL     1      32.848 -11.796 -23.260  0.00  0.00    -0.270 OA
ATOM      9  N   UNL     1      34.197 -13.124 -24.563  0.00  0.00    -0.302 N 
ATOM     10  C   UNL     1      33.686 -11.888 -24.159  0.00  0.00    +0.252 C 
ATOM     11  H   UNL     1      34.864 -13.147 -25.286  0.00  0.00    +0.150 HD
BRANCH  10  14
ATOM     12 CL   UNL     1      35.010  -6.733 -25.445  0.00  0.00    -0.075 Cl
ATOM     13  S   UNL     1      33.959  -9.190 -24.153  0.00  0.00    -0.071 S 
ATOM     14  C   UNL     1      34.232 -10.709 -24.847  0.00  0.00    +0.084 C 
ATOM     15  C   UNL     1      34.943 -10.686 -25.996  0.00  0.00    +0.012 C 
ATOM     16  C   UNL     1      35.292  -9.348 -26.342  0.00  0.00    +0.019 C 
ATOM     17  C   UNL     1      34.821  -8.436 -25.425  0.00  0.00    +0.087 C 
ENDBRANCH  10  14
ENDBRANCH   3   9
BRANCH   4  18
ATOM     18  O   UNL     1      33.447 -14.343 -21.578  0.00  0.00    -0.385 OA
ATOM     19  H   UNL     1      33.495 -13.415 -21.302  0.00  0.00    +0.210 HD
ENDBRANCH   4  18
ENDBRANCH   1   2
BRANCH   1  22
ATOM     20  O   UNL     1      36.499 -18.629 -22.656  0.00  0.00    -0.277 OA
ATOM     21  N   UNL     1      34.271 -19.329 -22.412  0.00  0.00    -0.284 N 
ATOM     22  C   UNL     1      35.325 -18.640 -23.011  0.00  0.00    +0.205 C 
ATOM     23  H   UNL     1      33.387 -19.219 -22.832  0.00  0.00    +0.155 HD
BRANCH  21  25
ATOM     24  F   UNL     1      31.951 -20.254 -21.201  0.00  0.00    -0.203 F 
ATOM     25  C   UNL     1      34.323 -20.168 -21.274  0.00  0.00    +0.078 C 
ATOM     26  C   UNL     1      33.143 -20.608 -20.699  0.00  0.00    +0.155 C 
ATOM     27  C   UNL     1      35.557 -20.530 -20.759  0.00  0.00    +0.018 C 
ATOM     28  C   UNL     1      34.432 -21.808 -19.045  0.00  0.00    +0.061 C 
ATOM     29  C   UNL     1      33.198 -21.434 -19.576  0.00  0.00    +0.046 C 
ATOM     30  C   UNL     1      35.612 -21.355 -19.636  0.00  0.00    +0.017 C 
BRANCH  28  32
ATOM     31  O   UNL     1      36.716 -22.103 -17.295  0.00  0.00    -0.269 OA
ATOM     32  N   UNL     1      34.489 -22.666 -17.878  0.00  0.00    -0.233 N 
ATOM     33  C   UNL     1      35.659 -22.692 -17.075  0.00  0.00    +0.257 C 
ATOM     34  C   UNL     1      33.407 -23.486 -17.549  0.00  0.00    +0.072 C 
ATOM     35  C   UNL     1      35.615 -23.569 -15.864  0.00  0.00    +0.059 C 
ATOM     36  C   UNL     1      33.406 -24.286 -16.478  0.00  0.00    +0.017 C 
ATOM     37  C   UNL     1      34.543 -24.321 -15.607  0.00  0.00    +0.006 C 
ENDBRANCH  28  32
ENDBRANCH  21  25
ENDBRANCH   1  22
TORSDOF 7
ENDMDL
MODEL 3
REMARK VINA RESULT:     -10.5      7.464     14.147
REMARK  Name = 11979006
REMARK  7 active torsions:
REMARK  status: ('A' for Active; 'I' for Inactive)
REMARK    1  A    between atoms: C_1  and  N_2
REMARK    2  A    between atoms: C_1  and  C_22
REMARK    3  A    between atoms: C_3  and  N_9
REMARK    4  A    between atoms: C_4  and  O_18
REMARK    5  A    between atoms: C_10  and  C_14
REMARK    6  A    between atoms: N_21  and  C_25
REMARK    7  A    between atoms: C_28  and  N_32
REMARK                            x       y       z     vdW  Elec       q    Type
REMARK                         _______ _______ _______ _____ _____    ______ ____
ROOT
ATOM      1  C   UNL     1      35.211 -21.518 -20.515  0.00  0.00    +0.010 C 
ENDROOT
BRANCH   1   2
ATOM      2  N   UNL     1      34.890 -21.744 -19.114  0.00  0.00    +0.396 N 
ATOM      3  C   UNL     1      35.455 -22.492 -17.001  0.00  0.00    +0.076 C 
ATOM      4  C   UNL     1      34.226 -23.286 -17.451  0.00  0.00    +0.106 C 
ATOM      5  C   UNL     1      36.079 -22.009 -18.302  0.00  0.00    -0.054 C 
ATOM      6  C   UNL     1      34.016 -22.907 -18.918  0.00  0.00    -0.045 C 
ATOM      7  H   UNL     1      34.429 -20.882 -18.824  0.00  0.00    -0.079 HD
BRANCH   3   9
ATOM      8  O   UNL     1      35.071 -23.272 -14.318  0.00  0.00    -0.270 OA
ATOM      9  N   UNL     1      36.364 -23.283 -16.218  0.00  0.00    -0.302 N 
ATOM     10  C   UNL     1      36.102 -23.629 -14.890  0.00  0.00    +0.252 C 
ATOM     11  H   UNL     1      37.202 -23.591 -16.631  0.00  0.00    +0.150 HD
BRANCH  10  14
ATOM     12 CL   UNL     1      40.650 -26.503 -13.866  0.00  0.00    -0.075 Cl
ATOM     13  S   UNL     1      38.531 -24.819 -15.087  0.00  0.00    -0.071 S 
ATOM     14  C   UNL     1      37.114 -24.469 -14.231  0.00  0.00    +0.084 C 
ATOM     15  C   UNL     1      37.051 -25.011 -12.995  0.00  0.00    +0.012 C 
ATOM     16  C   UNL     1      38.229 -25.763 -12.717  0.00  0.00    +0.019 C 
ATOM     17  C   UNL     1      39.117 -25.741 -13.769  0.00  0.00    +0.087 C 
ENDBRANCH  10  14
ENDBRANCH   3   9
BRANCH   4  18
ATOM     18  O   UNL     1      33.105 -22.903 -16.664  0.00  0.00    -0.385 OA
ATOM     19  H   UNL     1      32.920 -21.962 -16.803  0.00  0.00    +0.210 HD
ENDBRANCH   4  18
ENDBRANCH   1   2
BRANCH   1  22
ATOM     20  O   UNL     1      33.269 -20.114 -20.797  0.00  0.00    -0.277 OA
ATOM     21  N   UNL     1      35.329 -19.451 -21.709  0.00  0.00    -0.284 N 
ATOM     22  C   UNL     1      34.464 -20.293 -21.012  0.00  0.00    +0.205 C 
ATOM     23  H   UNL     1      36.264 -19.752 -21.781  0.00  0.00    +0.155 HD
BRANCH  21  25
ATOM     24  F   UNL     1      34.702 -19.306 -24.410  0.00  0.00    -0.203 F 
ATOM     25  C   UNL     1      35.021 -18.214 -22.326  0.00  0.00    +0.078 C 
ATOM     26  C   UNL     1      34.713 -18.185 -23.675  0.00  0.00    +0.155 C 
ATOM     27  C   UNL     1      35.034 -17.059 -21.562  0.00  0.00    +0.018 C 
ATOM     28  C   UNL     1      34.420 -15.791 -23.525  0.00  0.00    +0.061 C 
ATOM     29  C   UNL     1      34.411 -16.964 -24.280  0.00  0.00    +0.046 C 
ATOM     30  C   UNL     1      34.733 -15.838 -22.166  0.00  0.00    +0.017 C 
BRANCH  28  32
ATOM     31  O   UNL     1      33.605 -15.447 -26.278  0.00  0.00    -0.269 OA
ATOM     32  N   UNL     1      34.107 -14.523 -24.154  0.00  0.00    -0.233 N 
ATOM     33  C   UNL     1      33.678 -14.491 -25.507  0.00  0.00    +0.257 C 
ATOM     34  C   UNL     1      34.244 -13.328 -23.445  0.00  0.00    +0.072 C 
ATOM     35  C   UNL     1      33.330 -13.147 -26.063  0.00  0.00    +0.059 C 
ATOM     36  C   UNL     1      33.957 -12.135 -23.976  0.00  0.00    +0.017 C 
ATOM     37  C   UNL     1      33.479 -12.046 -25.324  0.00  0.00    +0.006 C 
ENDBRANCH  28  32
ENDBRANCH  21  25
ENDBRANCH   1  22
TORSDOF 7
ENDMDL
MODEL 4
REMARK VINA RESULT:     -10.5      5.643     12.095
REMARK  Name = 11979006
REMARK  7 active torsions:
REMARK  status: ('A' for Active; 'I' for Inactive)
REMARK    1  A    between atoms: C_1  and  N_2
REMARK    2  A    between atoms: C_1  and  C_22
REMARK    3  A    between atoms: C_3  and  N_9
REMARK    4  A    between atoms: C_4  and  O_18
REMARK    5  A    between atoms: C_10  and  C_14
REMARK    6  A    between atoms: N_21  and  C_25
REMARK    7  A    between atoms: C_28  and  N_32
REMARK                            x       y       z     vdW  Elec       q    Type
REMARK                         _______ _______ _______ _____ _____    ______ ____
ROOT
ATOM      1  C   UNL     1      33.778 -17.944 -24.549  0.00  0.00    +0.010 C 
ENDROOT
BRANCH   1   2
ATOM      2  N   UNL     1      34.676 -18.550 -23.577  0.00  0.00    +0.396 N 
ATOM      3  C   UNL     1      35.074 -19.966 -21.794  0.00  0.00    +0.076 C 
ATOM      4  C   UNL     1      35.492 -18.559 -21.360  0.00  0.00    +0.106 C 
ATOM      5  C   UNL     1      34.090 -19.725 -22.930  0.00  0.00    -0.054 C 
ATOM      6  C   UNL     1      35.024 -17.634 -22.485  0.00  0.00    -0.045 C 
ATOM      7  H   UNL     1      35.498 -18.802 -24.125  0.00  0.00    -0.079 HD
BRANCH   3   9
ATOM      8  O   UNL     1      36.486 -21.609 -19.989  0.00  0.00    -0.270 OA
ATOM      9  N   UNL     1      34.495 -20.725 -20.719  0.00  0.00    -0.302 N 
ATOM     10  C   UNL     1      35.264 -21.518 -19.864  0.00  0.00    +0.252 C 
ATOM     11  H   UNL     1      33.521 -20.684 -20.581  0.00  0.00    +0.150 HD
BRANCH  10  14
ATOM     12 CL   UNL     1      33.982 -23.912 -15.109  0.00  0.00    -0.075 Cl
ATOM     13  S   UNL     1      35.352 -22.525 -17.348  0.00  0.00    -0.071 S 
ATOM     14  C   UNL     1      34.531 -22.209 -18.793  0.00  0.00    +0.084 C 
ATOM     15  C   UNL     1      33.248 -22.635 -18.820  0.00  0.00    +0.012 C 
ATOM     16  C   UNL     1      32.903 -23.262 -17.587  0.00  0.00    +0.019 C 
ATOM     17  C   UNL     1      33.954 -23.269 -16.698  0.00  0.00    +0.087 C 
ENDBRANCH  10  14
ENDBRANCH   3   9
BRANCH   4  18
ATOM     18  O   UNL     1      36.906 -18.511 -21.220  0.00  0.00    -0.385 OA
ATOM     19  H   UNL     1      37.160 -18.899 -20.368  0.00  0.00    +0.210 HD
ENDBRANCH   4  18
ENDBRANCH   1   2
BRANCH   1  22
ATOM     20  O   UNL     1      35.337 -16.374 -25.512  0.00  0.00    -0.277 OA
ATOM     21  N   UNL     1      33.390 -15.587 -24.462  0.00  0.00    -0.284 N 
ATOM     22  C   UNL     1      34.284 -16.558 -24.907  0.00  0.00    +0.205 C 
ATOM     23  H   UNL     1      32.588 -15.917 -23.995  0.00  0.00    +0.155 HD
BRANCH  21  25
ATOM     24  F   UNL     1      33.699 -13.942 -22.246  0.00  0.00    -0.203 F 
ATOM     25  C   UNL     1      33.498 -14.182 -24.600  0.00  0.00    +0.078 C 
ATOM     26  C   UNL     1      33.652 -13.397 -23.470  0.00  0.00    +0.155 C 
ATOM     27  C   UNL     1      33.449 -13.624 -25.867  0.00  0.00    +0.018 C 
ATOM     28  C   UNL     1      33.710 -11.435 -24.879  0.00  0.00    +0.061 C 
ATOM     29  C   UNL     1      33.758 -12.013 -23.610  0.00  0.00    +0.046 C 
ATOM     30  C   UNL     1      33.554 -12.241 -26.007  0.00  0.00    +0.017 C 
BRANCH  28  32
ATOM     31  O   UNL     1      36.044 -10.026 -25.842  0.00  0.00    -0.269 OA
ATOM     32  N   UNL     1      33.819  -9.996 -25.024  0.00  0.00    -0.233 N 
ATOM     33  C   UNL     1      35.010  -9.428 -25.548  0.00  0.00    +0.257 C 
ATOM     34  C   UNL     1      32.771  -9.163 -24.631  0.00  0.00    +0.072 C 
ATOM     35  C   UNL     1      35.022  -7.941 -25.708  0.00  0.00    +0.059 C 
ATOM     36  C   UNL     1      32.819  -7.832 -24.754  0.00  0.00    +0.017 C 
ATOM     37  C   UNL     1      33.978  -7.206 -25.317  0.00  0.00    +0.006 C 
ENDBRANCH  28  32
ENDBRANCH  21  25
ENDBRANCH   1  22
TORSDOF 7
ENDMDL
MODEL 5
REMARK VINA RESULT:     -10.4      4.192      6.491
REMARK  Name = 11979006
REMARK  7 active torsions:
REMARK  status: ('A' for Active; 'I' for Inactive)
REMARK    1  A    between atoms: C_1  and  N_2
REMARK    2  A    between atoms: C_1  and  C_22
REMARK    3  A    between atoms: C_3  and  N_9
REMARK    4  A    between atoms: C_4  and  O_18
REMARK    5  A    between atoms: C_10  and  C_14
REMARK    6  A    between atoms: N_21  and  C_25
REMARK    7  A    between atoms: C_28  and  N_32
REMARK                            x       y       z     vdW  Elec       q    Type
REMARK                         _______ _______ _______ _____ _____    ______ ____
ROOT
ATOM      1  C   UNL     1      36.135 -18.653 -23.253  0.00  0.00    +0.010 C 
ENDROOT
BRANCH   1   2
ATOM      2  N   UNL     1      35.532 -17.497 -23.898  0.00  0.00    +0.396 N 
ATOM      3  C   UNL     1      34.502 -15.430 -23.800  0.00  0.00    +0.076 C 
ATOM      4  C   UNL     1      33.546 -16.380 -24.524  0.00  0.00    +0.106 C 
ATOM      5  C   UNL     1      35.401 -16.355 -22.992  0.00  0.00    -0.054 C 
ATOM      6  C   UNL     1      34.175 -17.768 -24.385  0.00  0.00    -0.045 C 
ATOM      7  H   UNL     1      36.166 -17.285 -24.668  0.00  0.00    -0.079 HD
BRANCH   3   9
ATOM      8  O   UNL     1      33.099 -13.162 -24.717  0.00  0.00    -0.270 OA
ATOM      9  N   UNL     1      33.811 -14.478 -22.973  0.00  0.00    -0.302 N 
ATOM     10  C   UNL     1      33.136 -13.376 -23.504  0.00  0.00    +0.252 C 
ATOM     11  H   UNL     1      33.814 -14.607 -21.998  0.00  0.00    +0.150 HD
BRANCH  10  14
ATOM     12 CL   UNL     1      31.167  -8.985 -20.892  0.00  0.00    -0.075 Cl
ATOM     13  S   UNL     1      32.513 -10.838 -22.781  0.00  0.00    -0.071 S 
ATOM     14  C   UNL     1      32.451 -12.511 -22.533  0.00  0.00    +0.084 C 
ATOM     15  C   UNL     1      31.760 -12.895 -21.437  0.00  0.00    +0.012 C 
ATOM     16  C   UNL     1      31.243 -11.760 -20.747  0.00  0.00    +0.019 C 
ATOM     17  C   UNL     1      31.578 -10.579 -21.371  0.00  0.00    +0.087 C 
ENDBRANCH  10  14
ENDBRANCH   3   9
BRANCH   4  18
ATOM     18  O   UNL     1      33.453 -16.001 -25.891  0.00  0.00    -0.385 OA
ATOM     19  H   UNL     1      34.337 -16.013 -26.290  0.00  0.00    +0.210 HD
ENDBRANCH   4  18
ENDBRANCH   1   2
BRANCH   1  22
ATOM     20  O   UNL     1      35.182 -18.015 -21.130  0.00  0.00    -0.277 OA
ATOM     21  N   UNL     1      35.152 -20.268 -21.790  0.00  0.00    -0.284 N 
ATOM     22  C   UNL     1      35.438 -18.912 -21.928  0.00  0.00    +0.205 C 
ATOM     23  H   UNL     1      35.428 -20.848 -22.537  0.00  0.00    +0.155 HD
BRANCH  21  25
ATOM     24  F   UNL     1      36.588 -21.802 -19.975  0.00  0.00    -0.203 F 
ATOM     25  C   UNL     1      34.511 -20.910 -20.704  0.00  0.00    +0.078 C 
ATOM     26  C   UNL     1      35.263 -21.666 -19.820  0.00  0.00    +0.155 C 
ATOM     27  C   UNL     1      33.142 -20.767 -20.549  0.00  0.00    +0.018 C 
ATOM     28  C   UNL     1      33.250 -22.164 -18.580  0.00  0.00    +0.061 C 
ATOM     29  C   UNL     1      34.628 -22.298 -18.751  0.00  0.00    +0.046 C 
ATOM     30  C   UNL     1      32.507 -21.399 -19.480  0.00  0.00    +0.017 C 
BRANCH  28  32
ATOM     31  O   UNL     1      34.566 -23.775 -16.571  0.00  0.00    -0.269 OA
ATOM     32  N   UNL     1      32.590 -22.821 -17.469  0.00  0.00    -0.233 N 
ATOM     33  C   UNL     1      33.357 -23.553 -16.524  0.00  0.00    +0.257 C 
ATOM     34  C   UNL     1      31.202 -22.759 -17.332  0.00  0.00    +0.072 C 
ATOM     35  C   UNL     1      32.604 -24.160 -15.384  0.00  0.00    +0.059 C 
ATOM     36  C   UNL     1      30.549 -23.338 -16.320  0.00  0.00    +0.017 C 
ATOM     37  C   UNL     1      31.275 -24.054 -15.313  0.00  0.00    +0.006 C 
ENDBRANCH  28  32
ENDBRANCH  21  25
ENDBRANCH   1  22
TORSDOF 7
ENDMDL
MODEL 6
REMARK VINA RESULT:     -10.3      4.800      7.984
REMARK  Name = 11979006
REMARK  7 active torsions:
REMARK  status: ('A' for Active; 'I' for Inactive)
REMARK    1  A    between atoms: C_1  and  N_2
REMARK    2  A    between atoms: C_1  and  C_22
REMARK    3  A    between atoms: C_3  and  N_9
REMARK    4  A    between atoms: C_4  and  O_18
REMARK    5  A    between atoms: C_10  and  C_14
REMARK    6  A    between atoms: N_21  and  C_25
REMARK    7  A    between atoms: C_28  and  N_32
REMARK                            x       y       z     vdW  Elec       q    Type
REMARK                         _______ _______ _______ _____ _____    ______ ____
ROOT
ATOM      1  C   UNL     1      34.851 -20.237 -21.810  0.00  0.00    +0.010 C 
ENDROOT
BRANCH   1   2
ATOM      2  N   UNL     1      35.188 -18.909 -22.301  0.00  0.00    +0.396 N 
ATOM      3  C   UNL     1      34.898 -16.616 -22.302  0.00  0.00    +0.076 C 
ATOM      4  C   UNL     1      34.612 -17.111 -23.722  0.00  0.00    +0.106 C 
ATOM      5  C   UNL     1      34.682 -17.846 -21.432  0.00  0.00    -0.054 C 
ATOM      6  C   UNL     1      34.615 -18.637 -23.625  0.00  0.00    -0.045 C 
ATOM      7  H   UNL     1      36.207 -18.908 -22.331  0.00  0.00    -0.079 HD
BRANCH   3   9
ATOM      8  O   UNL     1      34.695 -14.145 -23.645  0.00  0.00    -0.270 OA
ATOM      9  N   UNL     1      34.051 -15.519 -21.920  0.00  0.00    -0.302 N 
ATOM     10  C   UNL     1      34.006 -14.322 -22.640  0.00  0.00    +0.252 C 
ATOM     11  H   UNL     1      33.482 -15.614 -21.123  0.00  0.00    +0.150 HD
BRANCH  10  14
ATOM     12 CL   UNL     1      31.042  -9.746 -22.131  0.00  0.00    -0.075 Cl
ATOM     13  S   UNL     1      32.907 -11.874 -23.029  0.00  0.00    -0.071 S 
ATOM     14  C   UNL     1      33.066 -13.306 -22.143  0.00  0.00    +0.084 C 
ATOM     15  C   UNL     1      32.293 -13.375 -21.036  0.00  0.00    +0.012 C 
ATOM     16  C   UNL     1      31.517 -12.189 -20.892  0.00  0.00    +0.019 C 
ATOM     17  C   UNL     1      31.754 -11.290 -21.908  0.00  0.00    +0.087 C 
ENDBRANCH  10  14
ENDBRANCH   3   9
BRANCH   4  18
ATOM     18  O   UNL     1      35.639 -16.657 -24.593  0.00  0.00    -0.385 OA
ATOM     19  H   UNL     1      36.173 -15.986 -24.141  0.00  0.00    +0.210 HD
ENDBRANCH   4  18
ENDBRANCH   1   2
BRANCH   1  22
ATOM     20  O   UNL     1      36.628 -19.894 -20.213  0.00  0.00    -0.277 OA
ATOM     21  N   UNL     1      34.970 -21.501 -19.785  0.00  0.00    -0.284 N 
ATOM     22  C   UNL     1      35.608 -20.504 -20.520  0.00  0.00    +0.205 C 
ATOM     23  H   UNL     1      34.154 -21.880 -20.184  0.00  0.00    +0.155 HD
BRANCH  21  25
ATOM     24  F   UNL     1      33.188 -22.946 -18.221  0.00  0.00    -0.203 F 
ATOM     25  C   UNL     1      35.359 -22.034 -18.532  0.00  0.00    +0.078 C 
ATOM     26  C   UNL     1      34.440 -22.749 -17.782  0.00  0.00    +0.155 C 
ATOM     27  C   UNL     1      36.653 -21.827 -18.084  0.00  0.00    +0.018 C 
ATOM     28  C   UNL     1      36.125 -23.072 -16.081  0.00  0.00    +0.061 C 
ATOM     29  C   UNL     1      34.826 -23.272 -16.548  0.00  0.00    +0.046 C 
ATOM     30  C   UNL     1      37.039 -22.349 -16.850  0.00  0.00    +0.017 C 
BRANCH  28  32
ATOM     31  O   UNL     1      36.743 -25.849 -15.562  0.00  0.00    -0.269 OA
ATOM     32  N   UNL     1      36.526 -23.616 -14.798  0.00  0.00    -0.233 N 
ATOM     33  C   UNL     1      36.842 -24.995 -14.682  0.00  0.00    +0.257 C 
ATOM     34  C   UNL     1      36.582 -22.797 -13.669  0.00  0.00    +0.072 C 
ATOM     35  C   UNL     1      37.290 -25.462 -13.334  0.00  0.00    +0.059 C 
ATOM     36  C   UNL     1      36.955 -23.247 -12.467  0.00  0.00    +0.017 C 
ATOM     37  C   UNL     1      37.327 -24.620 -12.299  0.00  0.00    +0.006 C 
ENDBRANCH  28  32
ENDBRANCH  21  25
ENDBRANCH   1  22
TORSDOF 7
ENDMDL
MODEL 7
REMARK VINA RESULT:     -10.0      9.347     15.084
REMARK  Name = 11979006
REMARK  7 active torsions:
REMARK  status: ('A' for Active; 'I' for Inactive)
REMARK    1  A    between atoms: C_1  and  N_2
REMARK    2  A    between atoms: C_1  and  C_22
REMARK    3  A    between atoms: C_3  and  N_9
REMARK    4  A    between atoms: C_4  and  O_18
REMARK    5  A    between atoms: C_10  and  C_14
REMARK    6  A    between atoms: N_21  and  C_25
REMARK    7  A    between atoms: C_28  and  N_32
REMARK                            x       y       z     vdW  Elec       q    Type
REMARK                         _______ _______ _______ _____ _____    ______ ____
ROOT
ATOM      1  C   UNL     1      31.896 -23.945 -16.642  0.00  0.00    +0.010 C 
ENDROOT
BRANCH   1   2
ATOM      2  N   UNL     1      32.711 -23.548 -15.504  0.00  0.00    +0.396 N 
ATOM      3  C   UNL     1      34.755 -23.369 -14.441  0.00  0.00    +0.076 C 
ATOM      4  C   UNL     1      33.851 -24.218 -13.546  0.00  0.00    +0.106 C 
ATOM      5  C   UNL     1      34.138 -23.504 -15.825  0.00  0.00    -0.054 C 
ATOM      6  C   UNL     1      32.592 -24.479 -14.376  0.00  0.00    -0.045 C 
ATOM      7  H   UNL     1      32.359 -22.623 -15.259  0.00  0.00    -0.079 HD
BRANCH   3   9
ATOM      8  O   UNL     1      35.793 -25.656 -15.722  0.00  0.00    -0.270 OA
ATOM      9  N   UNL     1      36.126 -23.801 -14.407  0.00  0.00    -0.302 N 
ATOM     10  C   UNL     1      36.564 -24.950 -15.071  0.00  0.00    +0.252 C 
ATOM     11  H   UNL     1      36.779 -23.269 -13.899  0.00  0.00    +0.150 HD
BRANCH  10  14
ATOM     12 CL   UNL     1      41.340 -27.324 -13.830  0.00  0.00    -0.075 Cl
ATOM     13  S   UNL     1      38.469 -26.622 -14.106  0.00  0.00    -0.071 S 
ATOM     14  C   UNL     1      38.001 -25.244 -14.969  0.00  0.00    +0.084 C 
ATOM     15  C   UNL     1      39.023 -24.530 -15.492  0.00  0.00    +0.012 C 
ATOM     16  C   UNL     1      40.273 -25.138 -15.174  0.00  0.00    +0.019 C 
ATOM     17  C   UNL     1      40.116 -26.283 -14.426  0.00  0.00    +0.087 C 
ENDBRANCH  10  14
ENDBRANCH   3   9
BRANCH   4  18
ATOM     18  O   UNL     1      33.537 -23.489 -12.367  0.00  0.00    -0.385 OA
ATOM     19  H   UNL     1      33.635 -24.067 -11.594  0.00  0.00    +0.210 HD
ENDBRANCH   4  18
ENDBRANCH   1   2
BRANCH   1  22
ATOM     20  O   UNL     1      30.845 -22.076 -17.750  0.00  0.00    -0.277 OA
ATOM     21  N   UNL     1      33.020 -22.718 -18.358  0.00  0.00    -0.284 N 
ATOM     22  C   UNL     1      31.830 -22.800 -17.639  0.00  0.00    +0.205 C 
ATOM     23  H   UNL     1      33.710 -23.383 -18.133  0.00  0.00    +0.155 HD
BRANCH  21  25
ATOM     24  F   UNL     1      35.663 -22.250 -19.068  0.00  0.00    -0.203 F 
ATOM     25  C   UNL     1      33.354 -21.791 -19.374  0.00  0.00    +0.078 C 
ATOM     26  C   UNL     1      34.684 -21.586 -19.699  0.00  0.00    +0.155 C 
ATOM     27  C   UNL     1      32.338 -21.107 -20.023  0.00  0.00    +0.018 C 
ATOM     28  C   UNL     1      33.999 -19.974 -21.363  0.00  0.00    +0.061 C 
ATOM     29  C   UNL     1      35.009 -20.671 -20.701  0.00  0.00    +0.046 C 
ATOM     30  C   UNL     1      32.663 -20.192 -21.024  0.00  0.00    +0.017 C 
BRANCH  28  32
ATOM     31  O   UNL     1      35.228 -17.392 -20.932  0.00  0.00    -0.269 OA
ATOM     32  N   UNL     1      34.338 -19.023 -22.404  0.00  0.00    -0.233 N 
ATOM     33  C   UNL     1      34.977 -17.802 -22.064  0.00  0.00    +0.257 C 
ATOM     34  C   UNL     1      34.019 -19.288 -23.737  0.00  0.00    +0.072 C 
ATOM     35  C   UNL     1      35.333 -16.899 -23.203  0.00  0.00    +0.059 C 
ATOM     36  C   UNL     1      34.320 -18.450 -24.733  0.00  0.00    +0.017 C 
ATOM     37  C   UNL     1      35.004 -17.222 -24.455  0.00  0.00    +0.006 C 
ENDBRANCH  28  32
ENDBRANCH  21  25
ENDBRANCH   1  22
TORSDOF 7
ENDMDL
MODEL 8
REMARK VINA RESULT:      -9.9      8.464     14.519
REMARK  Name = 11979006
REMARK  7 active torsions:
REMARK  status: ('A' for Active; 'I' for Inactive)
REMARK    1  A    between atoms: C_1  and  N_2
REMARK    2  A    between atoms: C_1  and  C_22
REMARK    3  A    between atoms: C_3  and  N_9
REMARK    4  A    between atoms: C_4  and  O_18
REMARK    5  A    between atoms: C_10  and  C_14
REMARK    6  A    between atoms: N_21  and  C_25
REMARK    7  A    between atoms: C_28  and  N_32
REMARK                            x       y       z     vdW  Elec       q    Type
REMARK                         _______ _______ _______ _____ _____    ______ ____
ROOT
ATOM      1  C   UNL     1      37.303 -23.325 -15.823  0.00  0.00    +0.010 C 
ENDROOT
BRANCH   1   2
ATOM      2  N   UNL     1      36.273 -24.043 -15.088  0.00  0.00    +0.396 N 
ATOM      3  C   UNL     1      34.082 -24.730 -14.820  0.00  0.00    +0.076 C 
ATOM      4  C   UNL     1      34.461 -23.923 -13.576  0.00  0.00    +0.106 C 
ATOM      5  C   UNL     1      35.062 -24.253 -15.882  0.00  0.00    -0.054 C 
ATOM      6  C   UNL     1      35.833 -23.323 -13.887  0.00  0.00    -0.045 C 
ATOM      7  H   UNL     1      36.714 -24.930 -14.847  0.00  0.00    -0.079 HD
BRANCH   3   9
ATOM      8  O   UNL     1      31.818 -25.412 -13.283  0.00  0.00    -0.270 OA
ATOM      9  N   UNL     1      32.713 -24.533 -15.209  0.00  0.00    -0.302 N 
ATOM     10  C   UNL     1      31.642 -24.898 -14.389  0.00  0.00    +0.252 C 
ATOM     11  H   UNL     1      32.522 -24.126 -16.084  0.00  0.00    +0.150 HD
BRANCH  10  14
ATOM     12 CL   UNL     1      27.283 -22.282 -16.425  0.00  0.00    -0.075 Cl
ATOM     13  S   UNL     1      29.956 -23.006 -15.354  0.00  0.00    -0.071 S 
ATOM     14  C   UNL     1      30.300 -24.602 -14.912  0.00  0.00    +0.084 C 
ATOM     15  C   UNL     1      29.279 -25.470 -15.087  0.00  0.00    +0.012 C 
ATOM     16  C   UNL     1      28.137 -24.801 -15.616  0.00  0.00    +0.019 C 
ATOM     17  C   UNL     1      28.369 -23.457 -15.810  0.00  0.00    +0.087 C 
ENDBRANCH  10  14
ENDBRANCH   3   9
BRANCH   4  18
ATOM     18  O   UNL     1      34.532 -24.793 -12.454  0.00  0.00    -0.385 OA
ATOM     19  H   UNL     1      35.441 -25.116 -12.353  0.00  0.00    +0.210 HD
ENDBRANCH   4  18
ENDBRANCH   1   2
BRANCH   1  22
ATOM     20  O   UNL     1      36.101 -21.247 -16.066  0.00  0.00    -0.277 OA
ATOM     21  N   UNL     1      36.833 -22.400 -17.976  0.00  0.00    -0.284 N 
ATOM     22  C   UNL     1      36.666 -22.192 -16.608  0.00  0.00    +0.205 C 
ATOM     23  H   UNL     1      37.319 -23.216 -18.235  0.00  0.00    +0.155 HD
BRANCH  21  25
ATOM     24  F   UNL     1      34.269 -22.650 -19.011  0.00  0.00    -0.203 F 
ATOM     25  C   UNL     1      36.387 -21.576 -19.037  0.00  0.00    +0.078 C 
ATOM     26  C   UNL     1      35.100 -21.732 -19.525  0.00  0.00    +0.155 C 
ATOM     27  C   UNL     1      37.250 -20.629 -19.563  0.00  0.00    +0.018 C 
ATOM     28  C   UNL     1      35.520 -19.960 -21.113  0.00  0.00    +0.061 C 
ATOM     29  C   UNL     1      34.664 -20.918 -20.570  0.00  0.00    +0.046 C 
ATOM     30  C   UNL     1      36.813 -19.815 -20.609  0.00  0.00    +0.017 C 
BRANCH  28  32
ATOM     31  O   UNL     1      35.205 -17.088 -20.978  0.00  0.00    -0.269 OA
ATOM     32  N   UNL     1      35.066 -19.115 -22.200  0.00  0.00    -0.233 N 
ATOM     33  C   UNL     1      34.992 -17.709 -22.019  0.00  0.00    +0.257 C 
ATOM     34  C   UNL     1      34.678 -19.675 -23.418  0.00  0.00    +0.072 C 
ATOM     35  C   UNL     1      34.559 -16.908 -23.205  0.00  0.00    +0.059 C 
ATOM     36  C   UNL     1      34.263 -18.939 -24.454  0.00  0.00    +0.017 C 
ATOM     37  C   UNL     1      34.210 -17.511 -24.343  0.00  0.00    +0.006 C 
ENDBRANCH  28  32
ENDBRANCH  21  25
ENDBRANCH   1  22
TORSDOF 7
ENDMDL
MODEL 9
REMARK VINA RESULT:      -9.7      2.237      2.707
REMARK  Name = 11979006
REMARK  7 active torsions:
REMARK  status: ('A' for Active; 'I' for Inactive)
REMARK    1  A    between atoms: C_1  and  N_2
REMARK    2  A    between atoms: C_1  and  C_22
REMARK    3  A    between atoms: C_3  and  N_9
REMARK    4  A    between atoms: C_4  and  O_18
REMARK    5  A    between atoms: C_10  and  C_14
REMARK    6  A    between atoms: N_21  and  C_25
REMARK    7  A    between atoms: C_28  and  N_32
REMARK                            x       y       z     vdW  Elec       q    Type
REMARK                         _______ _______ _______ _____ _____    ______ ____
ROOT
ATOM      1  C   UNL     1      34.238 -14.049 -25.881  0.00  0.00    +0.010 C 
ENDROOT
BRANCH   1   2
ATOM      2  N   UNL     1      33.529 -12.891 -25.359  0.00  0.00    +0.396 N 
ATOM      3  C   UNL     1      33.162 -10.610 -25.272  0.00  0.00    +0.076 C 
ATOM      4  C   UNL     1      33.536 -11.065 -23.859  0.00  0.00    +0.106 C 
ATOM      5  C   UNL     1      33.739 -11.693 -26.173  0.00  0.00    -0.054 C 
ATOM      6  C   UNL     1      33.965 -12.526 -24.006  0.00  0.00    -0.045 C 
ATOM      7  H   UNL     1      32.550 -13.176 -25.369  0.00  0.00    -0.079 HD
BRANCH   3   9
ATOM      8  O   UNL     1      32.079  -8.159 -24.395  0.00  0.00    -0.270 OA
ATOM      9  N   UNL     1      33.676  -9.305 -25.584  0.00  0.00    -0.302 N 
ATOM     10  C   UNL     1      33.082  -8.133 -25.110  0.00  0.00    +0.252 C 
ATOM     11  H   UNL     1      34.476  -9.234 -26.153  0.00  0.00    +0.150 HD
BRANCH  10  14
ATOM     12 CL   UNL     1      36.685  -4.506 -27.073  0.00  0.00    -0.075 Cl
ATOM     13  S   UNL     1      35.248  -6.973 -26.256  0.00  0.00    -0.071 S 
ATOM     14  C   UNL     1      33.743  -6.876 -25.489  0.00  0.00    +0.084 C 
ATOM     15  C   UNL     1      33.288  -5.618 -25.296  0.00  0.00    +0.012 C 
ATOM     16  C   UNL     1      34.218  -4.664 -25.802  0.00  0.00    +0.019 C 
ATOM     17  C   UNL     1      35.328  -5.266 -26.351  0.00  0.00    +0.087 C 
ENDBRANCH  10  14
ENDBRANCH   3   9
BRANCH   4  18
ATOM     18  O   UNL     1      32.398 -10.955 -23.013  0.00  0.00    -0.385 OA
ATOM     19  H   UNL     1      32.265 -10.025 -22.771  0.00  0.00    +0.210 HD
ENDBRANCH   4  18
ENDBRANCH   1   2
BRANCH   1  22
ATOM     20  O   UNL     1      32.690 -15.799 -25.277  0.00  0.00    -0.277 OA
ATOM     21  N   UNL     1      34.819 -15.734 -24.288  0.00  0.00    -0.284 N 
ATOM     22  C   UNL     1      33.798 -15.292 -25.127  0.00  0.00    +0.205 C 
ATOM     23  H   UNL     1      35.649 -15.204 -24.297  0.00  0.00    +0.155 HD
BRANCH  21  25
ATOM     24  F   UNL     1      34.360 -18.294 -25.260  0.00  0.00    -0.203 F 
ATOM     25  C   UNL     1      34.803 -16.855 -23.424  0.00  0.00    +0.078 C 
ATOM     26  C   UNL     1      34.570 -18.116 -23.948  0.00  0.00    +0.155 C 
ATOM     27  C   UNL     1      35.021 -16.665 -22.069  0.00  0.00    +0.018 C 
ATOM     28  C   UNL     1      34.772 -19.044 -21.727  0.00  0.00    +0.061 C 
ATOM     29  C   UNL     1      34.555 -19.218 -23.094  0.00  0.00    +0.046 C 
ATOM     30  C   UNL     1      35.005 -17.767 -21.215  0.00  0.00    +0.017 C 
BRANCH  28  32
ATOM     31  O   UNL     1      32.393 -20.345 -20.722  0.00  0.00    -0.269 OA
ATOM     32  N   UNL     1      34.756 -20.190 -20.839  0.00  0.00    -0.233 N 
ATOM     33  C   UNL     1      33.517 -20.764 -20.448  0.00  0.00    +0.257 C 
ATOM     34  C   UNL     1      35.949 -20.723 -20.347  0.00  0.00    +0.072 C 
ATOM     35  C   UNL     1      33.592 -21.972 -19.569  0.00  0.00    +0.059 C 
ATOM     36  C   UNL     1      35.987 -21.784 -19.536  0.00  0.00    +0.017 C 
ATOM     37  C   UNL     1      34.770 -22.431 -19.142  0.00  0.00    +0.006 C 
ENDBRANCH  28  32
ENDBRANCH  21  25
ENDBRANCH   1  22
TORSDOF 7
ENDMDL
