MODEL 1
REMARK VINA RESULT:     -11.1      0.000      0.000
REMARK  Name = 3351
REMARK  5 active torsions:
REMARK  status: ('A' for Active; 'I' for Inactive)
REMARK    1  A    between atoms: N_2  and  C_10
REMARK    2  A    between atoms: C_8  and  C_20
REMARK    3  A    between atoms: C_10  and  C_13
REMARK    4  A    between atoms: C_20  and  O_21
REMARK    5  A    between atoms: O_21  and  C_23
REMARK                            x       y       z     vdW  Elec       q    Type
REMARK                         _______ _______ _______ _____ _____    ______ ____
ROOT
ATOM      1  O   UNL     1      35.122 -17.192 -24.162  0.00  0.00    -0.271 OA
ATOM      2  N   UNL     1      32.831 -13.141 -22.357  0.00  0.00    +0.392 N 
ATOM      3  N   UNL     1      34.492 -15.437 -22.776  0.00  0.00    -0.281 N 
ATOM      4  C   UNL     1      32.823 -13.842 -23.650  0.00  0.00    -0.055 C 
ATOM      5  C   UNL     1      33.081 -14.088 -21.261  0.00  0.00    -0.055 C 
ATOM      6  C   UNL     1      34.156 -14.550 -23.889  0.00  0.00    +0.071 C 
ATOM      7  C   UNL     1      34.417 -14.809 -21.455  0.00  0.00    +0.071 C 
ATOM      8  C   UNL     1      34.962 -16.725 -23.032  0.00  0.00    +0.270 C 
ATOM      9  H   UNL     1      33.584 -12.453 -22.368  0.00  0.00    -0.079 HD
ENDROOT
BRANCH   2  10
ATOM     10  C   UNL     1      31.567 -12.436 -22.147  0.00  0.00    -0.050 C 
BRANCH  10  13
ATOM     11  O   UNL     1      32.907  -7.831 -23.321  0.00  0.00    -0.435 OA
ATOM     12  O   UNL     1      32.415  -7.002 -21.112  0.00  0.00    -0.435 OA
ATOM     13  C   UNL     1      31.783 -10.980 -21.833  0.00  0.00    -0.040 C 
ATOM     14  C   UNL     1      32.264 -10.134 -22.828  0.00  0.00    +0.034 C 
ATOM     15  C   UNL     1      31.494 -10.509 -20.547  0.00  0.00    -0.003 C 
ATOM     16  C   UNL     1      32.446  -8.807 -22.492  0.00  0.00    +0.176 C 
ATOM     17  C   UNL     1      32.165  -8.334 -21.231  0.00  0.00    +0.176 C 
ATOM     18  C   UNL     1      31.688  -9.161 -20.235  0.00  0.00    +0.040 C 
ATOM     19  C   UNL     1      32.884  -6.690 -22.440  0.00  0.00    +0.429 C 
ENDBRANCH  10  13
ENDBRANCH   2  10
BRANCH   8  20
ATOM     20  C   UNL     1      35.281 -17.577 -21.830  0.00  0.00    +0.290 C 
BRANCH  20  21
ATOM     21  O   UNL     1      35.213 -18.915 -22.255  0.00  0.00    -0.466 OA
BRANCH  21  23
ATOM     22 CL   UNL     1      33.148 -22.868 -18.435  0.00  0.00    -0.082 Cl
ATOM     23  C   UNL     1      34.730 -19.841 -21.358  0.00  0.00    +0.139 C 
ATOM     24  C   UNL     1      35.620 -20.622 -20.638  0.00  0.00    +0.038 C 
ATOM     25  C   UNL     1      33.359 -19.977 -21.192  0.00  0.00    +0.038 C 
ATOM     26  C   UNL     1      35.130 -21.561 -19.730  0.00  0.00    +0.015 C 
ATOM     27  C   UNL     1      32.869 -20.917 -20.285  0.00  0.00    +0.015 C 
ATOM     28  C   UNL     1      33.753 -21.708 -19.554  0.00  0.00    +0.058 C 
ENDBRANCH  21  23
ENDBRANCH  20  21
ENDBRANCH   8  20
TORSDOF 5
ENDMDL
MODEL 2
REMARK VINA RESULT:     -11.0      5.198      8.040
REMARK  Name = 3351
REMARK  5 active torsions:
REMARK  status: ('A' for Active; 'I' for Inactive)
REMARK    1  A    between atoms: N_2  and  C_10
REMARK    2  A    between atoms: C_8  and  C_20
REMARK    3  A    between atoms: C_10  and  C_13
REMARK    4  A    between atoms: C_20  and  O_21
REMARK    5  A    between atoms: O_21  and  C_23
REMARK                            x       y       z     vdW  Elec       q    Type
REMARK                         _______ _______ _______ _____ _____    ______ ____
ROOT
ATOM      1  O   UNL     1      31.489 -22.433 -17.983  0.00  0.00    -0.271 OA
ATOM      2  N   UNL     1      34.920 -20.502 -21.050  0.00  0.00    +0.392 N 
ATOM      3  N   UNL     1      33.382 -22.172 -19.304  0.00  0.00    -0.281 N 
ATOM      4  C   UNL     1      33.598 -20.068 -20.577  0.00  0.00    -0.055 C 
ATOM      5  C   UNL     1      35.587 -21.326 -20.032  0.00  0.00    -0.055 C 
ATOM      6  C   UNL     1      32.718 -21.273 -20.248  0.00  0.00    +0.071 C 
ATOM      7  C   UNL     1      34.744 -22.555 -19.685  0.00  0.00    +0.071 C 
ATOM      8  C   UNL     1      32.674 -22.686 -18.219  0.00  0.00    +0.270 C 
ATOM      9  H   UNL     1      34.792 -21.068 -21.890  0.00  0.00    -0.079 HD
ENDROOT
BRANCH   2  10
ATOM     10  C   UNL     1      35.747 -19.346 -21.397  0.00  0.00    -0.050 C 
BRANCH  10  13
ATOM     11  O   UNL     1      34.523 -15.200 -23.783  0.00  0.00    -0.435 OA
ATOM     12  O   UNL     1      33.695 -16.409 -25.697  0.00  0.00    -0.435 OA
ATOM     13  C   UNL     1      35.188 -18.589 -22.572  0.00  0.00    -0.040 C 
ATOM     14  C   UNL     1      35.159 -17.198 -22.533  0.00  0.00    +0.034 C 
ATOM     15  C   UNL     1      34.710 -19.300 -23.678  0.00  0.00    -0.003 C 
ATOM     16  C   UNL     1      34.638 -16.548 -23.633  0.00  0.00    +0.176 C 
ATOM     17  C   UNL     1      34.165 -17.238 -24.725  0.00  0.00    +0.176 C 
ATOM     18  C   UNL     1      34.187 -18.616 -24.779  0.00  0.00    +0.040 C 
ATOM     19  C   UNL     1      33.925 -15.119 -25.092  0.00  0.00    +0.429 C 
ENDBRANCH  10  13
ENDBRANCH   2  10
BRANCH   8  20
ATOM     20  C   UNL     1      33.431 -23.601 -17.291  0.00  0.00    +0.290 C 
BRANCH  20  21
ATOM     21  O   UNL     1      34.317 -22.789 -16.559  0.00  0.00    -0.466 OA
BRANCH  21  23
ATOM     22 CL   UNL     1      39.059 -25.363 -14.242  0.00  0.00    -0.082 Cl
ATOM     23  C   UNL     1      35.428 -23.394 -16.017  0.00  0.00    +0.139 C 
ATOM     24  C   UNL     1      35.284 -24.577 -15.309  0.00  0.00    +0.038 C 
ATOM     25  C   UNL     1      36.674 -22.808 -16.188  0.00  0.00    +0.038 C 
ATOM     26  C   UNL     1      36.410 -25.189 -14.758  0.00  0.00    +0.015 C 
ATOM     27  C   UNL     1      37.801 -23.419 -15.637  0.00  0.00    +0.015 C 
ATOM     28  C   UNL     1      37.669 -24.609 -14.922  0.00  0.00    +0.058 C 
ENDBRANCH  21  23
ENDBRANCH  20  21
ENDBRANCH   8  20
TORSDOF 5
ENDMDL
MODEL 3
REMARK VINA RESULT:     -10.7      4.218     10.425
REMARK  Name = 3351
REMARK  5 active torsions:
REMARK  status: ('A' for Active; 'I' for Inactive)
REMARK    1  A    between atoms: N_2  and  C_10
REMARK    2  A    between atoms: C_8  and  C_20
REMARK    3  A    between atoms: C_10  and  C_13
REMARK    4  A    between atoms: C_20  and  O_21
REMARK    5  A    between atoms: O_21  and  C_23
REMARK                            x       y       z     vdW  Elec       q    Type
REMARK                         _______ _______ _______ _____ _____    ______ ____
ROOT
ATOM      1  O   UNL     1      33.408 -13.231 -26.062  0.00  0.00    -0.271 OA
ATOM      2  N   UNL     1      34.829 -17.155 -23.325  0.00  0.00    +0.392 N 
ATOM      3  N   UNL     1      33.768 -14.669 -24.274  0.00  0.00    -0.281 N 
ATOM      4  C   UNL     1      34.821 -16.848 -24.762  0.00  0.00    -0.055 C 
ATOM      5  C   UNL     1      34.998 -15.925 -22.537  0.00  0.00    -0.055 C 
ATOM      6  C   UNL     1      33.694 -15.873 -25.102  0.00  0.00    +0.071 C 
ATOM      7  C   UNL     1      33.878 -14.926 -22.836  0.00  0.00    +0.071 C 
ATOM      8  C   UNL     1      33.611 -13.413 -24.859  0.00  0.00    +0.270 C 
ATOM      9  H   UNL     1      33.932 -17.575 -23.079  0.00  0.00    -0.079 HD
ENDROOT
BRANCH   2  10
ATOM     10  C   UNL     1      35.886 -18.114 -23.010  0.00  0.00    -0.050 C 
BRANCH  10  13
ATOM     11  O   UNL     1      32.451 -20.737 -20.622  0.00  0.00    -0.435 OA
ATOM     12  O   UNL     1      34.090 -21.856 -19.255  0.00  0.00    -0.435 OA
ATOM     13  C   UNL     1      35.439 -19.127 -21.990  0.00  0.00    -0.040 C 
ATOM     14  C   UNL     1      34.082 -19.401 -21.853  0.00  0.00    +0.034 C 
ATOM     15  C   UNL     1      36.399 -19.771 -21.201  0.00  0.00    -0.003 C 
ATOM     16  C   UNL     1      33.720 -20.337 -20.905  0.00  0.00    +0.176 C 
ATOM     17  C   UNL     1      34.656 -20.975 -20.125  0.00  0.00    +0.176 C 
ATOM     18  C   UNL     1      36.006 -20.714 -20.248  0.00  0.00    +0.040 C 
ATOM     19  C   UNL     1      32.692 -21.700 -19.577  0.00  0.00    +0.429 C 
ENDBRANCH  10  13
ENDBRANCH   2  10
BRANCH   8  20
ATOM     20  C   UNL     1      33.706 -12.223 -23.939  0.00  0.00    +0.290 C 
BRANCH  20  21
ATOM     21  O   UNL     1      34.313 -11.191 -24.675  0.00  0.00    -0.466 OA
BRANCH  21  23
ATOM     22 CL   UNL     1      33.067  -5.666 -23.125  0.00  0.00    -0.082 Cl
ATOM     23  C   UNL     1      34.021  -9.896 -24.310  0.00  0.00    +0.139 C 
ATOM     24  C   UNL     1      32.745  -9.585 -23.868  0.00  0.00    +0.038 C 
ATOM     25  C   UNL     1      35.009  -8.926 -24.392  0.00  0.00    +0.038 C 
ATOM     26  C   UNL     1      32.448  -8.272 -23.500  0.00  0.00    +0.015 C 
ATOM     27  C   UNL     1      34.712  -7.613 -24.024  0.00  0.00    +0.015 C 
ATOM     28  C   UNL     1      33.433  -7.286 -23.578  0.00  0.00    +0.058 C 
ENDBRANCH  21  23
ENDBRANCH  20  21
ENDBRANCH   8  20
TORSDOF 5
ENDMDL
MODEL 4
REMARK VINA RESULT:     -10.6      4.431     10.490
REMARK  Name = 3351
REMARK  5 active torsions:
REMARK  status: ('A' for Active; 'I' for Inactive)
REMARK    1  A    between atoms: N_2  and  C_10
REMARK    2  A    between atoms: C_8  and  C_20
REMARK    3  A    between atoms: C_10  and  C_13
REMARK    4  A    between atoms: C_20  and  O_21
REMARK    5  A    between atoms: O_21  and  C_23
REMARK                            x       y       z     vdW  Elec       q    Type
REMARK                         _______ _______ _______ _____ _____    ______ ____
ROOT
ATOM      1  O   UNL     1      33.456 -14.771 -26.277  0.00  0.00    -0.271 OA
ATOM      2  N   UNL     1      35.088 -17.822 -22.680  0.00  0.00    +0.392 N 
ATOM      3  N   UNL     1      33.936 -15.680 -24.194  0.00  0.00    -0.281 N 
ATOM      4  C   UNL     1      34.998 -17.909 -24.144  0.00  0.00    -0.055 C 
ATOM      5  C   UNL     1      35.278 -16.427 -22.258  0.00  0.00    -0.055 C 
ATOM      6  C   UNL     1      33.838 -17.061 -24.666  0.00  0.00    +0.071 C 
ATOM      7  C   UNL     1      34.127 -15.545 -22.748  0.00  0.00    +0.071 C 
ATOM      8  C   UNL     1      33.727 -14.627 -25.082  0.00  0.00    +0.270 C 
ATOM      9  H   UNL     1      34.212 -18.163 -22.281  0.00  0.00    -0.079 HD
ENDROOT
BRANCH   2  10
ATOM     10  C   UNL     1      36.176 -18.661 -22.181  0.00  0.00    -0.050 C 
BRANCH  10  13
ATOM     11  O   UNL     1      32.609 -21.270 -19.979  0.00  0.00    -0.435 OA
ATOM     12  O   UNL     1      34.189 -22.600 -18.737  0.00  0.00    -0.435 OA
ATOM     13  C   UNL     1      35.678 -19.730 -21.246  0.00  0.00    -0.040 C 
ATOM     14  C   UNL     1      34.307 -19.933 -21.114  0.00  0.00    +0.034 C 
ATOM     15  C   UNL     1      36.604 -20.496 -20.529  0.00  0.00    -0.003 C 
ATOM     16  C   UNL     1      33.898 -20.924 -20.244  0.00  0.00    +0.176 C 
ATOM     17  C   UNL     1      34.800 -21.682 -19.535  0.00  0.00    +0.176 C 
ATOM     18  C   UNL     1      36.162 -21.493 -19.655  0.00  0.00    +0.040 C 
ATOM     19  C   UNL     1      32.801 -22.333 -19.024  0.00  0.00    +0.429 C 
ENDBRANCH  10  13
ENDBRANCH   2  10
BRANCH   8  20
ATOM     20  C   UNL     1      33.851 -13.234 -24.518  0.00  0.00    +0.290 C 
BRANCH  20  21
ATOM     21  O   UNL     1      33.756 -12.348 -25.606  0.00  0.00    -0.466 OA
BRANCH  21  23
ATOM     22 CL   UNL     1      35.185  -6.735 -24.640  0.00  0.00    -0.082 Cl
ATOM     23  C   UNL     1      34.090 -11.032 -25.381  0.00  0.00    +0.139 C 
ATOM     24  C   UNL     1      34.908 -10.372 -26.285  0.00  0.00    +0.038 C 
ATOM     25  C   UNL     1      33.603 -10.389 -24.252  0.00  0.00    +0.038 C 
ATOM     26  C   UNL     1      35.248  -9.038 -26.056  0.00  0.00    +0.015 C 
ATOM     27  C   UNL     1      33.944  -9.055 -24.022  0.00  0.00    +0.015 C 
ATOM     28  C   UNL     1      34.765  -8.380 -24.924  0.00  0.00    +0.058 C 
ENDBRANCH  21  23
ENDBRANCH  20  21
ENDBRANCH   8  20
TORSDOF 5
ENDMDL
MODEL 5
REMARK VINA RESULT:     -10.4      7.678     11.646
REMARK  Name = 3351
REMARK  5 active torsions:
REMARK  status: ('A' for Active; 'I' for Inactive)
REMARK    1  A    between atoms: N_2  and  C_10
REMARK    2  A    between atoms: C_8  and  C_20
REMARK    3  A    between atoms: C_10  and  C_13
REMARK    4  A    between atoms: C_20  and  O_21
REMARK    5  A    between atoms: O_21  and  C_23
REMARK                            x       y       z     vdW  Elec       q    Type
REMARK                         _______ _______ _______ _____ _____    ______ ____
ROOT
ATOM      1  O   UNL     1      37.202 -21.461 -17.272  0.00  0.00    -0.271 OA
ATOM      2  N   UNL     1      33.268 -23.761 -15.236  0.00  0.00    +0.392 N 
ATOM      3  N   UNL     1      35.320 -22.793 -16.984  0.00  0.00    -0.281 N 
ATOM      4  C   UNL     1      34.358 -22.925 -14.714  0.00  0.00    -0.055 C 
ATOM      5  C   UNL     1      32.949 -23.386 -16.621  0.00  0.00    -0.055 C 
ATOM      6  C   UNL     1      35.611 -23.068 -15.577  0.00  0.00    +0.071 C 
ATOM      7  C   UNL     1      34.176 -23.531 -17.524  0.00  0.00    +0.071 C 
ATOM      8  C   UNL     1      36.179 -21.982 -17.725  0.00  0.00    +0.270 C 
ATOM      9  H   UNL     1      33.575 -24.734 -15.228  0.00  0.00    -0.079 HD
ENDROOT
BRANCH   2  10
ATOM     10  C   UNL     1      32.082 -23.648 -14.388  0.00  0.00    -0.050 C 
BRANCH  10  13
ATOM     11  O   UNL     1      28.300 -22.097 -17.158  0.00  0.00    -0.435 OA
ATOM     12  O   UNL     1      27.357 -24.309 -17.313  0.00  0.00    -0.435 OA
ATOM     13  C   UNL     1      30.812 -23.863 -15.167  0.00  0.00    -0.040 C 
ATOM     14  C   UNL     1      30.202 -22.777 -15.787  0.00  0.00    +0.034 C 
ATOM     15  C   UNL     1      30.272 -25.152 -15.251  0.00  0.00    -0.003 C 
ATOM     16  C   UNL     1      29.040 -23.023 -16.489  0.00  0.00    +0.176 C 
ATOM     17  C   UNL     1      28.501 -24.286 -16.578  0.00  0.00    +0.176 C 
ATOM     18  C   UNL     1      29.094 -25.373 -15.969  0.00  0.00    +0.040 C 
ATOM     19  C   UNL     1      27.235 -22.918 -17.678  0.00  0.00    +0.429 C 
ENDBRANCH  10  13
ENDBRANCH   2  10
BRANCH   8  20
ATOM     20  C   UNL     1      35.806 -21.743 -19.166  0.00  0.00    +0.290 C 
BRANCH  20  21
ATOM     21  O   UNL     1      36.463 -20.565 -19.562  0.00  0.00    -0.466 OA
BRANCH  21  23
ATOM     22 CL   UNL     1      34.468 -17.850 -24.372  0.00  0.00    -0.082 Cl
ATOM     23  C   UNL     1      35.994 -19.927 -20.689  0.00  0.00    +0.139 C 
ATOM     24  C   UNL     1      34.707 -20.188 -21.133  0.00  0.00    +0.038 C 
ATOM     25  C   UNL     1      36.819 -19.037 -21.361  0.00  0.00    +0.038 C 
ATOM     26  C   UNL     1      34.233 -19.543 -22.277  0.00  0.00    +0.015 C 
ATOM     27  C   UNL     1      36.345 -18.393 -22.504  0.00  0.00    +0.015 C 
ATOM     28  C   UNL     1      35.053 -18.645 -22.962  0.00  0.00    +0.058 C 
ENDBRANCH  21  23
ENDBRANCH  20  21
ENDBRANCH   8  20
TORSDOF 5
ENDMDL
MODEL 6
REMARK VINA RESULT:     -10.4      8.329     13.606
REMARK  Name = 3351
REMARK  5 active torsions:
REMARK  status: ('A' for Active; 'I' for Inactive)
REMARK    1  A    between atoms: N_2  and  C_10
REMARK    2  A    between atoms: C_8  and  C_20
REMARK    3  A    between atoms: C_10  and  C_13
REMARK    4  A    between atoms: C_20  and  O_21
REMARK    5  A    between atoms: O_21  and  C_23
REMARK                            x       y       z     vdW  Elec       q    Type
REMARK                         _______ _______ _______ _____ _____    ______ ____
ROOT
ATOM      1  O   UNL     1      30.833 -23.548 -16.987  0.00  0.00    -0.271 OA
ATOM      2  N   UNL     1      34.281 -23.856 -13.392  0.00  0.00    +0.392 N 
ATOM      3  N   UNL     1      32.797 -23.285 -15.774  0.00  0.00    -0.281 N 
ATOM      4  C   UNL     1      32.878 -24.277 -13.515  0.00  0.00    -0.055 C 
ATOM      5  C   UNL     1      34.943 -23.881 -14.704  0.00  0.00    -0.055 C 
ATOM      6  C   UNL     1      32.122 -23.364 -14.479  0.00  0.00    +0.071 C 
ATOM      7  C   UNL     1      34.224 -22.964 -15.697  0.00  0.00    +0.071 C 
ATOM      8  C   UNL     1      32.056 -23.389 -16.950  0.00  0.00    +0.270 C 
ATOM      9  H   UNL     1      34.301 -22.899 -13.038  0.00  0.00    -0.079 HD
ENDROOT
BRANCH   2  10
ATOM     10  C   UNL     1      34.993 -24.710 -12.442  0.00  0.00    -0.050 C 
BRANCH  10  13
ATOM     11  O   UNL     1      38.789 -26.741 -14.861  0.00  0.00    -0.435 OA
ATOM     12  O   UNL     1      40.391 -25.282 -13.806  0.00  0.00    -0.435 OA
ATOM     13  C   UNL     1      36.453 -24.836 -12.785  0.00  0.00    -0.040 C 
ATOM     14  C   UNL     1      36.855 -25.795 -13.709  0.00  0.00    +0.034 C 
ATOM     15  C   UNL     1      37.376 -23.984 -12.167  0.00  0.00    -0.003 C 
ATOM     16  C   UNL     1      38.204 -25.873 -13.992  0.00  0.00    +0.176 C 
ATOM     17  C   UNL     1      39.118 -25.040 -13.389  0.00  0.00    +0.176 C 
ATOM     18  C   UNL     1      38.736 -24.084 -12.471  0.00  0.00    +0.040 C 
ATOM     19  C   UNL     1      40.174 -26.361 -14.738  0.00  0.00    +0.429 C 
ENDBRANCH  10  13
ENDBRANCH   2  10
BRANCH   8  20
ATOM     20  C   UNL     1      32.827 -23.303 -18.243  0.00  0.00    +0.290 C 
BRANCH  20  21
ATOM     21  O   UNL     1      32.314 -22.197 -18.945  0.00  0.00    -0.466 OA
BRANCH  21  23
ATOM     22 CL   UNL     1      36.086 -19.056 -22.167  0.00  0.00    -0.082 Cl
ATOM     23  C   UNL     1      33.199 -21.462 -19.701  0.00  0.00    +0.139 C 
ATOM     24  C   UNL     1      34.560 -21.697 -19.578  0.00  0.00    +0.038 C 
ATOM     25  C   UNL     1      32.713 -20.499 -20.573  0.00  0.00    +0.038 C 
ATOM     26  C   UNL     1      35.456 -20.950 -20.343  0.00  0.00    +0.015 C 
ATOM     27  C   UNL     1      33.609 -19.752 -21.338  0.00  0.00    +0.015 C 
ATOM     28  C   UNL     1      34.980 -19.978 -21.224  0.00  0.00    +0.058 C 
ENDBRANCH  21  23
ENDBRANCH  20  21
ENDBRANCH   8  20
TORSDOF 5
ENDMDL
MODEL 7
REMARK VINA RESULT:     -10.3      8.981     12.091
REMARK  Name = 3351
REMARK  5 active torsions:
REMARK  status: ('A' for Active; 'I' for Inactive)
REMARK    1  A    between atoms: N_2  and  C_10
REMARK    2  A    between atoms: C_8  and  C_20
REMARK    3  A    between atoms: C_10  and  C_13
REMARK    4  A    between atoms: C_20  and  O_21
REMARK    5  A    between atoms: O_21  and  C_23
REMARK                            x       y       z     vdW  Elec       q    Type
REMARK                         _______ _______ _______ _____ _____    ______ ____
ROOT
ATOM      1  O   UNL     1      37.557 -23.030 -14.731  0.00  0.00    -0.271 OA
ATOM      2  N   UNL     1      32.728 -24.260 -14.449  0.00  0.00    +0.392 N 
ATOM      3  N   UNL     1      35.379 -23.595 -15.307  0.00  0.00    -0.281 N 
ATOM      4  C   UNL     1      33.811 -24.101 -13.468  0.00  0.00    -0.055 C 
ATOM      5  C   UNL     1      32.935 -23.362 -15.594  0.00  0.00    -0.055 C 
ATOM      6  C   UNL     1      35.167 -24.402 -14.106  0.00  0.00    +0.071 C 
ATOM      7  C   UNL     1      34.278 -23.643 -16.273  0.00  0.00    +0.071 C 
ATOM      8  C   UNL     1      36.603 -22.961 -15.511  0.00  0.00    +0.270 C 
ATOM      9  H   UNL     1      32.737 -25.223 -14.788  0.00  0.00    -0.079 HD
ENDROOT
BRANCH   2  10
ATOM     10  C   UNL     1      31.430 -24.005 -13.826  0.00  0.00    -0.050 C 
BRANCH  10  13
ATOM     11  O   UNL     1      27.949 -21.940 -16.655  0.00  0.00    -0.435 OA
ATOM     12  O   UNL     1      27.242 -24.068 -17.539  0.00  0.00    -0.435 OA
ATOM     13  C   UNL     1      30.306 -24.060 -14.827  0.00  0.00    -0.040 C 
ATOM     14  C   UNL     1      29.694 -22.876 -15.227  0.00  0.00    +0.034 C 
ATOM     15  C   UNL     1      29.903 -25.301 -15.334  0.00  0.00    -0.003 C 
ATOM     16  C   UNL     1      28.668 -22.977 -16.146  0.00  0.00    +0.176 C 
ATOM     17  C   UNL     1      28.265 -24.192 -16.650  0.00  0.00    +0.176 C 
ATOM     18  C   UNL     1      28.862 -25.374 -16.263  0.00  0.00    +0.040 C 
ATOM     19  C   UNL     1      27.047 -22.638 -17.538  0.00  0.00    +0.429 C 
ENDBRANCH  10  13
ENDBRANCH   2  10
BRANCH   8  20
ATOM     20  C   UNL     1      36.739 -22.144 -16.771  0.00  0.00    +0.290 C 
BRANCH  20  21
ATOM     21  O   UNL     1      35.918 -22.753 -17.736  0.00  0.00    -0.466 OA
BRANCH  21  23
ATOM     22 CL   UNL     1      34.193 -19.452 -22.276  0.00  0.00    -0.082 Cl
ATOM     23  C   UNL     1      35.514 -21.980 -18.802  0.00  0.00    +0.139 C 
ATOM     24  C   UNL     1      36.456 -21.248 -19.508  0.00  0.00    +0.038 C 
ATOM     25  C   UNL     1      34.171 -21.947 -19.149  0.00  0.00    +0.038 C 
ATOM     26  C   UNL     1      36.047 -20.463 -20.586  0.00  0.00    +0.015 C 
ATOM     27  C   UNL     1      33.762 -21.162 -20.228  0.00  0.00    +0.015 C 
ATOM     28  C   UNL     1      34.699 -20.420 -20.946  0.00  0.00    +0.058 C 
ENDBRANCH  21  23
ENDBRANCH  20  21
ENDBRANCH   8  20
TORSDOF 5
ENDMDL
MODEL 8
REMARK VINA RESULT:     -10.2      4.163      6.353
REMARK  Name = 3351
REMARK  5 active torsions:
REMARK  status: ('A' for Active; 'I' for Inactive)
REMARK    1  A    between atoms: N_2  and  C_10
REMARK    2  A    between atoms: C_8  and  C_20
REMARK    3  A    between atoms: C_10  and  C_13
REMARK    4  A    between atoms: C_20  and  O_21
REMARK    5  A    between atoms: O_21  and  C_23
REMARK                            x       y       z     vdW  Elec       q    Type
REMARK                         _______ _______ _______ _____ _____    ______ ____
ROOT
ATOM      1  O   UNL     1      36.194 -22.227 -18.999  0.00  0.00    -0.271 OA
ATOM      2  N   UNL     1      34.900 -18.778 -22.367  0.00  0.00    +0.392 N 
ATOM      3  N   UNL     1      34.969 -20.682 -20.228  0.00  0.00    -0.281 N 
ATOM      4  C   UNL     1      36.164 -19.419 -21.980  0.00  0.00    -0.055 C 
ATOM      5  C   UNL     1      33.771 -19.694 -22.150  0.00  0.00    -0.055 C 
ATOM      6  C   UNL     1      36.131 -19.841 -20.512  0.00  0.00    +0.071 C 
ATOM      7  C   UNL     1      33.691 -20.129 -20.685  0.00  0.00    +0.071 C 
ATOM      8  C   UNL     1      35.120 -21.842 -19.469  0.00  0.00    +0.270 C 
ATOM      9  H   UNL     1      34.763 -17.954 -21.781  0.00  0.00    -0.079 HD
ENDROOT
BRANCH   2  10
ATOM     10  C   UNL     1      34.948 -18.345 -23.763  0.00  0.00    -0.050 C 
BRANCH  10  13
ATOM     11  O   UNL     1      33.482 -14.403 -26.349  0.00  0.00    -0.435 OA
ATOM     12  O   UNL     1      33.673 -12.938 -24.445  0.00  0.00    -0.435 OA
ATOM     13  C   UNL     1      34.613 -16.885 -23.909  0.00  0.00    -0.040 C 
ATOM     14  C   UNL     1      34.197 -16.404 -25.147  0.00  0.00    +0.034 C 
ATOM     15  C   UNL     1      34.727 -16.043 -22.797  0.00  0.00    -0.003 C 
ATOM     16  C   UNL     1      33.901 -15.058 -25.233  0.00  0.00    +0.176 C 
ATOM     17  C   UNL     1      34.010 -14.222 -24.145  0.00  0.00    +0.176 C 
ATOM     18  C   UNL     1      34.421 -14.684 -22.912  0.00  0.00    +0.040 C 
ATOM     19  C   UNL     1      33.339 -13.060 -25.843  0.00  0.00    +0.429 C 
ENDBRANCH  10  13
ENDBRANCH   2  10
BRANCH   8  20
ATOM     20  C   UNL     1      33.874 -22.656 -19.226  0.00  0.00    +0.290 C 
BRANCH  20  21
ATOM     21  O   UNL     1      34.169 -23.539 -18.171  0.00  0.00    -0.466 OA
BRANCH  21  23
ATOM     22 CL   UNL     1      30.544 -23.534 -13.552  0.00  0.00    -0.082 Cl
ATOM     23  C   UNL     1      33.320 -23.536 -17.088  0.00  0.00    +0.139 C 
ATOM     24  C   UNL     1      33.798 -23.926 -15.846  0.00  0.00    +0.038 C 
ATOM     25  C   UNL     1      32.000 -23.144 -17.257  0.00  0.00    +0.038 C 
ATOM     26  C   UNL     1      32.937 -23.925 -14.749  0.00  0.00    +0.015 C 
ATOM     27  C   UNL     1      31.139 -23.144 -16.160  0.00  0.00    +0.015 C 
ATOM     28  C   UNL     1      31.606 -23.534 -14.906  0.00  0.00    +0.058 C 
ENDBRANCH  21  23
ENDBRANCH  20  21
ENDBRANCH   8  20
TORSDOF 5
ENDMDL
MODEL 9
REMARK VINA RESULT:     -10.0      6.294     12.223
REMARK  Name = 3351
REMARK  5 active torsions:
REMARK  status: ('A' for Active; 'I' for Inactive)
REMARK    1  A    between atoms: N_2  and  C_10
REMARK    2  A    between atoms: C_8  and  C_20
REMARK    3  A    between atoms: C_10  and  C_13
REMARK    4  A    between atoms: C_20  and  O_21
REMARK    5  A    between atoms: O_21  and  C_23
REMARK                            x       y       z     vdW  Elec       q    Type
REMARK                         _______ _______ _______ _____ _____    ______ ____
ROOT
ATOM      1  O   UNL     1      36.604 -19.655 -20.572  0.00  0.00    -0.271 OA
ATOM      2  N   UNL     1      34.678 -23.103 -17.520  0.00  0.00    +0.392 N 
ATOM      3  N   UNL     1      35.340 -21.418 -19.740  0.00  0.00    -0.281 N 
ATOM      4  C   UNL     1      35.774 -22.129 -17.416  0.00  0.00    -0.055 C 
ATOM      5  C   UNL     1      33.624 -22.598 -18.411  0.00  0.00    -0.055 C 
ATOM      6  C   UNL     1      36.372 -21.838 -18.792  0.00  0.00    +0.071 C 
ATOM      7  C   UNL     1      34.178 -22.308 -19.807  0.00  0.00    +0.071 C 
ATOM      8  C   UNL     1      35.566 -20.322 -20.572  0.00  0.00    +0.270 C 
ATOM      9  H   UNL     1      35.050 -23.966 -17.918  0.00  0.00    -0.079 HD
ENDROOT
BRANCH   2  10
ATOM     10  C   UNL     1      34.132 -23.406 -16.198  0.00  0.00    -0.050 C 
BRANCH  10  13
ATOM     11  O   UNL     1      37.467 -23.073 -12.572  0.00  0.00    -0.435 OA
ATOM     12  O   UNL     1      38.030 -25.412 -12.719  0.00  0.00    -0.435 OA
ATOM     13  C   UNL     1      35.175 -23.980 -15.277  0.00  0.00    -0.040 C 
ATOM     14  C   UNL     1      35.800 -23.147 -14.354  0.00  0.00    +0.034 C 
ATOM     15  C   UNL     1      35.495 -25.339 -15.371  0.00  0.00    -0.003 C 
ATOM     16  C   UNL     1      36.750 -23.718 -13.532  0.00  0.00    +0.176 C 
ATOM     17  C   UNL     1      37.071 -25.054 -13.616  0.00  0.00    +0.176 C 
ATOM     18  C   UNL     1      36.461 -25.892 -14.526  0.00  0.00    +0.040 C 
ATOM     19  C   UNL     1      38.275 -24.151 -12.061  0.00  0.00    +0.429 C 
ENDBRANCH  10  13
ENDBRANCH   2  10
BRANCH   8  20
ATOM     20  C   UNL     1      34.452 -19.952 -21.517  0.00  0.00    +0.290 C 
BRANCH  20  21
ATOM     21  O   UNL     1      35.047 -19.714 -22.768  0.00  0.00    -0.466 OA
BRANCH  21  23
ATOM     22 CL   UNL     1      33.632 -14.730 -25.533  0.00  0.00    -0.082 Cl
ATOM     23  C   UNL     1      34.713 -18.545 -23.416  0.00  0.00    +0.139 C 
ATOM     24  C   UNL     1      33.940 -18.600 -24.565  0.00  0.00    +0.038 C 
ATOM     25  C   UNL     1      35.158 -17.334 -22.907  0.00  0.00    +0.038 C 
ATOM     26  C   UNL     1      33.604 -17.416 -25.222  0.00  0.00    +0.015 C 
ATOM     27  C   UNL     1      34.823 -16.150 -23.565  0.00  0.00    +0.015 C 
ATOM     28  C   UNL     1      34.046 -16.190 -24.721  0.00  0.00    +0.058 C 
ENDBRANCH  21  23
ENDBRANCH  20  21
ENDBRANCH   8  20
TORSDOF 5
ENDMDL
