MODEL 1
REMARK VINA RESULT:     -12.4      0.000      0.000
REMARK  Name = 5287728
REMARK  9 active torsions:
REMARK  status: ('A' for Active; 'I' for Inactive)
REMARK    1  A    between atoms: S_1  and  N_4
REMARK    2  A    between atoms: S_1  and  N_22
REMARK    3  A    between atoms: C_5  and  N_10
REMARK    4  A    between atoms: N_10  and  C_13
REMARK    5  A    between atoms: C_13  and  C_14
REMARK    6  A    between atoms: C_15  and  O_20
REMARK    7  A    between atoms: N_22  and  C_24
REMARK    8  A    between atoms: C_27  and  O_30
REMARK    9  A    between atoms: O_30  and  C_32
REMARK                            x       y       z     vdW  Elec       q    Type
REMARK                         _______ _______ _______ _____ _____    ______ ____
ROOT
ATOM      1  S   UNL     1      36.003 -18.820 -21.266  0.00  0.00    +0.113 S 
ATOM      2  O   UNL     1      35.437 -17.548 -20.853  0.00  0.00    -0.138 OA
ATOM      3  O   UNL     1      37.435 -19.042 -21.176  0.00  0.00    -0.138 OA
ENDROOT
BRANCH   1   4
ATOM      4  N   UNL     1      35.203 -20.064 -20.399  0.00  0.00    -0.143 NA
ATOM      5  C   UNL     1      33.938 -22.526 -19.507  0.00  0.00    -0.059 C 
ATOM      6  C   UNL     1      33.122 -21.287 -19.888  0.00  0.00    -0.002 C 
ATOM      7  C   UNL     1      35.337 -22.115 -19.034  0.00  0.00    -0.002 C 
ATOM      8  C   UNL     1      33.859 -20.443 -20.926  0.00  0.00    +0.095 C 
ATOM      9  C   UNL     1      36.040 -21.259 -20.083  0.00  0.00    +0.095 C 
BRANCH   5  10
ATOM     10  N   UNL     1      33.253 -23.274 -18.456  0.00  0.00    +0.388 N 
ATOM     11  H   UNL     1      33.894 -23.420 -17.676  0.00  0.00    -0.084 HD
ATOM     12  H   UNL     1      32.946 -24.169 -18.836  0.00  0.00    -0.084 HD
BRANCH  10  13
ATOM     13  C   UNL     1      32.086 -22.544 -17.982  0.00  0.00    -0.051 C 
BRANCH  13  14
ATOM     14  C   UNL     1      31.595 -23.069 -16.659  0.00  0.00    -0.010 C 
ATOM     15  C   UNL     1      30.237 -23.086 -16.371  0.00  0.00    +0.128 C 
ATOM     16  C   UNL     1      32.525 -23.534 -15.737  0.00  0.00    -0.003 C 
ATOM     17  C   UNL     1      29.800 -23.576 -15.141  0.00  0.00    +0.036 C 
ATOM     18  C   UNL     1      32.088 -24.024 -14.506  0.00  0.00    -0.000 C 
ATOM     19  C   UNL     1      30.726 -24.045 -14.208  0.00  0.00    +0.003 C 
BRANCH  15  20
ATOM     20  O   UNL     1      29.319 -22.632 -17.271  0.00  0.00    -0.506 OA
ATOM     21  H   UNL     1      29.043 -23.183 -17.976  0.00  0.00    +0.292 HD
ENDBRANCH  15  20
ENDBRANCH  13  14
ENDBRANCH  10  13
ENDBRANCH   5  10
ENDBRANCH   1   4
BRANCH   1  22
ATOM     22  N   UNL     1      35.453 -19.140 -22.870  0.00  0.00    -0.205 N 
ATOM     23  H   UNL     1      35.531 -20.035 -23.273  0.00  0.00    +0.175 HD
BRANCH  22  24
ATOM     24  C   UNL     1      34.874 -18.037 -23.591  0.00  0.00    +0.069 C 
ATOM     25  C   UNL     1      35.120 -16.736 -23.167  0.00  0.00    +0.053 C 
ATOM     26  C   UNL     1      34.078 -18.285 -24.701  0.00  0.00    +0.016 C 
ATOM     27  C   UNL     1      34.558 -15.668 -23.866  0.00  0.00    +0.147 C 
ATOM     28  C   UNL     1      33.517 -17.216 -25.399  0.00  0.00    +0.004 C 
ATOM     29  C   UNL     1      33.757 -15.908 -24.982  0.00  0.00    +0.038 C 
BRANCH  27  30
ATOM     30  O   UNL     1      34.791 -14.390 -23.457  0.00  0.00    -0.453 OA
BRANCH  30  32
ATOM     31  F   UNL     1      30.726 -11.752 -20.877  0.00  0.00    -0.204 F 
ATOM     32  C   UNL     1      33.766 -13.725 -22.806  0.00  0.00    +0.145 C 
ATOM     33  C   UNL     1      33.195 -12.616 -23.405  0.00  0.00    +0.040 C 
ATOM     34  C   UNL     1      33.339 -14.186 -21.575  0.00  0.00    +0.040 C 
ATOM     35  C   UNL     1      32.163 -11.946 -22.750  0.00  0.00    +0.033 C 
ATOM     36  C   UNL     1      32.307 -13.515 -20.918  0.00  0.00    +0.033 C 
ATOM     37  C   UNL     1      31.719 -12.396 -21.506  0.00  0.00    +0.140 C 
ENDBRANCH  30  32
ENDBRANCH  27  30
ENDBRANCH  22  24
ENDBRANCH   1  22
TORSDOF 9
ENDMDL
MODEL 2
REMARK VINA RESULT:     -12.4      3.360      6.034
REMARK  Name = 5287728
REMARK  9 active torsions:
REMARK  status: ('A' for Active; 'I' for Inactive)
REMARK    1  A    between atoms: S_1  and  N_4
REMARK    2  A    between atoms: S_1  and  N_22
REMARK    3  A    between atoms: C_5  and  N_10
REMARK    4  A    between atoms: N_10  and  C_13
REMARK    5  A    between atoms: C_13  and  C_14
REMARK    6  A    between atoms: C_15  and  O_20
REMARK    7  A    between atoms: N_22  and  C_24
REMARK    8  A    between atoms: C_27  and  O_30
REMARK    9  A    between atoms: O_30  and  C_32
REMARK                            x       y       z     vdW  Elec       q    Type
REMARK                         _______ _______ _______ _____ _____    ______ ____
ROOT
ATOM      1  S   UNL     1      33.088 -13.867 -24.355  0.00  0.00    +0.113 S 
ATOM      2  O   UNL     1      32.720 -14.120 -25.736  0.00  0.00    -0.138 OA
ATOM      3  O   UNL     1      32.093 -13.392 -23.411  0.00  0.00    -0.138 OA
ENDROOT
BRANCH   1   4
ATOM      4  N   UNL     1      33.799 -15.295 -23.724  0.00  0.00    -0.143 NA
ATOM      5  C   UNL     1      35.588 -17.390 -22.794  0.00  0.00    -0.059 C 
ATOM      6  C   UNL     1      34.834 -17.499 -24.123  0.00  0.00    -0.002 C 
ATOM      7  C   UNL     1      34.821 -16.487 -21.821  0.00  0.00    -0.002 C 
ATOM      8  C   UNL     1      34.559 -16.117 -24.711  0.00  0.00    +0.095 C 
ATOM      9  C   UNL     1      34.546 -15.121 -22.443  0.00  0.00    +0.095 C 
BRANCH   5  10
ATOM     10  N   UNL     1      35.767 -18.717 -22.210  0.00  0.00    +0.388 N 
ATOM     11  H   UNL     1      36.219 -18.625 -21.300  0.00  0.00    -0.084 HD
ATOM     12  H   UNL     1      36.345 -19.276 -22.838  0.00  0.00    -0.084 HD
BRANCH  10  13
ATOM     13  C   UNL     1      34.484 -19.383 -22.040  0.00  0.00    -0.051 C 
BRANCH  13  14
ATOM     14  C   UNL     1      34.522 -20.395 -20.926  0.00  0.00    -0.010 C 
ATOM     15  C   UNL     1      33.341 -20.901 -20.398  0.00  0.00    +0.128 C 
ATOM     16  C   UNL     1      35.755 -20.810 -20.439  0.00  0.00    -0.003 C 
ATOM     17  C   UNL     1      33.393 -21.837 -19.366  0.00  0.00    +0.036 C 
ATOM     18  C   UNL     1      35.807 -21.746 -19.406  0.00  0.00    -0.000 C 
ATOM     19  C   UNL     1      34.627 -22.260 -18.870  0.00  0.00    +0.003 C 
BRANCH  15  20
ATOM     20  O   UNL     1      32.128 -20.498 -20.870  0.00  0.00    -0.506 OA
ATOM     21  H   UNL     1      31.473 -21.134 -21.082  0.00  0.00    +0.292 HD
ENDBRANCH  15  20
ENDBRANCH  13  14
ENDBRANCH  10  13
ENDBRANCH   5  10
ENDBRANCH   1   4
BRANCH   1  22
ATOM     22  N   UNL     1      34.450 -12.808 -24.363  0.00  0.00    -0.205 N 
ATOM     23  H   UNL     1      35.359 -13.133 -24.170  0.00  0.00    +0.175 HD
BRANCH  22  24
ATOM     24  C   UNL     1      34.194 -11.423 -24.666  0.00  0.00    +0.069 C 
ATOM     25  C   UNL     1      33.229 -10.730 -23.945  0.00  0.00    +0.053 C 
ATOM     26  C   UNL     1      34.915 -10.797 -25.675  0.00  0.00    +0.016 C 
ATOM     27  C   UNL     1      32.981  -9.390 -24.240  0.00  0.00    +0.147 C 
ATOM     28  C   UNL     1      34.666  -9.457 -25.969  0.00  0.00    +0.004 C 
ATOM     29  C   UNL     1      33.700  -8.753 -25.252  0.00  0.00    +0.038 C 
BRANCH  27  30
ATOM     30  O   UNL     1      32.037  -8.703 -23.540  0.00  0.00    -0.453 OA
BRANCH  30  32
ATOM     31  F   UNL     1      30.842 -10.448 -18.473  0.00  0.00    -0.204 F 
ATOM     32  C   UNL     1      31.736  -9.144 -22.262  0.00  0.00    +0.145 C 
ATOM     33  C   UNL     1      30.939 -10.264 -22.105  0.00  0.00    +0.040 C 
ATOM     34  C   UNL     1      32.239  -8.452 -21.175  0.00  0.00    +0.040 C 
ATOM     35  C   UNL     1      30.636 -10.707 -20.818  0.00  0.00    +0.033 C 
ATOM     36  C   UNL     1      31.935  -8.894 -19.888  0.00  0.00    +0.033 C 
ATOM     37  C   UNL     1      31.134 -10.022 -19.710  0.00  0.00    +0.140 C 
ENDBRANCH  30  32
ENDBRANCH  27  30
ENDBRANCH  22  24
ENDBRANCH   1  22
TORSDOF 9
ENDMDL
MODEL 3
REMARK VINA RESULT:     -12.1      3.324     10.530
REMARK  Name = 5287728
REMARK  9 active torsions:
REMARK  status: ('A' for Active; 'I' for Inactive)
REMARK    1  A    between atoms: S_1  and  N_4
REMARK    2  A    between atoms: S_1  and  N_22
REMARK    3  A    between atoms: C_5  and  N_10
REMARK    4  A    between atoms: N_10  and  C_13
REMARK    5  A    between atoms: C_13  and  C_14
REMARK    6  A    between atoms: C_15  and  O_20
REMARK    7  A    between atoms: N_22  and  C_24
REMARK    8  A    between atoms: C_27  and  O_30
REMARK    9  A    between atoms: O_30  and  C_32
REMARK                            x       y       z     vdW  Elec       q    Type
REMARK                         _______ _______ _______ _____ _____    ______ ____
ROOT
ATOM      1  S   UNL     1      33.395 -22.994 -18.520  0.00  0.00    +0.113 S 
ATOM      2  O   UNL     1      32.164 -22.568 -17.879  0.00  0.00    -0.138 OA
ATOM      3  O   UNL     1      33.512 -24.340 -19.050  0.00  0.00    -0.138 OA
ENDROOT
BRANCH   1   4
ATOM      4  N   UNL     1      33.754 -21.881 -19.774  0.00  0.00    -0.143 NA
ATOM      5  C   UNL     1      34.398 -19.549 -21.388  0.00  0.00    -0.059 C 
ATOM      6  C   UNL     1      32.985 -20.139 -21.342  0.00  0.00    -0.002 C 
ATOM      7  C   UNL     1      35.435 -20.635 -21.081  0.00  0.00    -0.002 C 
ATOM      8  C   UNL     1      32.722 -20.828 -20.005  0.00  0.00    +0.095 C 
ATOM      9  C   UNL     1      35.136 -21.318 -19.749  0.00  0.00    +0.095 C 
BRANCH   5  10
ATOM     10  N   UNL     1      34.656 -18.967 -22.703  0.00  0.00    +0.388 N 
ATOM     11  H   UNL     1      33.767 -18.732 -23.145  0.00  0.00    -0.084 HD
ATOM     12  H   UNL     1      35.165 -19.647 -23.268  0.00  0.00    -0.084 HD
BRANCH  10  13
ATOM     13  C   UNL     1      35.462 -17.761 -22.583  0.00  0.00    -0.051 C 
BRANCH  13  14
ATOM     14  C   UNL     1      34.798 -16.577 -23.232  0.00  0.00    -0.010 C 
ATOM     15  C   UNL     1      34.353 -16.653 -24.545  0.00  0.00    +0.128 C 
ATOM     16  C   UNL     1      34.639 -15.411 -22.493  0.00  0.00    -0.003 C 
ATOM     17  C   UNL     1      33.740 -15.547 -25.131  0.00  0.00    +0.036 C 
ATOM     18  C   UNL     1      34.026 -14.303 -23.079  0.00  0.00    -0.000 C 
ATOM     19  C   UNL     1      33.576 -14.371 -24.397  0.00  0.00    +0.003 C 
BRANCH  15  20
ATOM     20  O   UNL     1      34.505 -17.794 -25.276  0.00  0.00    -0.506 OA
ATOM     21  H   UNL     1      35.341 -18.217 -25.316  0.00  0.00    +0.292 HD
ENDBRANCH  15  20
ENDBRANCH  13  14
ENDBRANCH  10  13
ENDBRANCH   5  10
ENDBRANCH   1   4
BRANCH   1  22
ATOM     22  N   UNL     1      34.692 -22.673 -17.427  0.00  0.00    -0.205 N 
ATOM     23  H   UNL     1      35.439 -22.080 -17.672  0.00  0.00    +0.175 HD
BRANCH  22  24
ATOM     24  C   UNL     1      34.629 -23.313 -16.138  0.00  0.00    +0.069 C 
ATOM     25  C   UNL     1      33.417 -23.373 -15.461  0.00  0.00    +0.053 C 
ATOM     26  C   UNL     1      35.780 -23.862 -15.588  0.00  0.00    +0.016 C 
ATOM     27  C   UNL     1      33.358 -23.993 -14.212  0.00  0.00    +0.147 C 
ATOM     28  C   UNL     1      35.719 -24.481 -14.340  0.00  0.00    +0.004 C 
ATOM     29  C   UNL     1      34.509 -24.547 -13.653  0.00  0.00    +0.038 C 
BRANCH  27  30
ATOM     30  O   UNL     1      32.175 -24.056 -13.541  0.00  0.00    -0.453 OA
BRANCH  30  32
ATOM     31  F   UNL     1      27.560 -24.249 -16.509  0.00  0.00    -0.204 F 
ATOM     32  C   UNL     1      31.011 -24.104 -14.289  0.00  0.00    +0.145 C 
ATOM     33  C   UNL     1      30.445 -25.334 -14.576  0.00  0.00    +0.040 C 
ATOM     34  C   UNL     1      30.444 -22.923 -14.731  0.00  0.00    +0.040 C 
ATOM     35  C   UNL     1      29.273 -25.382 -15.329  0.00  0.00    +0.033 C 
ATOM     36  C   UNL     1      29.273 -22.971 -15.485  0.00  0.00    +0.033 C 
ATOM     37  C   UNL     1      28.687 -24.202 -15.784  0.00  0.00    +0.140 C 
ENDBRANCH  30  32
ENDBRANCH  27  30
ENDBRANCH  22  24
ENDBRANCH   1  22
TORSDOF 9
ENDMDL
MODEL 4
REMARK VINA RESULT:     -12.1      3.874     10.686
REMARK  Name = 5287728
REMARK  9 active torsions:
REMARK  status: ('A' for Active; 'I' for Inactive)
REMARK    1  A    between atoms: S_1  and  N_4
REMARK    2  A    between atoms: S_1  and  N_22
REMARK    3  A    between atoms: C_5  and  N_10
REMARK    4  A    between atoms: N_10  and  C_13
REMARK    5  A    between atoms: C_13  and  C_14
REMARK    6  A    between atoms: C_15  and  O_20
REMARK    7  A    between atoms: N_22  and  C_24
REMARK    8  A    between atoms: C_27  and  O_30
REMARK    9  A    between atoms: O_30  and  C_32
REMARK                            x       y       z     vdW  Elec       q    Type
REMARK                         _______ _______ _______ _____ _____    ______ ____
ROOT
ATOM      1  S   UNL     1      33.696 -23.074 -18.629  0.00  0.00    +0.113 S 
ATOM      2  O   UNL     1      33.530 -24.362 -19.277  0.00  0.00    -0.138 OA
ATOM      3  O   UNL     1      34.711 -22.900 -17.605  0.00  0.00    -0.138 OA
ENDROOT
BRANCH   1   4
ATOM      4  N   UNL     1      33.943 -21.893 -19.847  0.00  0.00    -0.143 NA
ATOM      5  C   UNL     1      34.388 -19.464 -21.383  0.00  0.00    -0.059 C 
ATOM      6  C   UNL     1      33.016 -20.142 -21.317  0.00  0.00    -0.002 C 
ATOM      7  C   UNL     1      35.500 -20.494 -21.154  0.00  0.00    -0.002 C 
ATOM      8  C   UNL     1      32.841 -20.899 -20.002  0.00  0.00    +0.095 C 
ATOM      9  C   UNL     1      35.288 -21.246 -19.843  0.00  0.00    +0.095 C 
BRANCH   5  10
ATOM     10  N   UNL     1      34.565 -18.816 -22.680  0.00  0.00    +0.388 N 
ATOM     11  H   UNL     1      33.651 -18.552 -23.050  0.00  0.00    -0.084 HD
ATOM     12  H   UNL     1      35.028 -19.469 -23.313  0.00  0.00    -0.084 HD
BRANCH  10  13
ATOM     13  C   UNL     1      35.390 -17.624 -22.553  0.00  0.00    -0.051 C 
BRANCH  13  14
ATOM     14  C   UNL     1      34.745 -16.425 -23.194  0.00  0.00    -0.010 C 
ATOM     15  C   UNL     1      34.338 -16.472 -24.521  0.00  0.00    +0.128 C 
ATOM     16  C   UNL     1      34.566 -15.275 -22.435  0.00  0.00    -0.003 C 
ATOM     17  C   UNL     1      33.742 -15.352 -25.099  0.00  0.00    +0.036 C 
ATOM     18  C   UNL     1      33.971 -14.154 -23.014  0.00  0.00    -0.000 C 
ATOM     19  C   UNL     1      33.558 -14.193 -24.345  0.00  0.00    +0.003 C 
BRANCH  15  20
ATOM     20  O   UNL     1      34.509 -17.597 -25.271  0.00  0.00    -0.506 OA
ATOM     21  H   UNL     1      34.765 -17.526 -26.170  0.00  0.00    +0.292 HD
ENDBRANCH  15  20
ENDBRANCH  13  14
ENDBRANCH  10  13
ENDBRANCH   5  10
ENDBRANCH   1   4
BRANCH   1  22
ATOM     22  N   UNL     1      32.154 -22.592 -18.022  0.00  0.00    -0.205 N 
ATOM     23  H   UNL     1      31.560 -21.998 -18.536  0.00  0.00    +0.175 HD
BRANCH  22  24
ATOM     24  C   UNL     1      31.778 -23.098 -16.728  0.00  0.00    +0.069 C 
ATOM     25  C   UNL     1      32.764 -23.510 -15.839  0.00  0.00    +0.053 C 
ATOM     26  C   UNL     1      30.434 -23.169 -16.383  0.00  0.00    +0.016 C 
ATOM     27  C   UNL     1      32.398 -24.002 -14.586  0.00  0.00    +0.147 C 
ATOM     28  C   UNL     1      30.070 -23.660 -15.130  0.00  0.00    +0.004 C 
ATOM     29  C   UNL     1      31.051 -24.076 -14.232  0.00  0.00    +0.038 C 
BRANCH  27  30
ATOM     30  O   UNL     1      33.356 -24.410 -13.710  0.00  0.00    -0.453 OA
BRANCH  30  32
ATOM     31  F   UNL     1      38.574 -24.338 -15.419  0.00  0.00    -0.204 F 
ATOM     32  C   UNL     1      34.673 -24.392 -14.141  0.00  0.00    +0.145 C 
ATOM     33  C   UNL     1      35.479 -23.321 -13.798  0.00  0.00    +0.040 C 
ATOM     34  C   UNL     1      35.146 -25.444 -14.902  0.00  0.00    +0.040 C 
ATOM     35  C   UNL     1      36.804 -23.303 -14.232  0.00  0.00    +0.033 C 
ATOM     36  C   UNL     1      36.471 -25.426 -15.338  0.00  0.00    +0.033 C 
ATOM     37  C   UNL     1      37.300 -24.355 -15.002  0.00  0.00    +0.140 C 
ENDBRANCH  30  32
ENDBRANCH  27  30
ENDBRANCH  22  24
ENDBRANCH   1  22
TORSDOF 9
ENDMDL
MODEL 5
REMARK VINA RESULT:     -12.1      4.853     12.095
REMARK  Name = 5287728
REMARK  9 active torsions:
REMARK  status: ('A' for Active; 'I' for Inactive)
REMARK    1  A    between atoms: S_1  and  N_4
REMARK    2  A    between atoms: S_1  and  N_22
REMARK    3  A    between atoms: C_5  and  N_10
REMARK    4  A    between atoms: N_10  and  C_13
REMARK    5  A    between atoms: C_13  and  C_14
REMARK    6  A    between atoms: C_15  and  O_20
REMARK    7  A    between atoms: N_22  and  C_24
REMARK    8  A    between atoms: C_27  and  O_30
REMARK    9  A    between atoms: O_30  and  C_32
REMARK                            x       y       z     vdW  Elec       q    Type
REMARK                         _______ _______ _______ _____ _____    ______ ____
ROOT
ATOM      1  S   UNL     1      33.348 -14.246 -24.352  0.00  0.00    +0.113 S 
ATOM      2  O   UNL     1      32.668 -14.170 -23.072  0.00  0.00    -0.138 OA
ATOM      3  O   UNL     1      32.664 -14.797 -25.508  0.00  0.00    -0.138 OA
ENDROOT
BRANCH   1   4
ATOM      4  N   UNL     1      33.910 -12.675 -24.749  0.00  0.00    -0.143 NA
ATOM      5  C   UNL     1      34.204  -9.896 -25.552  0.00  0.00    -0.059 C 
ATOM      6  C   UNL     1      34.620 -11.052 -26.466  0.00  0.00    -0.002 C 
ATOM      7  C   UNL     1      34.277 -10.328 -24.083  0.00  0.00    -0.002 C 
ATOM      8  C   UNL     1      33.784 -12.299 -26.188  0.00  0.00    +0.095 C 
ATOM      9  C   UNL     1      33.447 -11.585 -23.840  0.00  0.00    +0.095 C 
BRANCH   5  10
ATOM     10  N   UNL     1      35.070  -8.741 -25.778  0.00  0.00    +0.388 N 
ATOM     11  H   UNL     1      34.641  -8.132 -26.476  0.00  0.00    -0.084 HD
ATOM     12  H   UNL     1      35.977  -9.072 -26.106  0.00  0.00    -0.084 HD
BRANCH  10  13
ATOM     13  C   UNL     1      35.263  -7.992 -24.546  0.00  0.00    -0.051 C 
BRANCH  13  14
ATOM     14  C   UNL     1      34.402  -6.758 -24.499  0.00  0.00    -0.010 C 
ATOM     15  C   UNL     1      33.505  -6.567 -23.456  0.00  0.00    +0.128 C 
ATOM     16  C   UNL     1      34.521  -5.820 -25.516  0.00  0.00    -0.003 C 
ATOM     17  C   UNL     1      32.715  -5.419 -23.428  0.00  0.00    +0.036 C 
ATOM     18  C   UNL     1      33.730  -4.671 -25.489  0.00  0.00    -0.000 C 
ATOM     19  C   UNL     1      32.828  -4.471 -24.445  0.00  0.00    +0.003 C 
BRANCH  15  20
ATOM     20  O   UNL     1      33.383  -7.484 -22.454  0.00  0.00    -0.506 OA
ATOM     21  H   UNL     1      32.645  -7.453 -21.878  0.00  0.00    +0.292 HD
ENDBRANCH  15  20
ENDBRANCH  13  14
ENDBRANCH  10  13
ENDBRANCH   5  10
ENDBRANCH   1   4
BRANCH   1  22
ATOM     22  N   UNL     1      34.844 -15.068 -24.101  0.00  0.00    -0.205 N 
ATOM     23  H   UNL     1      35.699 -14.581 -24.051  0.00  0.00    +0.175 HD
BRANCH  22  24
ATOM     24  C   UNL     1      34.784 -16.500 -23.968  0.00  0.00    +0.069 C 
ATOM     25  C   UNL     1      35.352 -17.110 -22.856  0.00  0.00    +0.053 C 
ATOM     26  C   UNL     1      34.161 -17.255 -24.954  0.00  0.00    +0.016 C 
ATOM     27  C   UNL     1      35.294 -18.498 -22.729  0.00  0.00    +0.147 C 
ATOM     28  C   UNL     1      34.104 -18.642 -24.825  0.00  0.00    +0.004 C 
ATOM     29  C   UNL     1      34.669 -19.264 -23.713  0.00  0.00    +0.038 C 
BRANCH  27  30
ATOM     30  O   UNL     1      35.848 -19.105 -21.643  0.00  0.00    -0.453 OA
BRANCH  30  32
ATOM     31  F   UNL     1      32.783 -22.751 -18.913  0.00  0.00    -0.204 F 
ATOM     32  C   UNL     1      35.075 -20.025 -20.955  0.00  0.00    +0.145 C 
ATOM     33  C   UNL     1      33.697 -19.912 -20.997  0.00  0.00    +0.040 C 
ATOM     34  C   UNL     1      35.701 -21.032 -20.243  0.00  0.00    +0.040 C 
ATOM     35  C   UNL     1      32.919 -20.839 -20.303  0.00  0.00    +0.033 C 
ATOM     36  C   UNL     1      34.922 -21.958 -19.549  0.00  0.00    +0.033 C 
ATOM     37  C   UNL     1      33.531 -21.861 -19.579  0.00  0.00    +0.140 C 
ENDBRANCH  30  32
ENDBRANCH  27  30
ENDBRANCH  22  24
ENDBRANCH   1  22
TORSDOF 9
ENDMDL
MODEL 6
REMARK VINA RESULT:     -11.9      4.541     11.301
REMARK  Name = 5287728
REMARK  9 active torsions:
REMARK  status: ('A' for Active; 'I' for Inactive)
REMARK    1  A    between atoms: S_1  and  N_4
REMARK    2  A    between atoms: S_1  and  N_22
REMARK    3  A    between atoms: C_5  and  N_10
REMARK    4  A    between atoms: N_10  and  C_13
REMARK    5  A    between atoms: C_13  and  C_14
REMARK    6  A    between atoms: C_15  and  O_20
REMARK    7  A    between atoms: N_22  and  C_24
REMARK    8  A    between atoms: C_27  and  O_30
REMARK    9  A    between atoms: O_30  and  C_32
REMARK                            x       y       z     vdW  Elec       q    Type
REMARK                         _______ _______ _______ _____ _____    ______ ____
ROOT
ATOM      1  S   UNL     1      33.364 -22.823 -18.690  0.00  0.00    +0.113 S 
ATOM      2  O   UNL     1      32.004 -22.416 -18.386  0.00  0.00    -0.138 OA
ATOM      3  O   UNL     1      33.610 -24.063 -19.404  0.00  0.00    -0.138 OA
ENDROOT
BRANCH   1   4
ATOM      4  N   UNL     1      34.124 -21.544 -19.543  0.00  0.00    -0.143 NA
ATOM      5  C   UNL     1      35.394 -19.816 -21.507  0.00  0.00    -0.059 C 
ATOM      6  C   UNL     1      36.192 -20.500 -20.391  0.00  0.00    -0.002 C 
ATOM      7  C   UNL     1      33.938 -19.616 -21.072  0.00  0.00    -0.002 C 
ATOM      8  C   UNL     1      35.530 -21.809 -19.968  0.00  0.00    +0.095 C 
ATOM      9  C   UNL     1      33.310 -20.937 -20.638  0.00  0.00    +0.095 C 
BRANCH   5  10
ATOM     10  N   UNL     1      36.000 -18.529 -21.839  0.00  0.00    +0.388 N 
ATOM     11  H   UNL     1      37.013 -18.638 -21.888  0.00  0.00    -0.084 HD
ATOM     12  H   UNL     1      35.751 -17.853 -21.116  0.00  0.00    -0.084 HD
BRANCH  10  13
ATOM     13  C   UNL     1      35.510 -18.043 -23.121  0.00  0.00    -0.051 C 
BRANCH  13  14
ATOM     14  C   UNL     1      34.968 -16.643 -23.019  0.00  0.00    -0.010 C 
ATOM     15  C   UNL     1      34.642 -15.932 -24.167  0.00  0.00    +0.128 C 
ATOM     16  C   UNL     1      34.801 -16.079 -21.760  0.00  0.00    -0.003 C 
ATOM     17  C   UNL     1      34.141 -14.635 -24.055  0.00  0.00    +0.036 C 
ATOM     18  C   UNL     1      34.301 -14.781 -21.649  0.00  0.00    -0.000 C 
ATOM     19  C   UNL     1      33.971 -14.060 -22.795  0.00  0.00    +0.003 C 
BRANCH  15  20
ATOM     20  O   UNL     1      34.802 -16.479 -25.405  0.00  0.00    -0.506 OA
ATOM     21  H   UNL     1      34.910 -15.924 -26.152  0.00  0.00    +0.292 HD
ENDBRANCH  15  20
ENDBRANCH  13  14
ENDBRANCH  10  13
ENDBRANCH   5  10
ENDBRANCH   1   4
BRANCH   1  22
ATOM     22  N   UNL     1      34.259 -22.801 -17.215  0.00  0.00    -0.205 N 
ATOM     23  H   UNL     1      35.153 -22.393 -17.159  0.00  0.00    +0.175 HD
BRANCH  22  24
ATOM     24  C   UNL     1      33.635 -23.408 -16.068  0.00  0.00    +0.069 C 
ATOM     25  C   UNL     1      34.400 -23.700 -14.946  0.00  0.00    +0.053 C 
ATOM     26  C   UNL     1      32.276 -23.694 -16.097  0.00  0.00    +0.016 C 
ATOM     27  C   UNL     1      33.795 -24.289 -13.835  0.00  0.00    +0.147 C 
ATOM     28  C   UNL     1      31.672 -24.283 -14.987  0.00  0.00    +0.004 C 
ATOM     29  C   UNL     1      32.431 -24.580 -13.856  0.00  0.00    +0.038 C 
BRANCH  27  30
ATOM     30  O   UNL     1      34.537 -24.581 -12.732  0.00  0.00    -0.453 OA
BRANCH  30  32
ATOM     31  F   UNL     1      39.803 -25.942 -13.481  0.00  0.00    -0.204 F 
ATOM     32  C   UNL     1      35.865 -24.924 -12.921  0.00  0.00    +0.145 C 
ATOM     33  C   UNL     1      36.181 -25.923 -13.825  0.00  0.00    +0.040 C 
ATOM     34  C   UNL     1      36.841 -24.259 -12.202  0.00  0.00    +0.040 C 
ATOM     35  C   UNL     1      37.518 -26.268 -14.015  0.00  0.00    +0.033 C 
ATOM     36  C   UNL     1      38.179 -24.606 -12.391  0.00  0.00    +0.033 C 
ATOM     37  C   UNL     1      38.517 -25.610 -13.298  0.00  0.00    +0.140 C 
ENDBRANCH  30  32
ENDBRANCH  27  30
ENDBRANCH  22  24
ENDBRANCH   1  22
TORSDOF 9
ENDMDL
MODEL 7
REMARK VINA RESULT:     -11.8      5.730      9.201
REMARK  Name = 5287728
REMARK  9 active torsions:
REMARK  status: ('A' for Active; 'I' for Inactive)
REMARK    1  A    between atoms: S_1  and  N_4
REMARK    2  A    between atoms: S_1  and  N_22
REMARK    3  A    between atoms: C_5  and  N_10
REMARK    4  A    between atoms: N_10  and  C_13
REMARK    5  A    between atoms: C_13  and  C_14
REMARK    6  A    between atoms: C_15  and  O_20
REMARK    7  A    between atoms: N_22  and  C_24
REMARK    8  A    between atoms: C_27  and  O_30
REMARK    9  A    between atoms: O_30  and  C_32
REMARK                            x       y       z     vdW  Elec       q    Type
REMARK                         _______ _______ _______ _____ _____    ______ ____
ROOT
ATOM      1  S   UNL     1      34.977  -9.688 -25.704  0.00  0.00    +0.113 S 
ATOM      2  O   UNL     1      35.618  -9.216 -24.490  0.00  0.00    -0.138 OA
ATOM      3  O   UNL     1      35.674  -9.607 -26.975  0.00  0.00    -0.138 OA
ENDROOT
BRANCH   1   4
ATOM      4  N   UNL     1      34.491 -11.313 -25.451  0.00  0.00    -0.143 NA
ATOM      5  C   UNL     1      33.043 -13.795 -25.006  0.00  0.00    -0.059 C 
ATOM      6  C   UNL     1      33.841 -13.110 -23.891  0.00  0.00    -0.002 C 
ATOM      7  C   UNL     1      33.626 -13.431 -26.376  0.00  0.00    -0.002 C 
ATOM      8  C   UNL     1      33.902 -11.600 -24.111  0.00  0.00    +0.095 C 
ATOM      9  C   UNL     1      33.692 -11.917 -26.558  0.00  0.00    +0.095 C 
BRANCH   5  10
ATOM     10  N   UNL     1      33.067 -15.244 -24.821  0.00  0.00    +0.388 N 
ATOM     11  H   UNL     1      32.551 -15.687 -25.581  0.00  0.00    -0.084 HD
ATOM     12  H   UNL     1      32.638 -15.467 -23.923  0.00  0.00    -0.084 HD
BRANCH  10  13
ATOM     13  C   UNL     1      34.435 -15.741 -24.820  0.00  0.00    -0.051 C 
BRANCH  13  14
ATOM     14  C   UNL     1      34.605 -16.911 -23.888  0.00  0.00    -0.010 C 
ATOM     15  C   UNL     1      34.087 -18.156 -24.222  0.00  0.00    +0.128 C 
ATOM     16  C   UNL     1      35.287 -16.721 -22.692  0.00  0.00    -0.003 C 
ATOM     17  C   UNL     1      34.254 -19.229 -23.347  0.00  0.00    +0.036 C 
ATOM     18  C   UNL     1      35.453 -17.795 -21.817  0.00  0.00    -0.000 C 
ATOM     19  C   UNL     1      34.937 -19.048 -22.144  0.00  0.00    +0.003 C 
BRANCH  15  20
ATOM     20  O   UNL     1      33.418 -18.349 -25.393  0.00  0.00    -0.506 OA
ATOM     21  H   UNL     1      33.302 -17.636 -25.991  0.00  0.00    +0.292 HD
ENDBRANCH  15  20
ENDBRANCH  13  14
ENDBRANCH  10  13
ENDBRANCH   5  10
ENDBRANCH   1   4
BRANCH   1  22
ATOM     22  N   UNL     1      33.441  -8.909 -25.820  0.00  0.00    -0.205 N 
ATOM     23  H   UNL     1      32.812  -9.114 -26.549  0.00  0.00    +0.175 HD
BRANCH  22  24
ATOM     24  C   UNL     1      33.124  -7.944 -24.800  0.00  0.00    +0.069 C 
ATOM     25  C   UNL     1      32.377  -8.335 -23.695  0.00  0.00    +0.053 C 
ATOM     26  C   UNL     1      33.567  -6.634 -24.932  0.00  0.00    +0.016 C 
ATOM     27  C   UNL     1      32.069  -7.399 -22.707  0.00  0.00    +0.147 C 
ATOM     28  C   UNL     1      33.259  -5.699 -23.944  0.00  0.00    +0.004 C 
ATOM     29  C   UNL     1      32.510  -6.082 -22.832  0.00  0.00    +0.038 C 
BRANCH  27  30
ATOM     30  O   UNL     1      31.337  -7.772 -21.622  0.00  0.00    -0.453 OA
BRANCH  30  32
ATOM     31  F   UNL     1      31.607 -13.024 -20.044  0.00  0.00    -0.204 F 
ATOM     32  C   UNL     1      31.405  -9.097 -21.224  0.00  0.00    +0.145 C 
ATOM     33  C   UNL     1      31.855  -9.395 -19.950  0.00  0.00    +0.040 C 
ATOM     34  C   UNL     1      31.021 -10.087 -22.110  0.00  0.00    +0.040 C 
ATOM     35  C   UNL     1      31.923 -10.729 -19.550  0.00  0.00    +0.033 C 
ATOM     36  C   UNL     1      31.091 -11.421 -21.710  0.00  0.00    +0.033 C 
ATOM     37  C   UNL     1      31.541 -11.742 -20.429  0.00  0.00    +0.140 C 
ENDBRANCH  30  32
ENDBRANCH  27  30
ENDBRANCH  22  24
ENDBRANCH   1  22
TORSDOF 9
ENDMDL
MODEL 8
REMARK VINA RESULT:     -11.8      3.524     11.095
REMARK  Name = 5287728
REMARK  9 active torsions:
REMARK  status: ('A' for Active; 'I' for Inactive)
REMARK    1  A    between atoms: S_1  and  N_4
REMARK    2  A    between atoms: S_1  and  N_22
REMARK    3  A    between atoms: C_5  and  N_10
REMARK    4  A    between atoms: N_10  and  C_13
REMARK    5  A    between atoms: C_13  and  C_14
REMARK    6  A    between atoms: C_15  and  O_20
REMARK    7  A    between atoms: N_22  and  C_24
REMARK    8  A    between atoms: C_27  and  O_30
REMARK    9  A    between atoms: O_30  and  C_32
REMARK                            x       y       z     vdW  Elec       q    Type
REMARK                         _______ _______ _______ _____ _____    ______ ____
ROOT
ATOM      1  S   UNL     1      35.168 -18.891 -22.864  0.00  0.00    +0.113 S 
ATOM      2  O   UNL     1      34.885 -19.839 -23.926  0.00  0.00    -0.138 OA
ATOM      3  O   UNL     1      36.530 -18.705 -22.397  0.00  0.00    -0.138 OA
ENDROOT
BRANCH   1   4
ATOM      4  N   UNL     1      34.540 -17.365 -23.332  0.00  0.00    -0.143 NA
ATOM      5  C   UNL     1      34.128 -14.642 -24.264  0.00  0.00    -0.059 C 
ATOM      6  C   UNL     1      34.073 -15.007 -22.778  0.00  0.00    -0.002 C 
ATOM      7  C   UNL     1      33.762 -15.857 -25.123  0.00  0.00    -0.002 C 
ATOM      8  C   UNL     1      34.957 -16.216 -22.477  0.00  0.00    +0.095 C 
ATOM      9  C   UNL     1      34.649 -17.052 -24.788  0.00  0.00    +0.095 C 
BRANCH   5  10
ATOM     10  N   UNL     1      33.214 -13.537 -24.543  0.00  0.00    +0.388 N 
ATOM     11  H   UNL     1      33.364 -12.798 -23.856  0.00  0.00    -0.084 HD
ATOM     12  H   UNL     1      32.256 -13.883 -24.490  0.00  0.00    -0.084 HD
BRANCH  10  13
ATOM     13  C   UNL     1      33.444 -13.002 -25.877  0.00  0.00    -0.051 C 
BRANCH  13  14
ATOM     14  C   UNL     1      34.088 -11.642 -25.831  0.00  0.00    -0.010 C 
ATOM     15  C   UNL     1      34.719 -11.126 -26.956  0.00  0.00    +0.128 C 
ATOM     16  C   UNL     1      34.039 -10.917 -24.647  0.00  0.00    -0.003 C 
ATOM     17  C   UNL     1      35.310  -9.865 -26.896  0.00  0.00    +0.036 C 
ATOM     18  C   UNL     1      34.631  -9.655 -24.587  0.00  0.00    -0.000 C 
ATOM     19  C   UNL     1      35.266  -9.130 -25.711  0.00  0.00    +0.003 C 
BRANCH  15  20
ATOM     20  O   UNL     1      34.770 -11.831 -28.121  0.00  0.00    -0.506 OA
ATOM     21  H   UNL     1      34.194 -11.613 -28.827  0.00  0.00    +0.292 HD
ENDBRANCH  15  20
ENDBRANCH  13  14
ENDBRANCH  10  13
ENDBRANCH   5  10
ENDBRANCH   1   4
BRANCH   1  22
ATOM     22  N   UNL     1      34.133 -19.269 -21.536  0.00  0.00    -0.205 N 
ATOM     23  H   UNL     1      33.295 -18.777 -21.378  0.00  0.00    +0.175 HD
BRANCH  22  24
ATOM     24  C   UNL     1      34.554 -20.340 -20.669  0.00  0.00    +0.069 C 
ATOM     25  C   UNL     1      33.618 -21.261 -20.214  0.00  0.00    +0.053 C 
ATOM     26  C   UNL     1      35.889 -20.439 -20.299  0.00  0.00    +0.016 C 
ATOM     27  C   UNL     1      34.027 -22.297 -19.374  0.00  0.00    +0.147 C 
ATOM     28  C   UNL     1      36.296 -21.475 -19.459  0.00  0.00    +0.004 C 
ATOM     29  C   UNL     1      35.365 -22.404 -18.997  0.00  0.00    +0.038 C 
BRANCH  27  30
ATOM     30  O   UNL     1      33.117 -23.203 -18.921  0.00  0.00    -0.453 OA
BRANCH  30  32
ATOM     31  F   UNL     1      32.021 -23.250 -13.541  0.00  0.00    -0.204 F 
ATOM     32  C   UNL     1      32.840 -23.215 -17.564  0.00  0.00    +0.145 C 
ATOM     33  C   UNL     1      31.544 -22.990 -17.139  0.00  0.00    +0.040 C 
ATOM     34  C   UNL     1      33.868 -23.452 -16.669  0.00  0.00    +0.040 C 
ATOM     35  C   UNL     1      31.266 -23.002 -15.772  0.00  0.00    +0.033 C 
ATOM     36  C   UNL     1      33.590 -23.463 -15.303  0.00  0.00    +0.033 C 
ATOM     37  C   UNL     1      32.289 -23.239 -14.854  0.00  0.00    +0.140 C 
ENDBRANCH  30  32
ENDBRANCH  27  30
ENDBRANCH  22  24
ENDBRANCH   1  22
TORSDOF 9
ENDMDL
MODEL 9
REMARK VINA RESULT:     -11.7      3.289      6.067
REMARK  Name = 5287728
REMARK  9 active torsions:
REMARK  status: ('A' for Active; 'I' for Inactive)
REMARK    1  A    between atoms: S_1  and  N_4
REMARK    2  A    between atoms: S_1  and  N_22
REMARK    3  A    between atoms: C_5  and  N_10
REMARK    4  A    between atoms: N_10  and  C_13
REMARK    5  A    between atoms: C_13  and  C_14
REMARK    6  A    between atoms: C_15  and  O_20
REMARK    7  A    between atoms: N_22  and  C_24
REMARK    8  A    between atoms: C_27  and  O_30
REMARK    9  A    between atoms: O_30  and  C_32
REMARK                            x       y       z     vdW  Elec       q    Type
REMARK                         _______ _______ _______ _____ _____    ______ ____
ROOT
ATOM      1  S   UNL     1      33.559 -14.352 -25.085  0.00  0.00    +0.113 S 
ATOM      2  O   UNL     1      34.445 -14.175 -26.221  0.00  0.00    -0.138 OA
ATOM      3  O   UNL     1      32.122 -14.246 -25.258  0.00  0.00    -0.138 OA
ENDROOT
BRANCH   1   4
ATOM      4  N   UNL     1      33.911 -15.870 -24.369  0.00  0.00    -0.143 NA
ATOM      5  C   UNL     1      35.052 -18.421 -23.564  0.00  0.00    -0.059 C 
ATOM      6  C   UNL     1      33.826 -18.333 -24.478  0.00  0.00    -0.002 C 
ATOM      7  C   UNL     1      35.140 -17.176 -22.674  0.00  0.00    -0.002 C 
ATOM      8  C   UNL     1      33.841 -17.041 -25.292  0.00  0.00    +0.095 C 
ATOM      9  C   UNL     1      35.134 -15.901 -23.513  0.00  0.00    +0.095 C 
BRANCH   5  10
ATOM     10  N   UNL     1      34.976 -19.623 -22.738  0.00  0.00    +0.388 N 
ATOM     11  H   UNL     1      35.909 -19.852 -22.393  0.00  0.00    -0.084 HD
ATOM     12  H   UNL     1      34.609 -20.388 -23.304  0.00  0.00    -0.084 HD
BRANCH  10  13
ATOM     13  C   UNL     1      34.087 -19.414 -21.604  0.00  0.00    -0.051 C 
BRANCH  13  14
ATOM     14  C   UNL     1      34.202 -20.521 -20.590  0.00  0.00    -0.010 C 
ATOM     15  C   UNL     1      35.443 -20.872 -20.073  0.00  0.00    +0.128 C 
ATOM     16  C   UNL     1      33.049 -21.181 -20.185  0.00  0.00    -0.003 C 
ATOM     17  C   UNL     1      35.532 -21.900 -19.135  0.00  0.00    +0.036 C 
ATOM     18  C   UNL     1      33.139 -22.210 -19.247  0.00  0.00    -0.000 C 
ATOM     19  C   UNL     1      34.379 -22.568 -18.722  0.00  0.00    +0.003 C 
BRANCH  15  20
ATOM     20  O   UNL     1      36.578 -20.229 -20.466  0.00  0.00    -0.506 OA
ATOM     21  H   UNL     1      36.623 -19.293 -20.432  0.00  0.00    +0.292 HD
ENDBRANCH  15  20
ENDBRANCH  13  14
ENDBRANCH  10  13
ENDBRANCH   5  10
ENDBRANCH   1   4
BRANCH   1  22
ATOM     22  N   UNL     1      34.087 -13.280 -23.839  0.00  0.00    -0.205 N 
ATOM     23  H   UNL     1      35.000 -12.913 -23.827  0.00  0.00    +0.175 HD
BRANCH  22  24
ATOM     24  C   UNL     1      33.127 -12.949 -22.818  0.00  0.00    +0.069 C 
ATOM     25  C   UNL     1      32.344 -11.809 -22.957  0.00  0.00    +0.053 C 
ATOM     26  C   UNL     1      32.995 -13.772 -21.707  0.00  0.00    +0.016 C 
ATOM     27  C   UNL     1      31.415 -11.488 -21.967  0.00  0.00    +0.147 C 
ATOM     28  C   UNL     1      32.066 -13.450 -20.718  0.00  0.00    +0.004 C 
ATOM     29  C   UNL     1      31.276 -12.309 -20.848  0.00  0.00    +0.038 C 
BRANCH  27  30
ATOM     30  O   UNL     1      30.645 -10.372 -22.093  0.00  0.00    -0.453 OA
BRANCH  30  32
ATOM     31  F   UNL     1      33.209  -5.546 -22.624  0.00  0.00    -0.204 F 
ATOM     32  C   UNL     1      31.292  -9.155 -22.227  0.00  0.00    +0.145 C 
ATOM     33  C   UNL     1      32.120  -8.716 -21.210  0.00  0.00    +0.040 C 
ATOM     34  C   UNL     1      31.094  -8.410 -23.375  0.00  0.00    +0.040 C 
ATOM     35  C   UNL     1      32.771  -7.490 -21.345  0.00  0.00    +0.033 C 
ATOM     36  C   UNL     1      31.744  -7.183 -23.510  0.00  0.00    +0.033 C 
ATOM     37  C   UNL     1      32.583  -6.724 -22.495  0.00  0.00    +0.140 C 
ENDBRANCH  30  32
ENDBRANCH  27  30
ENDBRANCH  22  24
ENDBRANCH   1  22
TORSDOF 9
ENDMDL
