MODEL 1
REMARK VINA RESULT:     -11.4      0.000      0.000
REMARK  Name = 657131
REMARK  7 active torsions:
REMARK  status: ('A' for Active; 'I' for Inactive)
REMARK    1  A    between atoms: C_1  and  CA_2
REMARK    2  A    between atoms: C_1  and  C_3
REMARK    3  A    between atoms: CA_2  and  C_28
REMARK    4  A    between atoms: C_4  and  O_9
REMARK    5  A    between atoms: O_9  and  C_11
REMARK    6  A    between atoms: C_19  and  C_21
REMARK    7  A    between atoms: C_28  and  O_29
REMARK                            x       y       z     vdW  Elec       q    Type
REMARK                         _______ _______ _______ _____ _____    ______ ____
ROOT
ATOM      1  C   UNL     1      34.907 -15.138 -23.025  0.00  0.00    +0.074 C 
ENDROOT
BRANCH   1   2
ATOM      2  C   UNL     1      33.953 -14.063 -22.807  0.00  0.00    -0.016 C 
ATOM      3  C   UNL     1      32.125 -11.998 -22.390  0.00  0.00    +0.145 C 
ATOM      4  C   UNL     1      33.158 -14.056 -21.661  0.00  0.00    -0.001 C 
ATOM      5  C   UNL     1      33.835 -13.036 -23.744  0.00  0.00    -0.001 C 
ATOM      6  C   UNL     1      32.243 -13.023 -21.453  0.00  0.00    +0.037 C 
ATOM      7  C   UNL     1      32.920 -12.004 -23.536  0.00  0.00    +0.037 C 
BRANCH   3   8
ATOM      8  O   UNL     1      31.233 -10.990 -22.186  0.00  0.00    -0.453 OA
BRANCH   8  10
ATOM      9 BR   UNL     1      31.291 -10.225 -19.160  0.00  0.00    -0.046 Br
ATOM     10  C   UNL     1      31.737  -9.720 -21.959  0.00  0.00    +0.151 C 
ATOM     11  C   UNL     1      31.834  -9.219 -20.672  0.00  0.00    +0.069 C 
ATOM     12  C   UNL     1      32.135  -8.979 -23.058  0.00  0.00    +0.038 C 
ATOM     13  C   UNL     1      32.346  -7.936 -20.479  0.00  0.00    +0.010 C 
ATOM     14  C   UNL     1      32.648  -7.696 -22.864  0.00  0.00    +0.003 C 
ATOM     15  C   UNL     1      32.752  -7.174 -21.574  0.00  0.00    +0.001 C 
ENDBRANCH   8  10
ENDBRANCH   3   8
ENDBRANCH   1   2
BRANCH   1  16
ATOM     16  CA  UNL     1      34.610 -16.417 -23.354  0.00  0.00    +0.108 C 
ATOM     17  O   UNL     1      34.003 -19.148 -23.919  0.00  0.00    -0.270 OA
ATOM     18  N   UNL     1      34.622 -17.449 -22.458  0.00  0.00    -0.278 N 
ATOM     19  C   UNL     1      34.317 -18.758 -22.797  0.00  0.00    +0.249 C 
ATOM     20  H   UNL     1      34.860 -17.252 -21.523  0.00  0.00    +0.155 HD
BRANCH  19  21
ATOM     21  C   UNL     1      34.408 -19.745 -21.690  0.00  0.00    +0.054 C 
ATOM     22  C   UNL     1      35.655 -20.153 -21.264  0.00  0.00    +0.005 C 
ATOM     23  C   UNL     1      33.244 -20.219 -21.123  0.00  0.00    +0.005 C 
ATOM     24  C   UNL     1      35.740 -21.079 -20.225  0.00  0.00    +0.000 C 
ATOM     25  C   UNL     1      33.330 -21.145 -20.084  0.00  0.00    +0.000 C 
ATOM     26  C   UNL     1      34.579 -21.575 -19.635  0.00  0.00    +0.000 C 
ENDBRANCH  19  21
BRANCH  16  28
ATOM     27  OXT UNL     1      33.144 -16.680 -25.250  0.00  0.00    -0.244 OA
ATOM     28  C   UNL     1      34.267 -16.717 -24.770  0.00  0.00    +0.348 C 
BRANCH  28  29
ATOM     29  O   UNL     1      35.375 -17.045 -25.477  0.00  0.00    -0.476 OA
ATOM     30  H   UNL     1      35.902 -16.372 -25.861  0.00  0.00    +0.295 HD
ENDBRANCH  28  29
ENDBRANCH  16  28
ENDBRANCH   1  16
TORSDOF 7
ENDMDL
MODEL 2
REMARK VINA RESULT:     -10.6      3.237      9.911
REMARK  Name = 657131
REMARK  7 active torsions:
REMARK  status: ('A' for Active; 'I' for Inactive)
REMARK    1  A    between atoms: C_1  and  CA_2
REMARK    2  A    between atoms: C_1  and  C_3
REMARK    3  A    between atoms: CA_2  and  C_28
REMARK    4  A    between atoms: C_4  and  O_9
REMARK    5  A    between atoms: O_9  and  C_11
REMARK    6  A    between atoms: C_19  and  C_21
REMARK    7  A    between atoms: C_28  and  O_29
REMARK                            x       y       z     vdW  Elec       q    Type
REMARK                         _______ _______ _______ _____ _____    ______ ____
ROOT
ATOM      1  C   UNL     1      31.480 -11.684 -21.645  0.00  0.00    +0.074 C 
ENDROOT
BRANCH   1   2
ATOM      2  C   UNL     1      32.448 -12.703 -22.013  0.00  0.00    -0.016 C 
ATOM      3  C   UNL     1      34.307 -14.659 -22.723  0.00  0.00    +0.145 C 
ATOM      4  C   UNL     1      32.820 -13.680 -21.090  0.00  0.00    -0.001 C 
ATOM      5  C   UNL     1      33.006 -12.705 -23.292  0.00  0.00    -0.001 C 
ATOM      6  C   UNL     1      33.749 -14.659 -21.445  0.00  0.00    +0.037 C 
ATOM      7  C   UNL     1      33.935 -13.683 -23.647  0.00  0.00    +0.037 C 
BRANCH   3   8
ATOM      8  O   UNL     1      35.213 -15.614 -23.069  0.00  0.00    -0.453 OA
BRANCH   8  10
ATOM      9 BR   UNL     1      36.097 -18.155 -21.485  0.00  0.00    -0.046 Br
ATOM     10  C   UNL     1      34.731 -16.790 -23.620  0.00  0.00    +0.151 C 
ATOM     11  C   UNL     1      35.027 -18.013 -23.044  0.00  0.00    +0.069 C 
ATOM     12  C   UNL     1      33.949 -16.695 -24.758  0.00  0.00    +0.038 C 
ATOM     13  C   UNL     1      34.526 -19.178 -23.625  0.00  0.00    +0.010 C 
ATOM     14  C   UNL     1      33.448 -17.861 -25.338  0.00  0.00    +0.003 C 
ATOM     15  C   UNL     1      33.736 -19.102 -24.772  0.00  0.00    +0.001 C 
ENDBRANCH   8  10
ENDBRANCH   3   8
ENDBRANCH   1   2
BRANCH   1  16
ATOM     16  CA  UNL     1      31.758 -10.412 -21.274  0.00  0.00    +0.108 C 
ATOM     17  O   UNL     1      32.388  -7.706 -20.619  0.00  0.00    -0.270 OA
ATOM     18  N   UNL     1      32.290  -9.480 -22.120  0.00  0.00    -0.278 N 
ATOM     19  C   UNL     1      32.574  -8.177 -21.739  0.00  0.00    +0.249 C 
ATOM     20  H   UNL     1      32.482  -9.747 -23.048  0.00  0.00    +0.155 HD
BRANCH  19  21
ATOM     21  C   UNL     1      33.171  -7.316 -22.792  0.00  0.00    +0.054 C 
ATOM     22  C   UNL     1      32.539  -6.135 -23.123  0.00  0.00    +0.005 C 
ATOM     23  C   UNL     1      34.338  -7.724 -23.403  0.00  0.00    +0.005 C 
ATOM     24  C   UNL     1      33.100  -5.326 -24.111  0.00  0.00    +0.000 C 
ATOM     25  C   UNL     1      34.898  -6.914 -24.392  0.00  0.00    +0.000 C 
ATOM     26  C   UNL     1      34.279  -5.715 -24.746  0.00  0.00    +0.000 C 
ENDBRANCH  19  21
BRANCH  16  28
ATOM     27  OXT UNL     1      30.382  -9.777 -19.400  0.00  0.00    -0.244 OA
ATOM     28  C   UNL     1      31.485 -10.014 -19.868  0.00  0.00    +0.348 C 
BRANCH  28  29
ATOM     29  O   UNL     1      32.634  -9.943 -19.154  0.00  0.00    -0.476 OA
ATOM     30  H   UNL     1      33.325  -9.375 -19.432  0.00  0.00    +0.295 HD
ENDBRANCH  28  29
ENDBRANCH  16  28
ENDBRANCH   1  16
TORSDOF 7
ENDMDL
MODEL 3
REMARK VINA RESULT:     -10.6      4.050     10.018
REMARK  Name = 657131
REMARK  7 active torsions:
REMARK  status: ('A' for Active; 'I' for Inactive)
REMARK    1  A    between atoms: C_1  and  CA_2
REMARK    2  A    between atoms: C_1  and  C_3
REMARK    3  A    between atoms: CA_2  and  C_28
REMARK    4  A    between atoms: C_4  and  O_9
REMARK    5  A    between atoms: O_9  and  C_11
REMARK    6  A    between atoms: C_19  and  C_21
REMARK    7  A    between atoms: C_28  and  O_29
REMARK                            x       y       z     vdW  Elec       q    Type
REMARK                         _______ _______ _______ _____ _____    ______ ____
ROOT
ATOM      1  C   UNL     1      35.333 -18.594 -21.562  0.00  0.00    +0.074 C 
ENDROOT
BRANCH   1   2
ATOM      2  C   UNL     1      35.045 -19.825 -20.845  0.00  0.00    -0.016 C 
ATOM      3  C   UNL     1      34.495 -22.188 -19.468  0.00  0.00    +0.145 C 
ATOM      4  C   UNL     1      33.723 -20.216 -20.629  0.00  0.00    -0.001 C 
ATOM      5  C   UNL     1      36.092 -20.617 -20.372  0.00  0.00    -0.001 C 
ATOM      6  C   UNL     1      33.448 -21.398 -19.941  0.00  0.00    +0.037 C 
ATOM      7  C   UNL     1      35.816 -21.799 -19.684  0.00  0.00    +0.037 C 
BRANCH   3   8
ATOM      8  O   UNL     1      34.226 -23.342 -18.798  0.00  0.00    -0.453 OA
BRANCH   8  10
ATOM      9 BR   UNL     1      36.112 -23.146 -16.317  0.00  0.00    -0.046 Br
ATOM     10  C   UNL     1      33.537 -23.245 -17.600  0.00  0.00    +0.151 C 
ATOM     11  C   UNL     1      34.218 -23.150 -16.399  0.00  0.00    +0.069 C 
ATOM     12  C   UNL     1      32.154 -23.248 -17.651  0.00  0.00    +0.038 C 
ATOM     13  C   UNL     1      33.493 -23.054 -15.211  0.00  0.00    +0.010 C 
ATOM     14  C   UNL     1      31.429 -23.152 -16.462  0.00  0.00    +0.003 C 
ATOM     15  C   UNL     1      32.099 -23.055 -15.243  0.00  0.00    +0.001 C 
ENDBRANCH   8  10
ENDBRANCH   3   8
ENDBRANCH   1   2
BRANCH   1  16
ATOM     16  CA  UNL     1      34.831 -18.233 -22.766  0.00  0.00    +0.108 C 
ATOM     17  O   UNL     1      33.786 -17.342 -25.268  0.00  0.00    -0.270 OA
ATOM     18  N   UNL     1      34.644 -16.933 -23.146  0.00  0.00    -0.278 N 
ATOM     19  C   UNL     1      34.131 -16.566 -24.380  0.00  0.00    +0.249 C 
ATOM     20  H   UNL     1      34.887 -16.222 -22.510  0.00  0.00    +0.155 HD
BRANCH  19  21
ATOM     21  C   UNL     1      33.979 -15.104 -24.602  0.00  0.00    +0.054 C 
ATOM     22  C   UNL     1      34.236 -14.243 -23.555  0.00  0.00    +0.005 C 
ATOM     23  C   UNL     1      33.589 -14.657 -25.846  0.00  0.00    +0.005 C 
ATOM     24  C   UNL     1      34.094 -12.871 -23.763  0.00  0.00    +0.000 C 
ATOM     25  C   UNL     1      33.448 -13.284 -26.054  0.00  0.00    +0.000 C 
ATOM     26  C   UNL     1      33.700 -12.392 -25.012  0.00  0.00    +0.000 C 
ENDBRANCH  19  21
BRANCH  16  28
ATOM     27  OXT UNL     1      35.225 -19.970 -24.391  0.00  0.00    -0.244 OA
ATOM     28  C   UNL     1      34.448 -19.308 -23.719  0.00  0.00    +0.348 C 
BRANCH  28  29
ATOM     29  O   UNL     1      33.103 -19.468 -23.753  0.00  0.00    -0.476 OA
ATOM     30  H   UNL     1      32.639 -19.363 -24.560  0.00  0.00    +0.295 HD
ENDBRANCH  28  29
ENDBRANCH  16  28
ENDBRANCH   1  16
TORSDOF 7
ENDMDL
MODEL 4
REMARK VINA RESULT:     -10.6      2.987      9.973
REMARK  Name = 657131
REMARK  7 active torsions:
REMARK  status: ('A' for Active; 'I' for Inactive)
REMARK    1  A    between atoms: C_1  and  CA_2
REMARK    2  A    between atoms: C_1  and  C_3
REMARK    3  A    between atoms: CA_2  and  C_28
REMARK    4  A    between atoms: C_4  and  O_9
REMARK    5  A    between atoms: O_9  and  C_11
REMARK    6  A    between atoms: C_19  and  C_21
REMARK    7  A    between atoms: C_28  and  O_29
REMARK                            x       y       z     vdW  Elec       q    Type
REMARK                         _______ _______ _______ _____ _____    ______ ____
ROOT
ATOM      1  C   UNL     1      31.436 -11.864 -21.626  0.00  0.00    +0.074 C 
ENDROOT
BRANCH   1   2
ATOM      2  C   UNL     1      32.447 -12.846 -21.979  0.00  0.00    -0.016 C 
ATOM      3  C   UNL     1      34.390 -14.731 -22.655  0.00  0.00    +0.145 C 
ATOM      4  C   UNL     1      32.939 -12.905 -23.283  0.00  0.00    -0.001 C 
ATOM      5  C   UNL     1      32.929 -13.729 -21.012  0.00  0.00    -0.001 C 
ATOM      6  C   UNL     1      33.910 -13.848 -23.622  0.00  0.00    +0.037 C 
ATOM      7  C   UNL     1      33.900 -14.672 -21.350  0.00  0.00    +0.037 C 
BRANCH   3   8
ATOM      8  O   UNL     1      35.338 -15.649 -22.984  0.00  0.00    -0.453 OA
BRANCH   8  10
ATOM      9 BR   UNL     1      33.870 -16.961 -25.407  0.00  0.00    -0.046 Br
ATOM     10  C   UNL     1      35.040 -16.986 -22.777  0.00  0.00    +0.151 C 
ATOM     11  C   UNL     1      34.389 -17.723 -23.751  0.00  0.00    +0.069 C 
ATOM     12  C   UNL     1      35.416 -17.551 -21.571  0.00  0.00    +0.038 C 
ATOM     13  C   UNL     1      34.104 -19.068 -23.510  0.00  0.00    +0.010 C 
ATOM     14  C   UNL     1      35.131 -18.895 -21.331  0.00  0.00    +0.003 C 
ATOM     15  C   UNL     1      34.475 -19.653 -22.300  0.00  0.00    +0.001 C 
ENDBRANCH   8  10
ENDBRANCH   3   8
ENDBRANCH   1   2
BRANCH   1  16
ATOM     16  CA  UNL     1      31.661 -10.587 -21.237  0.00  0.00    +0.108 C 
ATOM     17  O   UNL     1      32.182  -7.869 -20.539  0.00  0.00    -0.270 OA
ATOM     18  N   UNL     1      32.197  -9.633 -22.055  0.00  0.00    -0.278 N 
ATOM     19  C   UNL     1      32.426  -8.326 -21.654  0.00  0.00    +0.249 C 
ATOM     20  H   UNL     1      32.433  -9.887 -22.976  0.00  0.00    +0.155 HD
BRANCH  19  21
ATOM     21  C   UNL     1      33.038  -7.439 -22.678  0.00  0.00    +0.054 C 
ATOM     22  C   UNL     1      32.393  -6.266 -23.012  0.00  0.00    +0.005 C 
ATOM     23  C   UNL     1      34.231  -7.815 -23.257  0.00  0.00    +0.005 C 
ATOM     24  C   UNL     1      32.967  -5.433 -23.972  0.00  0.00    +0.000 C 
ATOM     25  C   UNL     1      34.805  -6.982 -24.218  0.00  0.00    +0.000 C 
ATOM     26  C   UNL     1      34.173  -5.791 -24.575  0.00  0.00    +0.000 C 
ENDBRANCH  19  21
BRANCH  16  28
ATOM     27  OXT UNL     1      30.192 -10.016 -19.412  0.00  0.00    -0.244 OA
ATOM     28  C   UNL     1      31.321 -10.209 -19.840  0.00  0.00    +0.348 C 
BRANCH  28  29
ATOM     29  O   UNL     1      32.439 -10.099 -19.082  0.00  0.00    -0.476 OA
ATOM     30  H   UNL     1      32.744 -10.834 -18.589  0.00  0.00    +0.295 HD
ENDBRANCH  28  29
ENDBRANCH  16  28
ENDBRANCH   1  16
TORSDOF 7
ENDMDL
MODEL 5
REMARK VINA RESULT:     -10.2      3.229      9.521
REMARK  Name = 657131
REMARK  7 active torsions:
REMARK  status: ('A' for Active; 'I' for Inactive)
REMARK    1  A    between atoms: C_1  and  CA_2
REMARK    2  A    between atoms: C_1  and  C_3
REMARK    3  A    between atoms: CA_2  and  C_28
REMARK    4  A    between atoms: C_4  and  O_9
REMARK    5  A    between atoms: O_9  and  C_11
REMARK    6  A    between atoms: C_19  and  C_21
REMARK    7  A    between atoms: C_28  and  O_29
REMARK                            x       y       z     vdW  Elec       q    Type
REMARK                         _______ _______ _______ _____ _____    ______ ____
ROOT
ATOM      1  C   UNL     1      35.887 -17.414 -22.540  0.00  0.00    +0.074 C 
ENDROOT
BRANCH   1   2
ATOM      2  C   UNL     1      35.577 -18.619 -21.790  0.00  0.00    -0.016 C 
ATOM      3  C   UNL     1      34.984 -20.933 -20.349  0.00  0.00    +0.145 C 
ATOM      4  C   UNL     1      34.256 -19.051 -21.676  0.00  0.00    -0.001 C 
ATOM      5  C   UNL     1      36.602 -19.345 -21.182  0.00  0.00    -0.001 C 
ATOM      6  C   UNL     1      33.959 -20.208 -20.956  0.00  0.00    +0.037 C 
ATOM      7  C   UNL     1      36.305 -20.502 -20.462  0.00  0.00    +0.037 C 
BRANCH   3   8
ATOM      8  O   UNL     1      34.694 -22.063 -19.647  0.00  0.00    -0.453 OA
BRANCH   8  10
ATOM      9 BR   UNL     1      32.776 -23.384 -17.568  0.00  0.00    -0.046 Br
ATOM     10  C   UNL     1      35.270 -22.209 -18.396  0.00  0.00    +0.151 C 
ATOM     11  C   UNL     1      34.559 -22.778 -17.353  0.00  0.00    +0.069 C 
ATOM     12  C   UNL     1      36.572 -21.770 -18.230  0.00  0.00    +0.038 C 
ATOM     13  C   UNL     1      35.169 -22.911 -16.106  0.00  0.00    +0.010 C 
ATOM     14  C   UNL     1      37.182 -21.903 -16.982  0.00  0.00    +0.003 C 
ATOM     15  C   UNL     1      36.480 -22.473 -15.920  0.00  0.00    +0.001 C 
ENDBRANCH   8  10
ENDBRANCH   3   8
ENDBRANCH   1   2
BRANCH   1  16
ATOM     16  CA  UNL     1      35.004 -16.642 -23.215  0.00  0.00    +0.108 C 
ATOM     17  O   UNL     1      33.129 -14.937 -24.528  0.00  0.00    -0.270 OA
ATOM     18  N   UNL     1      34.376 -15.559 -22.667  0.00  0.00    -0.278 N 
ATOM     19  C   UNL     1      33.472 -14.769 -23.360  0.00  0.00    +0.249 C 
ATOM     20  H   UNL     1      34.576 -15.328 -21.731  0.00  0.00    +0.155 HD
BRANCH  19  21
ATOM     21  C   UNL     1      32.875 -13.649 -22.588  0.00  0.00    +0.054 C 
ATOM     22  C   UNL     1      32.715 -12.425 -23.205  0.00  0.00    +0.005 C 
ATOM     23  C   UNL     1      32.497 -13.869 -21.280  0.00  0.00    +0.005 C 
ATOM     24  C   UNL     1      32.154 -11.375 -22.481  0.00  0.00    +0.000 C 
ATOM     25  C   UNL     1      31.935 -12.817 -20.556  0.00  0.00    +0.000 C 
ATOM     26  C   UNL     1      31.764 -11.570 -21.156  0.00  0.00    +0.000 C 
ENDBRANCH  19  21
BRANCH  16  28
ATOM     27  OXT UNL     1      33.906 -17.871 -24.975  0.00  0.00    -0.244 OA
ATOM     28  C   UNL     1      34.689 -17.001 -24.623  0.00  0.00    +0.348 C 
BRANCH  28  29
ATOM     29  O   UNL     1      35.393 -16.231 -25.488  0.00  0.00    -0.476 OA
ATOM     30  H   UNL     1      35.892 -16.631 -26.173  0.00  0.00    +0.295 HD
ENDBRANCH  28  29
ENDBRANCH  16  28
ENDBRANCH   1  16
TORSDOF 7
ENDMDL
MODEL 6
REMARK VINA RESULT:     -10.1      5.319      8.959
REMARK  Name = 657131
REMARK  7 active torsions:
REMARK  status: ('A' for Active; 'I' for Inactive)
REMARK    1  A    between atoms: C_1  and  CA_2
REMARK    2  A    between atoms: C_1  and  C_3
REMARK    3  A    between atoms: CA_2  and  C_28
REMARK    4  A    between atoms: C_4  and  O_9
REMARK    5  A    between atoms: O_9  and  C_11
REMARK    6  A    between atoms: C_19  and  C_21
REMARK    7  A    between atoms: C_28  and  O_29
REMARK                            x       y       z     vdW  Elec       q    Type
REMARK                         _______ _______ _______ _____ _____    ______ ____
ROOT
ATOM      1  C   UNL     1      34.506 -23.010 -19.039  0.00  0.00    +0.074 C 
ENDROOT
BRANCH   1   2
ATOM      2  C   UNL     1      34.785 -21.758 -19.722  0.00  0.00    -0.016 C 
ATOM      3  C   UNL     1      35.321 -19.354 -21.032  0.00  0.00    +0.145 C 
ATOM      4  C   UNL     1      33.739 -21.005 -20.255  0.00  0.00    -0.001 C 
ATOM      5  C   UNL     1      36.100 -21.308 -19.844  0.00  0.00    -0.001 C 
ATOM      6  C   UNL     1      34.007 -19.803 -20.911  0.00  0.00    +0.037 C 
ATOM      7  C   UNL     1      36.368 -20.106 -20.499  0.00  0.00    +0.037 C 
BRANCH   3   8
ATOM      8  O   UNL     1      35.583 -18.181 -21.671  0.00  0.00    -0.453 OA
BRANCH   8  10
ATOM      9 BR   UNL     1      34.699 -15.215 -22.085  0.00  0.00    -0.046 Br
ATOM     10  C   UNL     1      34.973 -17.963 -22.895  0.00  0.00    +0.151 C 
ATOM     11  C   UNL     1      34.519 -16.703 -23.244  0.00  0.00    +0.069 C 
ATOM     12  C   UNL     1      34.837 -19.045 -23.748  0.00  0.00    +0.038 C 
ATOM     13  C   UNL     1      33.909 -16.520 -24.486  0.00  0.00    +0.010 C 
ATOM     14  C   UNL     1      34.228 -18.860 -24.990  0.00  0.00    +0.003 C 
ATOM     15  C   UNL     1      33.764 -17.598 -25.358  0.00  0.00    +0.001 C 
ENDBRANCH   8  10
ENDBRANCH   3   8
ENDBRANCH   1   2
BRANCH   1  16
ATOM     16  CA  UNL     1      34.028 -23.146 -17.781  0.00  0.00    +0.108 C 
ATOM     17  O   UNL     1      32.894 -23.445 -15.178  0.00  0.00    -0.270 OA
ATOM     18  N   UNL     1      32.702 -23.310 -17.492  0.00  0.00    -0.278 N 
ATOM     19  C   UNL     1      32.214 -23.450 -16.202  0.00  0.00    +0.249 C 
ATOM     20  H   UNL     1      32.061 -23.330 -18.239  0.00  0.00    +0.155 HD
BRANCH  19  21
ATOM     21  C   UNL     1      30.740 -23.594 -16.086  0.00  0.00    +0.054 C 
ATOM     22  C   UNL     1      30.230 -24.642 -15.348  0.00  0.00    +0.005 C 
ATOM     23  C   UNL     1      29.929 -22.675 -16.718  0.00  0.00    +0.005 C 
ATOM     24  C   UNL     1      28.846 -24.778 -15.238  0.00  0.00    +0.000 C 
ATOM     25  C   UNL     1      28.545 -22.810 -16.608  0.00  0.00    +0.000 C 
ATOM     26  C   UNL     1      28.004 -23.862 -15.868  0.00  0.00    +0.000 C 
ENDBRANCH  19  21
BRANCH  16  28
ATOM     27  OXT UNL     1      35.498 -22.085 -16.192  0.00  0.00    -0.244 OA
ATOM     28  C   UNL     1      34.995 -23.099 -16.652  0.00  0.00    +0.348 C 
BRANCH  28  29
ATOM     29  O   UNL     1      35.257 -24.344 -16.188  0.00  0.00    -0.476 OA
ATOM     30  H   UNL     1      35.015 -25.094 -16.694  0.00  0.00    +0.295 HD
ENDBRANCH  28  29
ENDBRANCH  16  28
ENDBRANCH   1  16
TORSDOF 7
ENDMDL
MODEL 7
REMARK VINA RESULT:     -10.1      5.566      9.388
REMARK  Name = 657131
REMARK  7 active torsions:
REMARK  status: ('A' for Active; 'I' for Inactive)
REMARK    1  A    between atoms: C_1  and  CA_2
REMARK    2  A    between atoms: C_1  and  C_3
REMARK    3  A    between atoms: CA_2  and  C_28
REMARK    4  A    between atoms: C_4  and  O_9
REMARK    5  A    between atoms: O_9  and  C_11
REMARK    6  A    between atoms: C_19  and  C_21
REMARK    7  A    between atoms: C_28  and  O_29
REMARK                            x       y       z     vdW  Elec       q    Type
REMARK                         _______ _______ _______ _____ _____    ______ ____
ROOT
ATOM      1  C   UNL     1      32.315 -22.634 -18.288  0.00  0.00    +0.074 C 
ENDROOT
BRANCH   1   2
ATOM      2  C   UNL     1      33.215 -21.904 -19.166  0.00  0.00    -0.016 C 
ATOM      3  C   UNL     1      34.938 -20.502 -20.853  0.00  0.00    +0.145 C 
ATOM      4  C   UNL     1      34.587 -22.150 -19.123  0.00  0.00    -0.001 C 
ATOM      5  C   UNL     1      32.704 -20.956 -20.054  0.00  0.00    -0.001 C 
ATOM      6  C   UNL     1      35.449 -21.449 -19.967  0.00  0.00    +0.037 C 
ATOM      7  C   UNL     1      33.567 -20.255 -20.897  0.00  0.00    +0.037 C 
BRANCH   3   8
ATOM      8  O   UNL     1      35.780 -19.819 -21.677  0.00  0.00    -0.453 OA
BRANCH   8  10
ATOM      9 BR   UNL     1      34.901 -20.004 -24.667  0.00  0.00    -0.046 Br
ATOM     10  C   UNL     1      35.340 -18.609 -22.188  0.00  0.00    +0.151 C 
ATOM     11  C   UNL     1      34.912 -18.510 -23.500  0.00  0.00    +0.069 C 
ATOM     12  C   UNL     1      35.345 -17.513 -21.342  0.00  0.00    +0.038 C 
ATOM     13  C   UNL     1      34.476 -17.276 -23.983  0.00  0.00    +0.010 C 
ATOM     14  C   UNL     1      34.907 -16.279 -21.826  0.00  0.00    +0.003 C 
ATOM     15  C   UNL     1      34.473 -16.161 -23.146  0.00  0.00    +0.001 C 
ENDBRANCH   8  10
ENDBRANCH   3   8
ENDBRANCH   1   2
BRANCH   1  16
ATOM     16  CA  UNL     1      32.642 -23.209 -17.107  0.00  0.00    +0.108 C 
ATOM     17  O   UNL     1      33.461 -24.424 -14.657  0.00  0.00    -0.270 OA
ATOM     18  N   UNL     1      33.917 -23.571 -16.772  0.00  0.00    -0.278 N 
ATOM     19  C   UNL     1      34.250 -24.159 -15.562  0.00  0.00    +0.249 C 
ATOM     20  H   UNL     1      34.636 -23.404 -17.424  0.00  0.00    +0.155 HD
BRANCH  19  21
ATOM     21  C   UNL     1      35.685 -24.502 -15.389  0.00  0.00    +0.054 C 
ATOM     22  C   UNL     1      36.024 -25.801 -15.068  0.00  0.00    +0.005 C 
ATOM     23  C   UNL     1      36.631 -23.514 -15.557  0.00  0.00    +0.005 C 
ATOM     24  C   UNL     1      37.371 -26.123 -14.906  0.00  0.00    +0.000 C 
ATOM     25  C   UNL     1      37.979 -23.837 -15.395  0.00  0.00    +0.000 C 
ATOM     26  C   UNL     1      38.348 -25.142 -15.069  0.00  0.00    +0.000 C 
ENDBRANCH  19  21
BRANCH  16  28
ATOM     27  OXT UNL     1      30.756 -24.400 -16.192  0.00  0.00    -0.244 OA
ATOM     28  C   UNL     1      31.553 -23.476 -16.130  0.00  0.00    +0.348 C 
BRANCH  28  29
ATOM     29  O   UNL     1      31.552 -22.548 -15.143  0.00  0.00    -0.476 OA
ATOM     30  H   UNL     1      32.351 -22.325 -14.709  0.00  0.00    +0.295 HD
ENDBRANCH  28  29
ENDBRANCH  16  28
ENDBRANCH   1  16
TORSDOF 7
ENDMDL
MODEL 8
REMARK VINA RESULT:     -10.0      6.817     11.050
REMARK  Name = 657131
REMARK  7 active torsions:
REMARK  status: ('A' for Active; 'I' for Inactive)
REMARK    1  A    between atoms: C_1  and  CA_2
REMARK    2  A    between atoms: C_1  and  C_3
REMARK    3  A    between atoms: CA_2  and  C_28
REMARK    4  A    between atoms: C_4  and  O_9
REMARK    5  A    between atoms: O_9  and  C_11
REMARK    6  A    between atoms: C_19  and  C_21
REMARK    7  A    between atoms: C_28  and  O_29
REMARK                            x       y       z     vdW  Elec       q    Type
REMARK                         _______ _______ _______ _____ _____    ______ ____
ROOT
ATOM      1  C   UNL     1      35.577 -22.876 -15.062  0.00  0.00    +0.074 C 
ENDROOT
BRANCH   1   2
ATOM      2  C   UNL     1      35.570 -22.585 -16.486  0.00  0.00    -0.016 C 
ATOM      3  C   UNL     1      35.555 -22.028 -19.220  0.00  0.00    +0.145 C 
ATOM      4  C   UNL     1      36.668 -21.960 -17.077  0.00  0.00    -0.001 C 
ATOM      5  C   UNL     1      34.464 -22.932 -17.263  0.00  0.00    -0.001 C 
ATOM      6  C   UNL     1      36.660 -21.681 -18.444  0.00  0.00    +0.037 C 
ATOM      7  C   UNL     1      34.457 -22.653 -18.630  0.00  0.00    +0.037 C 
BRANCH   3   8
ATOM      8  O   UNL     1      35.548 -21.757 -20.553  0.00  0.00    -0.453 OA
BRANCH   8  10
ATOM      9 BR   UNL     1      32.697 -20.506 -20.787  0.00  0.00    -0.046 Br
ATOM     10  C   UNL     1      35.570 -20.427 -20.941  0.00  0.00    +0.151 C 
ATOM     11  C   UNL     1      34.392 -19.716 -21.094  0.00  0.00    +0.069 C 
ATOM     12  C   UNL     1      36.804 -19.842 -21.167  0.00  0.00    +0.038 C 
ATOM     13  C   UNL     1      34.451 -18.379 -21.486  0.00  0.00    +0.010 C 
ATOM     14  C   UNL     1      36.862 -18.504 -21.558  0.00  0.00    +0.003 C 
ATOM     15  C   UNL     1      35.685 -17.773 -21.718  0.00  0.00    +0.001 C 
ENDBRANCH   8  10
ENDBRANCH   3   8
ENDBRANCH   1   2
BRANCH   1  16
ATOM     16  CA  UNL     1      34.631 -23.566 -14.382  0.00  0.00    +0.108 C 
ATOM     17  O   UNL     1      32.547 -24.982 -13.041  0.00  0.00    -0.270 OA
ATOM     18  N   UNL     1      33.321 -23.629 -14.767  0.00  0.00    -0.278 N 
ATOM     19  C   UNL     1      32.355 -24.337 -14.069  0.00  0.00    +0.249 C 
ATOM     20  H   UNL     1      33.051 -23.148 -15.582  0.00  0.00    +0.155 HD
BRANCH  19  21
ATOM     21  C   UNL     1      30.980 -24.269 -14.630  0.00  0.00    +0.054 C 
ATOM     22  C   UNL     1      30.144 -25.356 -14.475  0.00  0.00    +0.005 C 
ATOM     23  C   UNL     1      30.584 -23.122 -15.284  0.00  0.00    +0.005 C 
ATOM     24  C   UNL     1      28.855 -25.292 -15.001  0.00  0.00    +0.000 C 
ATOM     25  C   UNL     1      29.293 -23.058 -15.810  0.00  0.00    +0.000 C 
ATOM     26  C   UNL     1      28.429 -24.144 -15.668  0.00  0.00    +0.000 C 
ENDBRANCH  19  21
BRANCH  16  28
ATOM     27  OXT UNL     1      35.645 -25.337 -13.099  0.00  0.00    -0.244 OA
ATOM     28  C   UNL     1      35.037 -24.278 -13.142  0.00  0.00    +0.348 C 
BRANCH  28  29
ATOM     29  O   UNL     1      34.640 -23.596 -12.040  0.00  0.00    -0.476 OA
ATOM     30  H   UNL     1      34.635 -22.660 -12.046  0.00  0.00    +0.295 HD
ENDBRANCH  28  29
ENDBRANCH  16  28
ENDBRANCH   1  16
TORSDOF 7
ENDMDL
MODEL 9
REMARK VINA RESULT:      -9.9      5.717      9.421
REMARK  Name = 657131
REMARK  7 active torsions:
REMARK  status: ('A' for Active; 'I' for Inactive)
REMARK    1  A    between atoms: C_1  and  CA_2
REMARK    2  A    between atoms: C_1  and  C_3
REMARK    3  A    between atoms: CA_2  and  C_28
REMARK    4  A    between atoms: C_4  and  O_9
REMARK    5  A    between atoms: O_9  and  C_11
REMARK    6  A    between atoms: C_19  and  C_21
REMARK    7  A    between atoms: C_28  and  O_29
REMARK                            x       y       z     vdW  Elec       q    Type
REMARK                         _______ _______ _______ _____ _____    ______ ____
ROOT
ATOM      1  C   UNL     1      33.329 -23.333 -18.703  0.00  0.00    +0.074 C 
ENDROOT
BRANCH   1   2
ATOM      2  C   UNL     1      33.912 -22.200 -19.403  0.00  0.00    -0.016 C 
ATOM      3  C   UNL     1      35.028 -20.025 -20.747  0.00  0.00    +0.145 C 
ATOM      4  C   UNL     1      35.298 -22.065 -19.482  0.00  0.00    -0.001 C 
ATOM      5  C   UNL     1      33.084 -21.247 -19.997  0.00  0.00    -0.001 C 
ATOM      6  C   UNL     1      35.857 -20.977 -20.154  0.00  0.00    +0.037 C 
ATOM      7  C   UNL     1      33.642 -20.160 -20.669  0.00  0.00    +0.037 C 
BRANCH   3   8
ATOM      8  O   UNL     1      35.573 -18.965 -21.404  0.00  0.00    -0.453 OA
BRANCH   8  10
ATOM      9 BR   UNL     1      34.744 -15.965 -21.643  0.00  0.00    -0.046 Br
ATOM     10  C   UNL     1      35.058 -18.643 -22.648  0.00  0.00    +0.151 C 
ATOM     11  C   UNL     1      34.639 -17.354 -22.928  0.00  0.00    +0.069 C 
ATOM     12  C   UNL     1      34.978 -19.652 -23.593  0.00  0.00    +0.038 C 
ATOM     13  C   UNL     1      34.125 -17.064 -24.192  0.00  0.00    +0.010 C 
ATOM     14  C   UNL     1      34.463 -19.362 -24.857  0.00  0.00    +0.003 C 
ATOM     15  C   UNL     1      34.037 -18.068 -25.156  0.00  0.00    +0.001 C 
ENDBRANCH   8  10
ENDBRANCH   3   8
ENDBRANCH   1   2
BRANCH   1  16
ATOM     16  CA  UNL     1      33.022 -23.388 -17.386  0.00  0.00    +0.108 C 
ATOM     17  O   UNL     1      32.508 -23.511 -14.581  0.00  0.00    -0.270 OA
ATOM     18  N   UNL     1      33.960 -23.498 -16.397  0.00  0.00    -0.278 N 
ATOM     19  C   UNL     1      33.643 -23.553 -15.048  0.00  0.00    +0.249 C 
ATOM     20  H   UNL     1      34.909 -23.540 -16.656  0.00  0.00    +0.155 HD
BRANCH  19  21
ATOM     21  C   UNL     1      34.798 -23.697 -14.124  0.00  0.00    +0.054 C 
ATOM     22  C   UNL     1      36.069 -23.459 -14.606  0.00  0.00    +0.005 C 
ATOM     23  C   UNL     1      34.562 -24.059 -12.815  0.00  0.00    +0.005 C 
ATOM     24  C   UNL     1      37.152 -23.593 -13.738  0.00  0.00    +0.000 C 
ATOM     25  C   UNL     1      35.646 -24.193 -11.948  0.00  0.00    +0.000 C 
ATOM     26  C   UNL     1      36.942 -23.960 -12.410  0.00  0.00    +0.000 C 
ENDBRANCH  19  21
BRANCH  16  28
ATOM     27  OXT UNL     1      30.847 -22.380 -17.133  0.00  0.00    -0.244 OA
ATOM     28  C   UNL     1      31.588 -23.342 -16.996  0.00  0.00    +0.348 C 
BRANCH  28  29
ATOM     29  O   UNL     1      31.196 -24.521 -16.457  0.00  0.00    -0.476 OA
ATOM     30  H   UNL     1      30.922 -24.559 -15.561  0.00  0.00    +0.295 HD
ENDBRANCH  28  29
ENDBRANCH  16  28
ENDBRANCH   1  16
TORSDOF 7
ENDMDL
