MODEL 1
REMARK VINA RESULT:     -12.8      0.000      0.000
REMARK  Name = 115237
REMARK  5 active torsions:
REMARK  status: ('A' for Active; 'I' for Inactive)
REMARK    1  A    between atoms: N_1  and  C_18
REMARK    2  A    between atoms: C_2  and  C_11
REMARK    3  A    between atoms: C_18  and  C_19
REMARK    4  A    between atoms: C_19  and  C_23
REMARK    5  A    between atoms: C_25  and  O_32
REMARK                            x       y       z     vdW  Elec       q    Type
REMARK                         _______ _______ _______ _____ _____    ______ ____
ROOT
ATOM      1  N   UNL     1      35.669 -19.714 -20.576  0.00  0.00    +0.387 N 
ATOM      2  C   UNL     1      35.139 -18.435 -23.162  0.00  0.00    +0.039 C 
ATOM      3  C   UNL     1      34.054 -19.189 -22.376  0.00  0.00    -0.017 C 
ATOM      4  C   UNL     1      36.225 -17.929 -22.198  0.00  0.00    -0.017 C 
ATOM      5  C   UNL     1      34.665 -20.276 -21.490  0.00  0.00    -0.077 C 
ATOM      6  C   UNL     1      36.757 -19.063 -21.318  0.00  0.00    -0.077 C 
ATOM      7  H   UNL     1      35.211 -19.004 -20.003  0.00  0.00    -0.080 HD
ENDROOT
BRANCH   2  11
ATOM      8  F   UNL     1      33.313 -12.008 -23.924  0.00  0.00    -0.204 F 
ATOM      9  O   UNL     1      33.746 -16.415 -25.800  0.00  0.00    -0.354 OA
ATOM     10  N   UNL     1      34.215 -17.617 -25.284  0.00  0.00    -0.081 NA
ATOM     11  C   UNL     1      34.573 -17.336 -24.033  0.00  0.00    +0.100 A 
ATOM     12  C   UNL     1      34.362 -15.993 -23.689  0.00  0.00    +0.054 A 
ATOM     13  C   UNL     1      33.835 -15.448 -24.847  0.00  0.00    +0.179 A 
ATOM     14  C   UNL     1      34.543 -15.168 -22.568  0.00  0.00    +0.007 C 
ATOM     15  C   UNL     1      33.463 -14.114 -24.987  0.00  0.00    +0.070 C 
ATOM     16  C   UNL     1      34.178 -13.819 -22.674  0.00  0.00    +0.030 C 
ATOM     17  C   UNL     1      33.649 -13.304 -23.862  0.00  0.00    +0.143 C 
ENDBRANCH   2  11
BRANCH   1  18
ATOM     18  C   UNL     1      36.201 -20.755 -19.697  0.00  0.00    -0.076 C 
BRANCH  18  19
ATOM     19  C   UNL     1      35.367 -22.022 -19.832  0.00  0.00    -0.007 C 
BRANCH  19  23
ATOM     20  O   UNL     1      32.636 -22.381 -19.434  0.00  0.00    -0.274 OA
ATOM     21  N   UNL     1      32.833 -23.110 -17.230  0.00  0.00    -0.235 N 
ATOM     22  N   UNL     1      34.958 -23.080 -16.190  0.00  0.00    -0.397 NA
ATOM     23  C   UNL     1      34.808 -22.438 -18.502  0.00  0.00    +0.123 C 
ATOM     24  C   UNL     1      31.382 -23.281 -17.127  0.00  0.00    +0.100 C 
ATOM     25  C   UNL     1      33.096 -23.804 -14.836  0.00  0.00    +0.177 C 
ATOM     26  C   UNL     1      30.935 -24.169 -15.981  0.00  0.00    +0.025 C 
ATOM     27  C   UNL     1      31.590 -23.680 -14.708  0.00  0.00    +0.040 C 
ATOM     28  C   UNL     1      33.678 -23.281 -16.146  0.00  0.00    +0.192 C 
ATOM     29  C   UNL     1      33.327 -22.640 -18.450  0.00  0.00    +0.237 C 
ATOM     30  C   UNL     1      35.512 -22.659 -17.373  0.00  0.00    +0.097 C 
ATOM     31  C   UNL     1      36.999 -22.447 -17.281  0.00  0.00    +0.062 C 
BRANCH  25  32
ATOM     32  O   UNL     1      33.706 -23.099 -13.764  0.00  0.00    -0.376 OA
ATOM     33  H   UNL     1      33.371 -22.190 -13.743  0.00  0.00    +0.211 HD
ENDBRANCH  25  32
ENDBRANCH  19  23
ENDBRANCH  18  19
ENDBRANCH   1  18
TORSDOF 5
ENDMDL
MODEL 2
REMARK VINA RESULT:     -12.4      4.514     11.419
REMARK  Name = 115237
REMARK  5 active torsions:
REMARK  status: ('A' for Active; 'I' for Inactive)
REMARK    1  A    between atoms: N_1  and  C_18
REMARK    2  A    between atoms: C_2  and  C_11
REMARK    3  A    between atoms: C_18  and  C_19
REMARK    4  A    between atoms: C_19  and  C_23
REMARK    5  A    between atoms: C_25  and  O_32
REMARK                            x       y       z     vdW  Elec       q    Type
REMARK                         _______ _______ _______ _____ _____    ______ ____
ROOT
ATOM      1  N   UNL     1      33.574 -15.244 -23.817  0.00  0.00    +0.387 N 
ATOM      2  C   UNL     1      35.385 -17.216 -22.618  0.00  0.00    +0.039 C 
ATOM      3  C   UNL     1      34.683 -16.128 -21.789  0.00  0.00    -0.017 C 
ATOM      4  C   UNL     1      34.572 -17.507 -23.891  0.00  0.00    -0.017 C 
ATOM      5  C   UNL     1      34.379 -14.893 -22.639  0.00  0.00    -0.077 C 
ATOM      6  C   UNL     1      34.271 -16.222 -24.664  0.00  0.00    -0.077 C 
ATOM      7  H   UNL     1      32.708 -15.673 -23.490  0.00  0.00    -0.080 HD
ENDROOT
BRANCH   2  11
ATOM      8  F   UNL     1      33.175 -22.634 -19.304  0.00  0.00    -0.204 F 
ATOM      9  O   UNL     1      36.874 -19.958 -20.817  0.00  0.00    -0.354 OA
ATOM     10  N   UNL     1      36.947 -18.783 -21.555  0.00  0.00    -0.081 NA
ATOM     11  C   UNL     1      35.681 -18.463 -21.816  0.00  0.00    +0.100 A 
ATOM     12  C   UNL     1      34.761 -19.377 -21.282  0.00  0.00    +0.054 A 
ATOM     13  C   UNL     1      35.569 -20.310 -20.655  0.00  0.00    +0.179 A 
ATOM     14  C   UNL     1      33.369 -19.544 -21.242  0.00  0.00    +0.007 C 
ATOM     15  C   UNL     1      35.094 -21.427 -19.975  0.00  0.00    +0.070 C 
ATOM     16  C   UNL     1      32.856 -20.658 -20.563  0.00  0.00    +0.030 C 
ATOM     17  C   UNL     1      33.704 -21.581 -19.943  0.00  0.00    +0.143 C 
ENDBRANCH   2  11
BRANCH   1  18
ATOM     18  C   UNL     1      33.244 -14.044 -24.587  0.00  0.00    -0.076 C 
BRANCH  18  19
ATOM     19  C   UNL     1      34.285 -12.964 -24.334  0.00  0.00    -0.007 C 
BRANCH  19  23
ATOM     20  O   UNL     1      32.577 -11.959 -22.379  0.00  0.00    -0.274 OA
ATOM     21  N   UNL     1      32.326  -9.865 -23.369  0.00  0.00    -0.235 N 
ATOM     22  N   UNL     1      33.295  -9.466 -25.491  0.00  0.00    -0.397 NA
ATOM     23  C   UNL     1      33.675 -11.596 -24.443  0.00  0.00    +0.123 C 
ATOM     24  C   UNL     1      31.447  -9.426 -22.282  0.00  0.00    +0.100 C 
ATOM     25  C   UNL     1      32.021  -7.660 -24.521  0.00  0.00    +0.177 C 
ATOM     26  C   UNL     1      31.287  -7.922 -22.174  0.00  0.00    +0.025 C 
ATOM     27  C   UNL     1      30.906  -7.378 -23.534  0.00  0.00    +0.040 C 
ATOM     28  C   UNL     1      32.570  -9.083 -24.486  0.00  0.00    +0.192 C 
ATOM     29  C   UNL     1      32.817 -11.171 -23.293  0.00  0.00    +0.237 C 
ATOM     30  C   UNL     1      33.842 -10.725 -25.457  0.00  0.00    +0.097 C 
ATOM     31  C   UNL     1      34.643 -11.048 -26.691  0.00  0.00    +0.062 C 
BRANCH  25  32
ATOM     32  O   UNL     1      31.548  -7.397 -25.834  0.00  0.00    -0.376 OA
ATOM     33  H   UNL     1      31.101  -6.536 -25.850  0.00  0.00    +0.211 HD
ENDBRANCH  25  32
ENDBRANCH  19  23
ENDBRANCH  18  19
ENDBRANCH   1  18
TORSDOF 5
ENDMDL
MODEL 3
REMARK VINA RESULT:     -12.1      4.376     11.151
REMARK  Name = 115237
REMARK  5 active torsions:
REMARK  status: ('A' for Active; 'I' for Inactive)
REMARK    1  A    between atoms: N_1  and  C_18
REMARK    2  A    between atoms: C_2  and  C_11
REMARK    3  A    between atoms: C_18  and  C_19
REMARK    4  A    between atoms: C_19  and  C_23
REMARK    5  A    between atoms: C_25  and  O_32
REMARK                            x       y       z     vdW  Elec       q    Type
REMARK                         _______ _______ _______ _____ _____    ______ ____
ROOT
ATOM      1  N   UNL     1      33.729 -15.704 -23.611  0.00  0.00    +0.387 N 
ATOM      2  C   UNL     1      35.478 -17.714 -22.384  0.00  0.00    +0.039 C 
ATOM      3  C   UNL     1      34.832 -16.578 -21.575  0.00  0.00    -0.017 C 
ATOM      4  C   UNL     1      34.637 -18.006 -23.638  0.00  0.00    -0.017 C 
ATOM      5  C   UNL     1      34.564 -15.354 -22.453  0.00  0.00    -0.077 C 
ATOM      6  C   UNL     1      34.375 -16.730 -24.441  0.00  0.00    -0.077 C 
ATOM      7  H   UNL     1      32.851 -16.090 -23.261  0.00  0.00    -0.080 HD
ENDROOT
BRANCH   2  11
ATOM      8  F   UNL     1      33.110 -23.008 -18.981  0.00  0.00    -0.204 F 
ATOM      9  O   UNL     1      36.885 -20.451 -20.511  0.00  0.00    -0.354 OA
ATOM     10  N   UNL     1      36.993 -19.294 -21.273  0.00  0.00    -0.081 NA
ATOM     11  C   UNL     1      35.737 -18.950 -21.553  0.00  0.00    +0.100 A 
ATOM     12  C   UNL     1      34.792 -19.831 -21.010  0.00  0.00    +0.054 A 
ATOM     13  C   UNL     1      35.571 -20.770 -20.355  0.00  0.00    +0.179 A 
ATOM     14  C   UNL     1      33.395 -19.965 -20.981  0.00  0.00    +0.007 C 
ATOM     15  C   UNL     1      35.063 -21.861 -19.657  0.00  0.00    +0.070 C 
ATOM     16  C   UNL     1      32.849 -21.053 -20.284  0.00  0.00    +0.030 C 
ATOM     17  C   UNL     1      33.670 -21.982 -19.636  0.00  0.00    +0.143 C 
ENDBRANCH   2  11
BRANCH   1  18
ATOM     18  C   UNL     1      33.434 -14.513 -24.407  0.00  0.00    -0.076 C 
BRANCH  18  19
ATOM     19  C   UNL     1      34.356 -13.374 -23.996  0.00  0.00    -0.007 C 
BRANCH  19  23
ATOM     20  O   UNL     1      34.709 -11.071 -25.519  0.00  0.00    -0.274 OA
ATOM     21  N   UNL     1      33.035  -9.850 -24.454  0.00  0.00    -0.235 N 
ATOM     22  N   UNL     1      31.936 -10.788 -22.580  0.00  0.00    -0.397 NA
ATOM     23  C   UNL     1      33.572 -12.121 -23.730  0.00  0.00    +0.123 C 
ATOM     24  C   UNL     1      33.288  -8.695 -25.319  0.00  0.00    +0.100 C 
ATOM     25  C   UNL     1      31.283  -8.554 -23.217  0.00  0.00    +0.177 C 
ATOM     26  C   UNL     1      32.160  -7.682 -25.358  0.00  0.00    +0.025 C 
ATOM     27  C   UNL     1      31.788  -7.319 -23.937  0.00  0.00    +0.040 C 
ATOM     28  C   UNL     1      32.139  -9.803 -23.398  0.00  0.00    +0.192 C 
ATOM     29  C   UNL     1      33.833 -10.979 -24.660  0.00  0.00    +0.237 C 
ATOM     30  C   UNL     1      32.658 -11.941 -22.756  0.00  0.00    +0.097 C 
ATOM     31  C   UNL     1      32.338 -12.995 -21.729  0.00  0.00    +0.062 C 
BRANCH  25  32
ATOM     32  O   UNL     1      31.197  -8.270 -21.828  0.00  0.00    -0.376 OA
ATOM     33  H   UNL     1      31.613  -7.413 -21.646  0.00  0.00    +0.211 HD
ENDBRANCH  25  32
ENDBRANCH  19  23
ENDBRANCH  18  19
ENDBRANCH   1  18
TORSDOF 5
ENDMDL
MODEL 4
REMARK VINA RESULT:     -12.1      3.483     10.630
REMARK  Name = 115237
REMARK  5 active torsions:
REMARK  status: ('A' for Active; 'I' for Inactive)
REMARK    1  A    between atoms: N_1  and  C_18
REMARK    2  A    between atoms: C_2  and  C_11
REMARK    3  A    between atoms: C_18  and  C_19
REMARK    4  A    between atoms: C_19  and  C_23
REMARK    5  A    between atoms: C_25  and  O_32
REMARK                            x       y       z     vdW  Elec       q    Type
REMARK                         _______ _______ _______ _____ _____    ______ ____
ROOT
ATOM      1  N   UNL     1      35.334 -18.039 -22.252  0.00  0.00    +0.387 N 
ATOM      2  C   UNL     1      35.576 -20.567 -20.784  0.00  0.00    +0.039 C 
ATOM      3  C   UNL     1      36.691 -19.509 -20.795  0.00  0.00    -0.017 C 
ATOM      4  C   UNL     1      34.218 -19.897 -21.057  0.00  0.00    -0.017 C 
ATOM      5  C   UNL     1      36.649 -18.672 -22.075  0.00  0.00    -0.077 C 
ATOM      6  C   UNL     1      34.266 -19.046 -22.327  0.00  0.00    -0.077 C 
ATOM      7  H   UNL     1      35.155 -17.452 -21.437  0.00  0.00    -0.080 HD
ENDROOT
BRANCH   2  11
ATOM      8  F   UNL     1      32.177 -24.110 -16.188  0.00  0.00    -0.204 F 
ATOM      9  O   UNL     1      36.381 -22.417 -17.799  0.00  0.00    -0.354 OA
ATOM     10  N   UNL     1      36.725 -21.641 -18.898  0.00  0.00    -0.081 NA
ATOM     11  C   UNL     1      35.573 -21.400 -19.522  0.00  0.00    +0.100 A 
ATOM     12  C   UNL     1      34.470 -21.985 -18.883  0.00  0.00    +0.054 A 
ATOM     13  C   UNL     1      35.035 -22.622 -17.792  0.00  0.00    +0.179 A 
ATOM     14  C   UNL     1      33.082 -22.065 -19.075  0.00  0.00    +0.007 C 
ATOM     15  C   UNL     1      34.315 -23.352 -16.851  0.00  0.00    +0.070 C 
ATOM     16  C   UNL     1      32.326 -22.792 -18.145  0.00  0.00    +0.030 C 
ATOM     17  C   UNL     1      32.934 -23.423 -17.055  0.00  0.00    +0.143 C 
ENDBRANCH   2  11
BRANCH   1  18
ATOM     18  C   UNL     1      35.329 -17.197 -23.448  0.00  0.00    -0.076 C 
BRANCH  18  19
ATOM     19  C   UNL     1      33.931 -16.644 -23.686  0.00  0.00    -0.007 C 
BRANCH  19  23
ATOM     20  O   UNL     1      33.701 -15.602 -26.256  0.00  0.00    -0.274 OA
ATOM     21  N   UNL     1      33.752 -13.370 -25.589  0.00  0.00    -0.235 N 
ATOM     22  N   UNL     1      34.145 -12.854 -23.313  0.00  0.00    -0.397 NA
ATOM     23  C   UNL     1      33.978 -15.166 -23.948  0.00  0.00    +0.123 C 
ATOM     24  C   UNL     1      33.612 -12.923 -26.977  0.00  0.00    +0.100 C 
ATOM     25  C   UNL     1      33.899 -10.988 -24.824  0.00  0.00    +0.177 C 
ATOM     26  C   UNL     1      33.154 -11.485 -27.129  0.00  0.00    +0.025 C 
ATOM     27  C   UNL     1      34.046 -10.602 -26.283  0.00  0.00    +0.040 C 
ATOM     28  C   UNL     1      33.960 -12.486 -24.543  0.00  0.00    +0.192 C 
ATOM     29  C   UNL     1      33.791 -14.750 -25.373  0.00  0.00    +0.237 C 
ATOM     30  C   UNL     1      34.152 -14.197 -23.029  0.00  0.00    +0.097 C 
ATOM     31  C   UNL     1      34.395 -14.484 -21.571  0.00  0.00    +0.062 C 
BRANCH  25  32
ATOM     32  O   UNL     1      34.926 -10.352 -24.077  0.00  0.00    -0.376 OA
ATOM     33  H   UNL     1      35.221 -10.941 -23.366  0.00  0.00    +0.211 HD
ENDBRANCH  25  32
ENDBRANCH  19  23
ENDBRANCH  18  19
ENDBRANCH   1  18
TORSDOF 5
ENDMDL
MODEL 5
REMARK VINA RESULT:     -12.0      3.382     10.317
REMARK  Name = 115237
REMARK  5 active torsions:
REMARK  status: ('A' for Active; 'I' for Inactive)
REMARK    1  A    between atoms: N_1  and  C_18
REMARK    2  A    between atoms: C_2  and  C_11
REMARK    3  A    between atoms: C_18  and  C_19
REMARK    4  A    between atoms: C_19  and  C_23
REMARK    5  A    between atoms: C_25  and  O_32
REMARK                            x       y       z     vdW  Elec       q    Type
REMARK                         _______ _______ _______ _____ _____    ______ ____
ROOT
ATOM      1  N   UNL     1      34.276 -20.691 -20.385  0.00  0.00    +0.387 N 
ATOM      2  C   UNL     1      34.060 -22.820 -18.379  0.00  0.00    +0.039 C 
ATOM      3  C   UNL     1      35.373 -22.064 -18.642  0.00  0.00    -0.017 C 
ATOM      4  C   UNL     1      32.863 -21.944 -18.786  0.00  0.00    -0.017 C 
ATOM      5  C   UNL     1      35.434 -21.543 -20.080  0.00  0.00    -0.077 C 
ATOM      6  C   UNL     1      33.016 -21.427 -20.218  0.00  0.00    -0.077 C 
ATOM      7  H   UNL     1      34.276 -19.913 -19.724  0.00  0.00    -0.080 HD
ENDROOT
BRANCH   2  11
ATOM      8  F   UNL     1      30.274 -24.316 -13.026  0.00  0.00    -0.204 F 
ATOM      9  O   UNL     1      34.625 -24.117 -15.066  0.00  0.00    -0.354 OA
ATOM     10  N   UNL     1      35.060 -23.709 -16.320  0.00  0.00    -0.081 NA
ATOM     11  C   UNL     1      33.954 -23.330 -16.959  0.00  0.00    +0.100 A 
ATOM     12  C   UNL     1      32.796 -23.468 -16.182  0.00  0.00    +0.054 A 
ATOM     13  C   UNL     1      33.274 -23.973 -14.985  0.00  0.00    +0.179 A 
ATOM     14  C   UNL     1      31.418 -23.240 -16.324  0.00  0.00    +0.007 C 
ATOM     15  C   UNL     1      32.474 -24.279 -13.888  0.00  0.00    +0.070 C 
ATOM     16  C   UNL     1      30.584 -23.535 -15.237  0.00  0.00    +0.030 C 
ATOM     17  C   UNL     1      31.105 -24.045 -14.043  0.00  0.00    +0.143 C 
ENDBRANCH   2  11
BRANCH   1  18
ATOM     18  C   UNL     1      34.380 -20.155 -21.742  0.00  0.00    -0.076 C 
BRANCH  18  19
ATOM     19  C   UNL     1      35.435 -19.058 -21.787  0.00  0.00    -0.007 C 
BRANCH  19  23
ATOM     20  O   UNL     1      34.933 -16.581 -20.620  0.00  0.00    -0.274 OA
ATOM     21  N   UNL     1      34.411 -15.504 -22.619  0.00  0.00    -0.235 N 
ATOM     22  N   UNL     1      34.294 -16.768 -24.616  0.00  0.00    -0.397 NA
ATOM     23  C   UNL     1      34.955 -17.886 -22.593  0.00  0.00    +0.123 C 
ATOM     24  C   UNL     1      34.185 -14.241 -21.912  0.00  0.00    +0.100 C 
ATOM     25  C   UNL     1      33.773 -14.418 -24.786  0.00  0.00    +0.177 C 
ATOM     26  C   UNL     1      34.213 -13.012 -22.800  0.00  0.00    +0.025 C 
ATOM     27  C   UNL     1      33.280 -13.239 -23.970  0.00  0.00    +0.040 C 
ATOM     28  C   UNL     1      34.160 -15.650 -23.974  0.00  0.00    +0.192 C 
ATOM     29  C   UNL     1      34.775 -16.606 -21.840  0.00  0.00    +0.237 C 
ATOM     30  C   UNL     1      34.692 -17.879 -23.914  0.00  0.00    +0.097 C 
ATOM     31  C   UNL     1      34.789 -19.111 -24.775  0.00  0.00    +0.062 C 
BRANCH  25  32
ATOM     32  O   UNL     1      32.759 -14.792 -25.708  0.00  0.00    -0.376 OA
ATOM     33  H   UNL     1      32.312 -15.591 -25.390  0.00  0.00    +0.211 HD
ENDBRANCH  25  32
ENDBRANCH  19  23
ENDBRANCH  18  19
ENDBRANCH   1  18
TORSDOF 5
ENDMDL
MODEL 6
REMARK VINA RESULT:     -11.7      1.677      2.547
REMARK  Name = 115237
REMARK  5 active torsions:
REMARK  status: ('A' for Active; 'I' for Inactive)
REMARK    1  A    between atoms: N_1  and  C_18
REMARK    2  A    between atoms: C_2  and  C_11
REMARK    3  A    between atoms: C_18  and  C_19
REMARK    4  A    between atoms: C_19  and  C_23
REMARK    5  A    between atoms: C_25  and  O_32
REMARK                            x       y       z     vdW  Elec       q    Type
REMARK                         _______ _______ _______ _____ _____    ______ ____
ROOT
ATOM      1  N   UNL     1      35.652 -20.255 -20.052  0.00  0.00    +0.387 N 
ATOM      2  C   UNL     1      35.215 -19.065 -22.697  0.00  0.00    +0.039 C 
ATOM      3  C   UNL     1      34.058 -19.545 -21.806  0.00  0.00    -0.017 C 
ATOM      4  C   UNL     1      36.434 -18.718 -21.826  0.00  0.00    -0.017 C 
ATOM      5  C   UNL     1      34.506 -20.671 -20.873  0.00  0.00    -0.077 C 
ATOM      6  C   UNL     1      36.796 -19.874 -20.892  0.00  0.00    -0.077 C 
ATOM      7  H   UNL     1      35.372 -19.436 -19.512  0.00  0.00    -0.080 HD
ENDROOT
BRANCH   2  11
ATOM      8  F   UNL     1      33.737 -12.567 -23.593  0.00  0.00    -0.204 F 
ATOM      9  O   UNL     1      34.275 -16.963 -25.468  0.00  0.00    -0.354 OA
ATOM     10  N   UNL     1      34.625 -18.188 -24.912  0.00  0.00    -0.081 NA
ATOM     11  C   UNL     1      34.814 -17.936 -23.619  0.00  0.00    +0.100 A 
ATOM     12  C   UNL     1      34.604 -16.590 -23.284  0.00  0.00    +0.054 A 
ATOM     13  C   UNL     1      34.263 -16.012 -24.494  0.00  0.00    +0.179 A 
ATOM     14  C   UNL     1      34.656 -15.787 -22.135  0.00  0.00    +0.007 C 
ATOM     15  C   UNL     1      33.961 -14.663 -24.661  0.00  0.00    +0.070 C 
ATOM     16  C   UNL     1      34.356 -14.424 -22.267  0.00  0.00    +0.030 C 
ATOM     17  C   UNL     1      34.016 -13.875 -23.508  0.00  0.00    +0.143 C 
ENDBRANCH   2  11
BRANCH   1  18
ATOM     18  C   UNL     1      36.031 -21.322 -19.125  0.00  0.00    -0.076 C 
BRANCH  18  19
ATOM     19  C   UNL     1      34.892 -22.324 -18.996  0.00  0.00    -0.007 C 
BRANCH  19  23
ATOM     20  O   UNL     1      37.076 -22.627 -17.297  0.00  0.00    -0.274 OA
ATOM     21  N   UNL     1      35.812 -23.173 -15.417  0.00  0.00    -0.235 N 
ATOM     22  N   UNL     1      33.473 -23.453 -15.640  0.00  0.00    -0.397 NA
ATOM     23  C   UNL     1      34.731 -22.770 -17.571  0.00  0.00    +0.123 C 
ATOM     24  C   UNL     1      37.023 -23.292 -14.603  0.00  0.00    +0.100 C 
ATOM     25  C   UNL     1      34.410 -23.840 -13.450  0.00  0.00    +0.177 C 
ATOM     26  C   UNL     1      36.782 -23.231 -13.107  0.00  0.00    +0.025 C 
ATOM     27  C   UNL     1      35.699 -24.226 -12.751  0.00  0.00    +0.040 C 
ATOM     28  C   UNL     1      34.556 -23.491 -14.928  0.00  0.00    +0.192 C 
ATOM     29  C   UNL     1      35.988 -22.840 -16.763  0.00  0.00    +0.237 C 
ATOM     30  C   UNL     1      33.573 -23.090 -16.960  0.00  0.00    +0.097 C 
ATOM     31  C   UNL     1      32.247 -23.104 -17.673  0.00  0.00    +0.062 C 
BRANCH  25  32
ATOM     32  O   UNL     1      33.487 -24.914 -13.334  0.00  0.00    -0.376 OA
ATOM     33  H   UNL     1      33.773 -25.511 -12.625  0.00  0.00    +0.211 HD
ENDBRANCH  25  32
ENDBRANCH  19  23
ENDBRANCH  18  19
ENDBRANCH   1  18
TORSDOF 5
ENDMDL
MODEL 7
REMARK VINA RESULT:     -11.7      2.392      4.068
REMARK  Name = 115237
REMARK  5 active torsions:
REMARK  status: ('A' for Active; 'I' for Inactive)
REMARK    1  A    between atoms: N_1  and  C_18
REMARK    2  A    between atoms: C_2  and  C_11
REMARK    3  A    between atoms: C_18  and  C_19
REMARK    4  A    between atoms: C_19  and  C_23
REMARK    5  A    between atoms: C_25  and  O_32
REMARK                            x       y       z     vdW  Elec       q    Type
REMARK                         _______ _______ _______ _____ _____    ______ ____
ROOT
ATOM      1  N   UNL     1      34.111 -22.180 -18.892  0.00  0.00    +0.387 N 
ATOM      2  C   UNL     1      34.643 -20.321 -21.098  0.00  0.00    +0.039 C 
ATOM      3  C   UNL     1      33.277 -20.402 -20.399  0.00  0.00    -0.017 C 
ATOM      4  C   UNL     1      35.747 -20.810 -20.145  0.00  0.00    -0.017 C 
ATOM      5  C   UNL     1      33.034 -21.796 -19.816  0.00  0.00    -0.077 C 
ATOM      6  C   UNL     1      35.415 -22.188 -19.571  0.00  0.00    -0.077 C 
ATOM      7  H   UNL     1      34.149 -21.484 -18.147  0.00  0.00    -0.080 HD
ENDROOT
BRANCH   2  11
ATOM      8  F   UNL     1      33.950 -15.859 -26.081  0.00  0.00    -0.204 F 
ATOM      9  O   UNL     1      35.729 -16.948 -21.747  0.00  0.00    -0.354 OA
ATOM     10  N   UNL     1      35.655 -18.089 -20.958  0.00  0.00    -0.081 NA
ATOM     11  C   UNL     1      34.928 -18.950 -21.667  0.00  0.00    +0.100 A 
ATOM     12  C   UNL     1      34.511 -18.430 -22.901  0.00  0.00    +0.054 A 
ATOM     13  C   UNL     1      35.045 -17.154 -22.906  0.00  0.00    +0.179 A 
ATOM     14  C   UNL     1      33.760 -18.859 -24.007  0.00  0.00    +0.007 C 
ATOM     15  C   UNL     1      34.890 -16.242 -23.946  0.00  0.00    +0.070 C 
ATOM     16  C   UNL     1      33.585 -17.966 -25.074  0.00  0.00    +0.030 C 
ATOM     17  C   UNL     1      34.140 -16.683 -25.041  0.00  0.00    +0.143 C 
ENDBRANCH   2  11
BRANCH   1  18
ATOM     18  C   UNL     1      33.834 -23.489 -18.300  0.00  0.00    -0.076 C 
BRANCH  18  19
ATOM     19  C   UNL     1      32.784 -23.351 -17.207  0.00  0.00    -0.007 C 
BRANCH  19  23
ATOM     20  O   UNL     1      35.509 -23.076 -16.714  0.00  0.00    -0.274 OA
ATOM     21  N   UNL     1      35.369 -23.579 -14.443  0.00  0.00    -0.235 N 
ATOM     22  N   UNL     1      33.292 -24.262 -13.538  0.00  0.00    -0.397 NA
ATOM     23  C   UNL     1      33.377 -23.633 -15.857  0.00  0.00    +0.123 C 
ATOM     24  C   UNL     1      36.813 -23.394 -14.285  0.00  0.00    +0.100 C 
ATOM     25  C   UNL     1      35.173 -24.212 -12.026  0.00  0.00    +0.177 C 
ATOM     26  C   UNL     1      37.266 -23.185 -12.852  0.00  0.00    +0.025 C 
ATOM     27  C   UNL     1      36.687 -24.291 -11.996  0.00  0.00    +0.040 C 
ATOM     28  C   UNL     1      34.563 -24.033 -13.413  0.00  0.00    +0.192 C 
ATOM     29  C   UNL     1      34.848 -23.394 -15.727  0.00  0.00    +0.237 C 
ATOM     30  C   UNL     1      32.711 -24.058 -14.765  0.00  0.00    +0.097 C 
ATOM     31  C   UNL     1      31.240 -24.378 -14.775  0.00  0.00    +0.062 C 
BRANCH  25  32
ATOM     32  O   UNL     1      34.642 -25.399 -11.455  0.00  0.00    -0.376 OA
ATOM     33  H   UNL     1      34.732 -25.361 -10.490  0.00  0.00    +0.211 HD
ENDBRANCH  25  32
ENDBRANCH  19  23
ENDBRANCH  18  19
ENDBRANCH   1  18
TORSDOF 5
ENDMDL
MODEL 8
REMARK VINA RESULT:     -11.6      3.459     10.619
REMARK  Name = 115237
REMARK  5 active torsions:
REMARK  status: ('A' for Active; 'I' for Inactive)
REMARK    1  A    between atoms: N_1  and  C_18
REMARK    2  A    between atoms: C_2  and  C_11
REMARK    3  A    between atoms: C_18  and  C_19
REMARK    4  A    between atoms: C_19  and  C_23
REMARK    5  A    between atoms: C_25  and  O_32
REMARK                            x       y       z     vdW  Elec       q    Type
REMARK                         _______ _______ _______ _____ _____    ______ ____
ROOT
ATOM      1  N   UNL     1      35.143 -18.203 -22.038  0.00  0.00    +0.387 N 
ATOM      2  C   UNL     1      35.098 -20.819 -20.712  0.00  0.00    +0.039 C 
ATOM      3  C   UNL     1      36.227 -19.800 -20.488  0.00  0.00    -0.017 C 
ATOM      4  C   UNL     1      33.814 -20.090 -21.145  0.00  0.00    -0.017 C 
ATOM      5  C   UNL     1      36.400 -18.888 -21.705  0.00  0.00    -0.077 C 
ATOM      6  C   UNL     1      34.076 -19.168 -22.337  0.00  0.00    -0.077 C 
ATOM      7  H   UNL     1      34.856 -17.659 -21.224  0.00  0.00    -0.080 HD
ENDROOT
BRANCH   2  11
ATOM      8  F   UNL     1      37.148 -23.108 -14.730  0.00  0.00    -0.204 F 
ATOM      9  O   UNL     1      33.907 -23.198 -18.283  0.00  0.00    -0.354 OA
ATOM     10  N   UNL     1      33.809 -22.512 -19.487  0.00  0.00    -0.081 NA
ATOM     11  C   UNL     1      34.882 -21.724 -19.520  0.00  0.00    +0.100 A 
ATOM     12  C   UNL     1      35.696 -21.855 -18.385  0.00  0.00    +0.054 A 
ATOM     13  C   UNL     1      35.033 -22.805 -17.627  0.00  0.00    +0.179 A 
ATOM     14  C   UNL     1      36.891 -21.306 -17.897  0.00  0.00    +0.007 C 
ATOM     15  C   UNL     1      35.472 -23.266 -16.389  0.00  0.00    +0.070 C 
ATOM     16  C   UNL     1      37.363 -21.749 -16.653  0.00  0.00    +0.030 C 
ATOM     17  C   UNL     1      36.664 -22.711 -15.916  0.00  0.00    +0.143 C 
ENDBRANCH   2  11
BRANCH   1  18
ATOM     18  C   UNL     1      35.340 -17.293 -23.166  0.00  0.00    -0.076 C 
BRANCH  18  19
ATOM     19  C   UNL     1      33.993 -16.803 -23.678  0.00  0.00    -0.007 C 
BRANCH  19  23
ATOM     20  O   UNL     1      33.723 -15.735 -26.234  0.00  0.00    -0.274 OA
ATOM     21  N   UNL     1      33.757 -13.511 -25.543  0.00  0.00    -0.235 N 
ATOM     22  N   UNL     1      34.171 -13.015 -23.267  0.00  0.00    -0.397 NA
ATOM     23  C   UNL     1      34.021 -15.322 -23.925  0.00  0.00    +0.123 C 
ATOM     24  C   UNL     1      33.596 -13.050 -26.924  0.00  0.00    +0.100 C 
ATOM     25  C   UNL     1      33.887 -11.135 -24.754  0.00  0.00    +0.177 C 
ATOM     26  C   UNL     1      33.121 -11.615 -27.056  0.00  0.00    +0.025 C 
ATOM     27  C   UNL     1      34.013 -10.732 -26.210  0.00  0.00    +0.040 C 
ATOM     28  C   UNL     1      33.967 -12.636 -24.490  0.00  0.00    +0.192 C 
ATOM     29  C   UNL     1      33.814 -14.892 -25.343  0.00  0.00    +0.237 C 
ATOM     30  C   UNL     1      34.196 -14.360 -22.997  0.00  0.00    +0.097 C 
ATOM     31  C   UNL     1      34.458 -14.661 -21.545  0.00  0.00    +0.062 C 
BRANCH  25  32
ATOM     32  O   UNL     1      34.916 -10.496 -24.012  0.00  0.00    -0.376 OA
ATOM     33  H   UNL     1      35.554 -10.096 -24.622  0.00  0.00    +0.211 HD
ENDBRANCH  25  32
ENDBRANCH  19  23
ENDBRANCH  18  19
ENDBRANCH   1  18
TORSDOF 5
ENDMDL
MODEL 9
REMARK VINA RESULT:     -11.5      1.848      2.737
REMARK  Name = 115237
REMARK  5 active torsions:
REMARK  status: ('A' for Active; 'I' for Inactive)
REMARK    1  A    between atoms: N_1  and  C_18
REMARK    2  A    between atoms: C_2  and  C_11
REMARK    3  A    between atoms: C_18  and  C_19
REMARK    4  A    between atoms: C_19  and  C_23
REMARK    5  A    between atoms: C_25  and  O_32
REMARK                            x       y       z     vdW  Elec       q    Type
REMARK                         _______ _______ _______ _____ _____    ______ ____
ROOT
ATOM      1  N   UNL     1      34.433 -22.274 -19.893  0.00  0.00    +0.387 N 
ATOM      2  C   UNL     1      34.754 -19.581 -21.011  0.00  0.00    +0.039 C 
ATOM      3  C   UNL     1      35.901 -20.604 -20.979  0.00  0.00    -0.017 C 
ATOM      4  C   UNL     1      33.401 -20.314 -20.996  0.00  0.00    -0.017 C 
ATOM      5  C   UNL     1      35.733 -21.592 -19.822  0.00  0.00    -0.077 C 
ATOM      6  C   UNL     1      33.324 -21.312 -19.839  0.00  0.00    -0.077 C 
ATOM      7  H   UNL     1      34.382 -22.763 -20.787  0.00  0.00    -0.080 HD
ENDROOT
BRANCH   2  11
ATOM      8  F   UNL     1      34.520 -13.253 -23.273  0.00  0.00    -0.204 F 
ATOM      9  O   UNL     1      35.207 -17.926 -24.179  0.00  0.00    -0.354 OA
ATOM     10  N   UNL     1      35.169 -19.057 -23.373  0.00  0.00    -0.081 NA
ATOM     11  C   UNL     1      34.875 -18.602 -22.157  0.00  0.00    +0.100 A 
ATOM     12  C   UNL     1      34.715 -17.210 -22.115  0.00  0.00    +0.054 A 
ATOM     13  C   UNL     1      34.936 -16.825 -23.426  0.00  0.00    +0.179 A 
ATOM     14  C   UNL     1      34.417 -16.228 -21.157  0.00  0.00    +0.007 C 
ATOM     15  C   UNL     1      34.885 -15.509 -23.876  0.00  0.00    +0.070 C 
ATOM     16  C   UNL     1      34.356 -14.892 -21.577  0.00  0.00    +0.030 C 
ATOM     17  C   UNL     1      34.587 -14.542 -22.911  0.00  0.00    +0.143 C 
ENDBRANCH   2  11
BRANCH   1  18
ATOM     18  C   UNL     1      34.312 -23.255 -18.815  0.00  0.00    -0.076 C 
BRANCH  18  19
ATOM     19  C   UNL     1      34.169 -22.541 -17.478  0.00  0.00    -0.007 C 
BRANCH  19  23
ATOM     20  O   UNL     1      31.420 -22.354 -17.872  0.00  0.00    -0.274 OA
ATOM     21  N   UNL     1      30.858 -23.843 -16.171  0.00  0.00    -0.235 N 
ATOM     22  N   UNL     1      32.564 -24.693 -14.769  0.00  0.00    -0.397 NA
ATOM     23  C   UNL     1      33.192 -23.256 -16.591  0.00  0.00    +0.123 C 
ATOM     24  C   UNL     1      29.432 -23.687 -16.468  0.00  0.00    +0.100 C 
ATOM     25  C   UNL     1      30.305 -25.383 -14.273  0.00  0.00    +0.177 C 
ATOM     26  C   UNL     1      28.551 -24.789 -15.912  0.00  0.00    +0.025 C 
ATOM     27  C   UNL     1      28.859 -24.957 -14.439  0.00  0.00    +0.040 C 
ATOM     28  C   UNL     1      31.313 -24.584 -15.093  0.00  0.00    +0.192 C 
ATOM     29  C   UNL     1      31.749 -23.103 -16.953  0.00  0.00    +0.237 C 
ATOM     30  C   UNL     1      33.493 -24.024 -15.525  0.00  0.00    +0.097 C 
ATOM     31  C   UNL     1      34.902 -24.222 -15.030  0.00  0.00    +0.062 C 
BRANCH  25  32
ATOM     32  O   UNL     1      30.659 -25.273 -12.901  0.00  0.00    -0.376 OA
ATOM     33  H   UNL     1      30.259 -26.004 -12.405  0.00  0.00    +0.211 HD
ENDBRANCH  25  32
ENDBRANCH  19  23
ENDBRANCH  18  19
ENDBRANCH   1  18
TORSDOF 5
ENDMDL
