MODEL 1
REMARK VINA RESULT:     -11.6      0.000      0.000
REMARK  Name = 44472635
REMARK  7 active torsions:
REMARK  status: ('A' for Active; 'I' for Inactive)
REMARK    1  A    between atoms: C_1  and  C_21
REMARK    2  A    between atoms: C_4  and  N_8
REMARK    3  A    between atoms: C_9  and  C_14
REMARK    4  A    between atoms: C_21  and  C_24
REMARK    5  A    between atoms: C_23  and  C_29
REMARK    6  A    between atoms: C_29  and  C_30
REMARK    7  A    between atoms: C_29  and  O_36
REMARK                            x       y       z     vdW  Elec       q    Type
REMARK                         _______ _______ _______ _____ _____    ______ ____
ROOT
ATOM      1  C   UNL     1      35.251 -20.194 -21.001  0.00  0.00    -0.024 C 
ATOM      2  C   UNL     1      33.886 -20.412 -20.811  0.00  0.00    -0.003 C 
ATOM      3  C   UNL     1      36.182 -20.909 -20.247  0.00  0.00    -0.003 C 
ATOM      4  C   UNL     1      34.385 -22.061 -19.117  0.00  0.00    +0.050 C 
ATOM      5  C   UNL     1      33.453 -21.346 -19.869  0.00  0.00    +0.014 C 
ATOM      6  C   UNL     1      35.750 -21.843 -19.306  0.00  0.00    +0.014 C 
ENDROOT
BRANCH   4   8
ATOM      7  O   UNL     1      35.247 -22.507 -16.267  0.00  0.00    -0.273 OA
ATOM      8  N   UNL     1      33.946 -23.009 -18.162  0.00  0.00    -0.283 N 
ATOM      9  C   UNL     1      34.391 -23.161 -16.856  0.00  0.00    +0.245 C 
ATOM     10  H   UNL     1      33.244 -23.632 -18.459  0.00  0.00    +0.155 HD
BRANCH   9  14
ATOM     11  O   UNL     1      36.125 -25.896 -15.750  0.00  0.00    -0.269 OA
ATOM     12  N   UNL     1      34.395 -24.563 -14.945  0.00  0.00    -0.237 N 
ATOM     13  N   UNL     1      34.193 -24.068 -12.621  0.00  0.00    -0.233 NA
ATOM     14  C   UNL     1      33.674 -24.282 -16.167  0.00  0.00    +0.158 C 
ATOM     15  C   UNL     1      32.297 -23.855 -15.680  0.00  0.00    +0.037 C 
ATOM     16  C   UNL     1      32.547 -23.255 -14.293  0.00  0.00    +0.064 C 
ATOM     17  C   UNL     1      33.773 -23.988 -13.840  0.00  0.00    +0.115 C 
ATOM     18  C   UNL     1      35.537 -25.332 -14.835  0.00  0.00    +0.256 C 
ATOM     19  C   UNL     1      36.027 -25.426 -13.435  0.00  0.00    +0.079 C 
ATOM     20  C   UNL     1      35.343 -24.806 -12.463  0.00  0.00    +0.105 C 
ENDBRANCH   9  14
ENDBRANCH   4   8
BRANCH   1  21
ATOM     21  C   UNL     1      35.714 -19.194 -22.005  0.00  0.00    +0.005 C 
BRANCH  21  24
ATOM     22  N   UNL     1      34.756 -17.242 -23.195  0.00  0.00    +0.388 N 
ATOM     23  C   UNL     1      33.819 -17.004 -24.303  0.00  0.00    -0.030 C 
ATOM     24  C   UNL     1      34.574 -18.661 -22.858  0.00  0.00    -0.057 C 
ATOM     25  C   UNL     1      33.812 -18.300 -25.114  0.00  0.00    -0.021 C 
ATOM     26  C   UNL     1      34.483 -19.336 -24.219  0.00  0.00    -0.023 C 
ATOM     27  H   UNL     1      34.527 -16.650 -22.397  0.00  0.00    -0.084 HD
ATOM     28  H   UNL     1      35.719 -17.023 -23.448  0.00  0.00    -0.084 HD
BRANCH  23  29
ATOM     29  C   UNL     1      34.219 -15.789 -25.130  0.00  0.00    +0.113 C 
BRANCH  29  30
ATOM     30  C   UNL     1      33.816 -14.491 -24.469  0.00  0.00    +0.002 C 
ATOM     31  C   UNL     1      33.441 -14.478 -23.125  0.00  0.00    -0.002 C 
ATOM     32  C   UNL     1      33.817 -13.305 -25.203  0.00  0.00    -0.002 C 
ATOM     33  C   UNL     1      33.068 -13.281 -22.516  0.00  0.00    -0.000 C 
ATOM     34  C   UNL     1      33.444 -12.107 -24.594  0.00  0.00    -0.000 C 
ATOM     35  C   UNL     1      33.070 -12.095 -23.250  0.00  0.00    -0.000 C 
ENDBRANCH  29  30
BRANCH  29  36
ATOM     36  O   UNL     1      35.632 -15.789 -25.333  0.00  0.00    -0.382 OA
ATOM     37  H   UNL     1      35.922 -14.898 -25.585  0.00  0.00    +0.211 HD
ENDBRANCH  29  36
ENDBRANCH  23  29
ENDBRANCH  21  24
ENDBRANCH   1  21
TORSDOF 7
ENDMDL
MODEL 2
REMARK VINA RESULT:     -11.5      4.049     12.426
REMARK  Name = 44472635
REMARK  7 active torsions:
REMARK  status: ('A' for Active; 'I' for Inactive)
REMARK    1  A    between atoms: C_1  and  C_21
REMARK    2  A    between atoms: C_4  and  N_8
REMARK    3  A    between atoms: C_9  and  C_14
REMARK    4  A    between atoms: C_21  and  C_24
REMARK    5  A    between atoms: C_23  and  C_29
REMARK    6  A    between atoms: C_29  and  C_30
REMARK    7  A    between atoms: C_29  and  O_36
REMARK                            x       y       z     vdW  Elec       q    Type
REMARK                         _______ _______ _______ _____ _____    ______ ____
ROOT
ATOM      1  C   UNL     1      34.413 -15.671 -24.269  0.00  0.00    -0.024 C 
ATOM      2  C   UNL     1      34.553 -14.871 -23.135  0.00  0.00    -0.003 C 
ATOM      3  C   UNL     1      33.775 -15.167 -25.403  0.00  0.00    -0.003 C 
ATOM      4  C   UNL     1      33.418 -13.064 -24.269  0.00  0.00    +0.050 C 
ATOM      5  C   UNL     1      34.055 -13.568 -23.134  0.00  0.00    +0.014 C 
ATOM      6  C   UNL     1      33.278 -13.864 -25.403  0.00  0.00    +0.014 C 
ENDROOT
BRANCH   4   8
ATOM      7  O   UNL     1      34.852 -10.423 -24.456  0.00  0.00    -0.273 OA
ATOM      8  N   UNL     1      32.913 -11.742 -24.269  0.00  0.00    -0.283 N 
ATOM      9  C   UNL     1      33.636 -10.561 -24.357  0.00  0.00    +0.245 C 
ATOM     10  H   UNL     1      31.934 -11.650 -24.198  0.00  0.00    +0.155 HD
BRANCH   9  14
ATOM     11  O   UNL     1      30.897 -10.532 -22.306  0.00  0.00    -0.269 OA
ATOM     12  N   UNL     1      32.544  -9.012 -22.934  0.00  0.00    -0.237 N 
ATOM     13  N   UNL     1      33.400  -7.406 -21.392  0.00  0.00    -0.233 NA
ATOM     14  C   UNL     1      32.730  -9.368 -24.324  0.00  0.00    +0.158 C 
ATOM     15  C   UNL     1      33.396  -8.137 -24.922  0.00  0.00    +0.037 C 
ATOM     16  C   UNL     1      34.159  -7.505 -23.755  0.00  0.00    +0.064 C 
ATOM     17  C   UNL     1      33.351  -7.937 -22.569  0.00  0.00    +0.115 C 
ATOM     18  C   UNL     1      31.661  -9.607 -22.055  0.00  0.00    +0.256 C 
ATOM     19  C   UNL     1      31.714  -9.003 -20.698  0.00  0.00    +0.079 C 
ATOM     20  C   UNL     1      32.554  -7.981 -20.473  0.00  0.00    +0.105 C 
ENDBRANCH   9  14
ENDBRANCH   4   8
BRANCH   1  21
ATOM     21  C   UNL     1      34.943 -17.064 -24.269  0.00  0.00    +0.005 C 
BRANCH  21  24
ATOM     22  N   UNL     1      34.140 -18.603 -22.499  0.00  0.00    +0.388 N 
ATOM     23  C   UNL     1      34.701 -19.283 -21.321  0.00  0.00    -0.030 C 
ATOM     24  C   UNL     1      35.153 -17.603 -22.863  0.00  0.00    -0.057 C 
ATOM     25  C   UNL     1      36.210 -19.331 -21.561  0.00  0.00    -0.021 C 
ATOM     26  C   UNL     1      36.465 -18.358 -22.706  0.00  0.00    -0.023 C 
ATOM     27  H   UNL     1      33.256 -18.152 -22.267  0.00  0.00    -0.084 HD
ATOM     28  H   UNL     1      33.942 -19.250 -23.262  0.00  0.00    -0.084 HD
BRANCH  23  29
ATOM     29  C   UNL     1      34.087 -20.661 -21.119  0.00  0.00    +0.113 C 
BRANCH  29  30
ATOM     30  C   UNL     1      34.604 -21.339 -19.871  0.00  0.00    +0.002 C 
ATOM     31  C   UNL     1      35.943 -21.201 -19.505  0.00  0.00    -0.002 C 
ATOM     32  C   UNL     1      33.742 -22.105 -19.085  0.00  0.00    -0.002 C 
ATOM     33  C   UNL     1      36.419 -21.828 -18.354  0.00  0.00    -0.000 C 
ATOM     34  C   UNL     1      34.218 -22.732 -17.934  0.00  0.00    -0.000 C 
ATOM     35  C   UNL     1      35.557 -22.593 -17.568  0.00  0.00    -0.000 C 
ENDBRANCH  29  30
BRANCH  29  36
ATOM     36  O   UNL     1      32.667 -20.548 -21.034  0.00  0.00    -0.382 OA
ATOM     37  H   UNL     1      32.436 -19.842 -20.411  0.00  0.00    +0.211 HD
ENDBRANCH  29  36
ENDBRANCH  23  29
ENDBRANCH  21  24
ENDBRANCH   1  21
TORSDOF 7
ENDMDL
MODEL 3
REMARK VINA RESULT:     -11.5      1.147      1.633
REMARK  Name = 44472635
REMARK  7 active torsions:
REMARK  status: ('A' for Active; 'I' for Inactive)
REMARK    1  A    between atoms: C_1  and  C_21
REMARK    2  A    between atoms: C_4  and  N_8
REMARK    3  A    between atoms: C_9  and  C_14
REMARK    4  A    between atoms: C_21  and  C_24
REMARK    5  A    between atoms: C_23  and  C_29
REMARK    6  A    between atoms: C_29  and  C_30
REMARK    7  A    between atoms: C_29  and  O_36
REMARK                            x       y       z     vdW  Elec       q    Type
REMARK                         _______ _______ _______ _____ _____    ______ ____
ROOT
ATOM      1  C   UNL     1      35.739 -20.741 -20.234  0.00  0.00    -0.024 C 
ATOM      2  C   UNL     1      34.421 -21.196 -20.196  0.00  0.00    -0.003 C 
ATOM      3  C   UNL     1      36.646 -21.151 -19.257  0.00  0.00    -0.003 C 
ATOM      4  C   UNL     1      34.920 -22.473 -18.206  0.00  0.00    +0.050 C 
ATOM      5  C   UNL     1      34.011 -22.062 -19.182  0.00  0.00    +0.014 C 
ATOM      6  C   UNL     1      36.238 -22.017 -18.244  0.00  0.00    +0.014 C 
ENDROOT
BRANCH   4   8
ATOM      7  O   UNL     1      35.658 -22.553 -15.288  0.00  0.00    -0.273 OA
ATOM      8  N   UNL     1      34.505 -23.351 -17.177  0.00  0.00    -0.283 N 
ATOM      9  C   UNL     1      34.889 -23.332 -15.844  0.00  0.00    +0.245 C 
ATOM     10  H   UNL     1      33.870 -24.058 -17.438  0.00  0.00    +0.155 HD
BRANCH   9  14
ATOM     11  O   UNL     1      35.973 -26.562 -16.168  0.00  0.00    -0.269 OA
ATOM     12  N   UNL     1      35.271 -25.191 -14.423  0.00  0.00    -0.237 N 
ATOM     13  N   UNL     1      36.251 -25.347 -12.254  0.00  0.00    -0.233 NA
ATOM     14  C   UNL     1      34.224 -24.433 -15.073  0.00  0.00    +0.158 C 
ATOM     15  C   UNL     1      33.400 -23.892 -13.914  0.00  0.00    +0.037 C 
ATOM     16  C   UNL     1      34.395 -23.775 -12.756  0.00  0.00    +0.064 C 
ATOM     17  C   UNL     1      35.397 -24.840 -13.081  0.00  0.00    +0.115 C 
ATOM     18  C   UNL     1      36.044 -26.174 -15.007  0.00  0.00    +0.256 C 
ATOM     19  C   UNL     1      37.030 -26.760 -14.062  0.00  0.00    +0.079 C 
ATOM     20  C   UNL     1      37.062 -26.316 -12.796  0.00  0.00    +0.105 C 
ENDBRANCH   9  14
ENDBRANCH   4   8
BRANCH   1  21
ATOM     21  C   UNL     1      36.176 -19.813 -21.317  0.00  0.00    +0.005 C 
BRANCH  21  24
ATOM     22  N   UNL     1      35.127 -17.764 -22.236  0.00  0.00    +0.388 N 
ATOM     23  C   UNL     1      34.162 -17.424 -23.294  0.00  0.00    -0.030 C 
ATOM     24  C   UNL     1      35.003 -19.220 -22.079  0.00  0.00    -0.057 C 
ATOM     25  C   UNL     1      34.188 -18.608 -24.261  0.00  0.00    -0.021 C 
ATOM     26  C   UNL     1      34.911 -19.722 -23.514  0.00  0.00    -0.023 C 
ATOM     27  H   UNL     1      34.891 -17.287 -21.367  0.00  0.00    -0.084 HD
ATOM     28  H   UNL     1      36.077 -17.479 -22.473  0.00  0.00    -0.084 HD
BRANCH  23  29
ATOM     29  C   UNL     1      34.503 -16.101 -23.965  0.00  0.00    +0.113 C 
BRANCH  29  30
ATOM     30  C   UNL     1      33.805 -14.932 -23.308  0.00  0.00    +0.002 C 
ATOM     31  C   UNL     1      33.162 -13.973 -24.091  0.00  0.00    -0.002 C 
ATOM     32  C   UNL     1      33.806 -14.811 -21.918  0.00  0.00    -0.002 C 
ATOM     33  C   UNL     1      32.520 -12.894 -23.485  0.00  0.00    -0.000 C 
ATOM     34  C   UNL     1      33.164 -13.731 -21.312  0.00  0.00    -0.000 C 
ATOM     35  C   UNL     1      32.520 -12.773 -22.095  0.00  0.00    -0.000 C 
ENDBRANCH  29  30
BRANCH  29  36
ATOM     36  O   UNL     1      35.913 -15.888 -23.920  0.00  0.00    -0.382 OA
ATOM     37  H   UNL     1      36.350 -16.682 -23.576  0.00  0.00    +0.211 HD
ENDBRANCH  29  36
ENDBRANCH  23  29
ENDBRANCH  21  24
ENDBRANCH   1  21
TORSDOF 7
ENDMDL
MODEL 4
REMARK VINA RESULT:     -11.3      1.164      1.534
REMARK  Name = 44472635
REMARK  7 active torsions:
REMARK  status: ('A' for Active; 'I' for Inactive)
REMARK    1  A    between atoms: C_1  and  C_21
REMARK    2  A    between atoms: C_4  and  N_8
REMARK    3  A    between atoms: C_9  and  C_14
REMARK    4  A    between atoms: C_21  and  C_24
REMARK    5  A    between atoms: C_23  and  C_29
REMARK    6  A    between atoms: C_29  and  C_30
REMARK    7  A    between atoms: C_29  and  O_36
REMARK                            x       y       z     vdW  Elec       q    Type
REMARK                         _______ _______ _______ _____ _____    ______ ____
ROOT
ATOM      1  C   UNL     1      35.122 -20.535 -20.620  0.00  0.00    -0.024 C 
ATOM      2  C   UNL     1      35.956 -21.251 -19.761  0.00  0.00    -0.003 C 
ATOM      3  C   UNL     1      33.742 -20.734 -20.577  0.00  0.00    -0.003 C 
ATOM      4  C   UNL     1      34.030 -22.363 -18.817  0.00  0.00    +0.050 C 
ATOM      5  C   UNL     1      35.411 -22.165 -18.860  0.00  0.00    +0.014 C 
ATOM      6  C   UNL     1      33.196 -21.647 -19.676  0.00  0.00    +0.014 C 
ENDROOT
BRANCH   4   8
ATOM      7  O   UNL     1      31.367 -22.369 -17.411  0.00  0.00    -0.273 OA
ATOM      8  N   UNL     1      33.476 -23.290 -17.903  0.00  0.00    -0.283 N 
ATOM      9  C   UNL     1      32.233 -23.229 -17.287  0.00  0.00    +0.245 C 
ATOM     10  H   UNL     1      34.037 -24.067 -17.678  0.00  0.00    +0.155 HD
BRANCH   9  14
ATOM     11  O   UNL     1      34.902 -25.074 -16.194  0.00  0.00    -0.269 OA
ATOM     12  N   UNL     1      32.927 -24.260 -15.268  0.00  0.00    -0.237 N 
ATOM     13  N   UNL     1      32.835 -23.520 -13.003  0.00  0.00    -0.233 NA
ATOM     14  C   UNL     1      32.019 -24.407 -16.385  0.00  0.00    +0.158 C 
ATOM     15  C   UNL     1      30.644 -24.376 -15.734  0.00  0.00    +0.037 C 
ATOM     16  C   UNL     1      30.833 -23.530 -14.472  0.00  0.00    +0.064 C 
ATOM     17  C   UNL     1      32.277 -23.759 -14.143  0.00  0.00    +0.115 C 
ATOM     18  C   UNL     1      34.266 -24.599 -15.260  0.00  0.00    +0.256 C 
ATOM     19  C   UNL     1      34.915 -24.324 -13.952  0.00  0.00    +0.079 C 
ATOM     20  C   UNL     1      34.177 -23.819 -12.952  0.00  0.00    +0.105 C 
ENDBRANCH   9  14
ENDBRANCH   4   8
BRANCH   1  21
ATOM     21  C   UNL     1      35.706 -19.559 -21.585  0.00  0.00    +0.005 C 
BRANCH  21  24
ATOM     22  N   UNL     1      34.908 -17.461 -22.637  0.00  0.00    +0.388 N 
ATOM     23  C   UNL     1      34.053 -17.077 -23.771  0.00  0.00    -0.030 C 
ATOM     24  C   UNL     1      34.645 -18.894 -22.447  0.00  0.00    -0.057 C 
ATOM     25  C   UNL     1      34.040 -18.292 -24.699  0.00  0.00    -0.021 C 
ATOM     26  C   UNL     1      34.608 -19.437 -23.869  0.00  0.00    -0.023 C 
ATOM     27  H   UNL     1      34.656 -16.934 -21.801  0.00  0.00    -0.084 HD
ATOM     28  H   UNL     1      35.894 -17.267 -22.813  0.00  0.00    -0.084 HD
BRANCH  23  29
ATOM     29  C   UNL     1      34.555 -15.813 -24.454  0.00  0.00    +0.113 C 
BRANCH  29  30
ATOM     30  C   UNL     1      33.925 -14.564 -23.880  0.00  0.00    +0.002 C 
ATOM     31  C   UNL     1      33.451 -14.561 -22.568  0.00  0.00    -0.002 C 
ATOM     32  C   UNL     1      33.816 -13.415 -24.663  0.00  0.00    -0.002 C 
ATOM     33  C   UNL     1      32.869 -13.409 -22.040  0.00  0.00    -0.000 C 
ATOM     34  C   UNL     1      33.234 -12.263 -24.135  0.00  0.00    -0.000 C 
ATOM     35  C   UNL     1      32.760 -12.260 -22.823  0.00  0.00    -0.000 C 
ENDBRANCH  29  30
BRANCH  29  36
ATOM     36  O   UNL     1      35.973 -15.723 -24.318  0.00  0.00    -0.382 OA
ATOM     37  H   UNL     1      36.391 -15.897 -25.176  0.00  0.00    +0.211 HD
ENDBRANCH  29  36
ENDBRANCH  23  29
ENDBRANCH  21  24
ENDBRANCH   1  21
TORSDOF 7
ENDMDL
MODEL 5
REMARK VINA RESULT:     -11.2      1.219      1.844
REMARK  Name = 44472635
REMARK  7 active torsions:
REMARK  status: ('A' for Active; 'I' for Inactive)
REMARK    1  A    between atoms: C_1  and  C_21
REMARK    2  A    between atoms: C_4  and  N_8
REMARK    3  A    between atoms: C_9  and  C_14
REMARK    4  A    between atoms: C_21  and  C_24
REMARK    5  A    between atoms: C_23  and  C_29
REMARK    6  A    between atoms: C_29  and  C_30
REMARK    7  A    between atoms: C_29  and  O_36
REMARK                            x       y       z     vdW  Elec       q    Type
REMARK                         _______ _______ _______ _____ _____    ______ ____
ROOT
ATOM      1  C   UNL     1      35.522 -19.734 -21.163  0.00  0.00    -0.024 C 
ATOM      2  C   UNL     1      36.377 -20.523 -20.394  0.00  0.00    -0.003 C 
ATOM      3  C   UNL     1      34.141 -19.920 -21.082  0.00  0.00    -0.003 C 
ATOM      4  C   UNL     1      34.473 -21.683 -19.463  0.00  0.00    +0.050 C 
ATOM      5  C   UNL     1      35.854 -21.498 -19.545  0.00  0.00    +0.014 C 
ATOM      6  C   UNL     1      33.617 -20.893 -20.232  0.00  0.00    +0.014 C 
ENDROOT
BRANCH   4   8
ATOM      7  O   UNL     1      35.223 -22.428 -16.644  0.00  0.00    -0.273 OA
ATOM      8  N   UNL     1      33.941 -22.671 -18.602  0.00  0.00    -0.283 N 
ATOM      9  C   UNL     1      34.338 -22.964 -17.305  0.00  0.00    +0.245 C 
ATOM     10  H   UNL     1      33.203 -23.213 -18.965  0.00  0.00    +0.155 HD
BRANCH   9  14
ATOM     11  O   UNL     1      35.880 -25.683 -15.910  0.00  0.00    -0.269 OA
ATOM     12  N   UNL     1      34.041 -24.349 -15.404  0.00  0.00    -0.237 N 
ATOM     13  N   UNL     1      33.468 -23.834 -13.147  0.00  0.00    -0.233 NA
ATOM     14  C   UNL     1      33.523 -24.082 -16.728  0.00  0.00    +0.158 C 
ATOM     15  C   UNL     1      32.085 -23.656 -16.471  0.00  0.00    +0.037 C 
ATOM     16  C   UNL     1      32.109 -23.042 -15.069  0.00  0.00    +0.064 C 
ATOM     17  C   UNL     1      33.248 -23.767 -14.418  0.00  0.00    +0.115 C 
ATOM     18  C   UNL     1      35.152 -25.113 -15.106  0.00  0.00    +0.256 C 
ATOM     19  C   UNL     1      35.413 -25.192 -13.645  0.00  0.00    +0.079 C 
ATOM     20  C   UNL     1      34.580 -24.565 -12.800  0.00  0.00    +0.105 C 
ENDBRANCH   9  14
ENDBRANCH   4   8
BRANCH   1  21
ATOM     21  C   UNL     1      36.081 -18.694 -22.073  0.00  0.00    +0.005 C 
BRANCH  21  24
ATOM     22  N   UNL     1      34.876 -16.528 -22.128  0.00  0.00    +0.388 N 
ATOM     23  C   UNL     1      34.098 -15.748 -23.103  0.00  0.00    -0.030 C 
ATOM     24  C   UNL     1      34.996 -17.861 -22.736  0.00  0.00    -0.057 C 
ATOM     25  C   UNL     1      34.538 -16.259 -24.475  0.00  0.00    -0.021 C 
ATOM     26  C   UNL     1      35.291 -17.555 -24.197  0.00  0.00    -0.023 C 
ATOM     27  H   UNL     1      34.385 -16.582 -21.236  0.00  0.00    -0.084 HD
ATOM     28  H   UNL     1      35.784 -16.108 -21.931  0.00  0.00    -0.084 HD
BRANCH  23  29
ATOM     29  C   UNL     1      34.315 -14.251 -22.929  0.00  0.00    +0.113 C 
BRANCH  29  30
ATOM     30  C   UNL     1      33.994 -13.478 -24.188  0.00  0.00    +0.002 C 
ATOM     31  C   UNL     1      34.244 -12.107 -24.249  0.00  0.00    -0.002 C 
ATOM     32  C   UNL     1      33.446 -14.136 -25.290  0.00  0.00    -0.002 C 
ATOM     33  C   UNL     1      33.947 -11.395 -25.410  0.00  0.00    -0.000 C 
ATOM     34  C   UNL     1      33.148 -13.423 -26.451  0.00  0.00    -0.000 C 
ATOM     35  C   UNL     1      33.399 -12.052 -26.511  0.00  0.00    -0.000 C 
ENDBRANCH  29  30
BRANCH  29  36
ATOM     36  O   UNL     1      33.498 -13.766 -21.864  0.00  0.00    -0.382 OA
ATOM     37  H   UNL     1      33.823 -14.119 -21.021  0.00  0.00    +0.211 HD
ENDBRANCH  29  36
ENDBRANCH  23  29
ENDBRANCH  21  24
ENDBRANCH   1  21
TORSDOF 7
ENDMDL
MODEL 6
REMARK VINA RESULT:     -10.9      2.345      4.349
REMARK  Name = 44472635
REMARK  7 active torsions:
REMARK  status: ('A' for Active; 'I' for Inactive)
REMARK    1  A    between atoms: C_1  and  C_21
REMARK    2  A    between atoms: C_4  and  N_8
REMARK    3  A    between atoms: C_9  and  C_14
REMARK    4  A    between atoms: C_21  and  C_24
REMARK    5  A    between atoms: C_23  and  C_29
REMARK    6  A    between atoms: C_29  and  C_30
REMARK    7  A    between atoms: C_29  and  O_36
REMARK                            x       y       z     vdW  Elec       q    Type
REMARK                         _______ _______ _______ _____ _____    ______ ____
ROOT
ATOM      1  C   UNL     1      33.866 -23.056 -18.120  0.00  0.00    -0.024 C 
ATOM      2  C   UNL     1      35.138 -22.680 -17.687  0.00  0.00    -0.003 C 
ATOM      3  C   UNL     1      33.056 -23.845 -17.302  0.00  0.00    -0.003 C 
ATOM      4  C   UNL     1      34.788 -23.880 -15.619  0.00  0.00    +0.050 C 
ATOM      5  C   UNL     1      35.599 -23.092 -16.437  0.00  0.00    +0.014 C 
ATOM      6  C   UNL     1      33.517 -24.256 -16.052  0.00  0.00    +0.014 C 
ENDROOT
BRANCH   4   8
ATOM      7  O   UNL     1      33.346 -24.123 -12.987  0.00  0.00    -0.273 OA
ATOM      8  N   UNL     1      35.256 -24.297 -14.350  0.00  0.00    -0.283 N 
ATOM      9  C   UNL     1      34.532 -24.384 -13.170  0.00  0.00    +0.245 C 
ATOM     10  H   UNL     1      36.205 -24.555 -14.300  0.00  0.00    +0.155 HD
BRANCH   9  14
ATOM     11  O   UNL     1      36.474 -27.175 -13.562  0.00  0.00    -0.269 OA
ATOM     12  N   UNL     1      36.719 -25.080 -12.577  0.00  0.00    -0.237 N 
ATOM     13  N   UNL     1      38.808 -23.931 -12.617  0.00  0.00    -0.233 NA
ATOM     14  C   UNL     1      35.391 -24.871 -12.042  0.00  0.00    +0.158 C 
ATOM     15  C   UNL     1      35.597 -23.796 -10.985  0.00  0.00    +0.037 C 
ATOM     16  C   UNL     1      36.809 -23.000 -11.475  0.00  0.00    +0.064 C 
ATOM     17  C   UNL     1      37.568 -24.021 -12.267  0.00  0.00    +0.115 C 
ATOM     18  C   UNL     1      37.147 -26.191 -13.277  0.00  0.00    +0.256 C 
ATOM     19  C   UNL     1      38.572 -26.093 -13.685  0.00  0.00    +0.079 C 
ATOM     20  C   UNL     1      39.275 -25.004 -13.338  0.00  0.00    +0.105 C 
ENDBRANCH   9  14
ENDBRANCH   4   8
BRANCH   1  21
ATOM     21  C   UNL     1      33.374 -22.619 -19.458  0.00  0.00    +0.005 C 
BRANCH  21  24
ATOM     22  N   UNL     1      34.902 -20.958 -20.484  0.00  0.00    +0.388 N 
ATOM     23  C   UNL     1      34.820 -19.577 -20.983  0.00  0.00    -0.030 C 
ATOM     24  C   UNL     1      33.658 -21.150 -19.726  0.00  0.00    -0.057 C 
ATOM     25  C   UNL     1      33.340 -19.342 -21.285  0.00  0.00    -0.021 C 
ATOM     26  C   UNL     1      32.605 -20.491 -20.606  0.00  0.00    -0.023 C 
ATOM     27  H   UNL     1      35.714 -21.075 -19.879  0.00  0.00    -0.084 HD
ATOM     28  H   UNL     1      35.005 -21.637 -21.238  0.00  0.00    -0.084 HD
BRANCH  23  29
ATOM     29  C   UNL     1      35.715 -19.361 -22.196  0.00  0.00    +0.113 C 
BRANCH  29  30
ATOM     30  C   UNL     1      35.143 -18.340 -23.153  0.00  0.00    +0.002 C 
ATOM     31  C   UNL     1      34.425 -18.758 -24.273  0.00  0.00    -0.002 C 
ATOM     32  C   UNL     1      35.334 -16.978 -22.916  0.00  0.00    -0.002 C 
ATOM     33  C   UNL     1      33.898 -17.816 -25.156  0.00  0.00    -0.000 C 
ATOM     34  C   UNL     1      34.808 -16.036 -23.799  0.00  0.00    -0.000 C 
ATOM     35  C   UNL     1      34.089 -16.455 -24.919  0.00  0.00    -0.000 C 
ENDBRANCH  29  30
BRANCH  29  36
ATOM     36  O   UNL     1      37.007 -18.928 -21.770  0.00  0.00    -0.382 OA
ATOM     37  H   UNL     1      36.924 -18.431 -20.941  0.00  0.00    +0.211 HD
ENDBRANCH  29  36
ENDBRANCH  23  29
ENDBRANCH  21  24
ENDBRANCH   1  21
TORSDOF 7
ENDMDL
MODEL 7
REMARK VINA RESULT:     -10.9      4.737      9.044
REMARK  Name = 44472635
REMARK  7 active torsions:
REMARK  status: ('A' for Active; 'I' for Inactive)
REMARK    1  A    between atoms: C_1  and  C_21
REMARK    2  A    between atoms: C_4  and  N_8
REMARK    3  A    between atoms: C_9  and  C_14
REMARK    4  A    between atoms: C_21  and  C_24
REMARK    5  A    between atoms: C_23  and  C_29
REMARK    6  A    between atoms: C_29  and  C_30
REMARK    7  A    between atoms: C_29  and  O_36
REMARK                            x       y       z     vdW  Elec       q    Type
REMARK                         _______ _______ _______ _____ _____    ______ ____
ROOT
ATOM      1  C   UNL     1      32.239 -12.250 -22.019  0.00  0.00    -0.024 C 
ATOM      2  C   UNL     1      32.395 -13.244 -21.053  0.00  0.00    -0.003 C 
ATOM      3  C   UNL     1      32.816 -12.407 -23.279  0.00  0.00    -0.003 C 
ATOM      4  C   UNL     1      33.705 -14.550 -22.607  0.00  0.00    +0.050 C 
ATOM      5  C   UNL     1      33.128 -14.394 -21.347  0.00  0.00    +0.014 C 
ATOM      6  C   UNL     1      33.549 -13.556 -23.574  0.00  0.00    +0.014 C 
ENDROOT
BRANCH   4   8
ATOM      7  O   UNL     1      34.938 -16.603 -20.783  0.00  0.00    -0.273 OA
ATOM      8  N   UNL     1      34.448 -15.716 -22.906  0.00  0.00    -0.283 N 
ATOM      9  C   UNL     1      34.993 -16.624 -22.009  0.00  0.00    +0.245 C 
ATOM     10  H   UNL     1      34.596 -15.905 -23.862  0.00  0.00    +0.155 HD
BRANCH   9  14
ATOM     11  O   UNL     1      37.528 -18.324 -20.460  0.00  0.00    -0.269 OA
ATOM     12  N   UNL     1      35.731 -18.871 -21.836  0.00  0.00    -0.237 N 
ATOM     13  N   UNL     1      34.531 -20.912 -21.554  0.00  0.00    -0.233 NA
ATOM     14  C   UNL     1      35.710 -17.729 -22.725  0.00  0.00    +0.158 C 
ATOM     15  C   UNL     1      34.921 -18.226 -23.928  0.00  0.00    +0.037 C 
ATOM     16  C   UNL     1      33.984 -19.296 -23.359  0.00  0.00    +0.064 C 
ATOM     17  C   UNL     1      34.750 -19.799 -22.173  0.00  0.00    +0.115 C 
ATOM     18  C   UNL     1      36.620 -19.075 -20.799  0.00  0.00    +0.256 C 
ATOM     19  C   UNL     1      36.371 -20.351 -20.080  0.00  0.00    +0.079 C 
ATOM     20  C   UNL     1      35.376 -21.150 -20.495  0.00  0.00    +0.105 C 
ENDBRANCH   9  14
ENDBRANCH   4   8
BRANCH   1  21
ATOM     21  C   UNL     1      31.457 -11.020 -21.705  0.00  0.00    +0.005 C 
BRANCH  21  24
ATOM     22  N   UNL     1      32.170  -8.842 -22.649  0.00  0.00    +0.388 N 
ATOM     23  C   UNL     1      32.771  -7.594 -22.156  0.00  0.00    -0.030 C 
ATOM     24  C   UNL     1      32.345  -9.797 -21.546  0.00  0.00    -0.057 C 
ATOM     25  C   UNL     1      32.465  -7.561 -20.658  0.00  0.00    -0.021 C 
ATOM     26  C   UNL     1      32.006  -8.972 -20.312  0.00  0.00    -0.023 C 
ATOM     27  H   UNL     1      32.652  -9.167 -23.487  0.00  0.00    -0.084 HD
ATOM     28  H   UNL     1      31.191  -8.724 -22.909  0.00  0.00    -0.084 HD
BRANCH  23  29
ATOM     29  C   UNL     1      32.237  -6.377 -22.898  0.00  0.00    +0.113 C 
BRANCH  29  30
ATOM     30  C   UNL     1      33.155  -5.942 -24.017  0.00  0.00    +0.002 C 
ATOM     31  C   UNL     1      34.317  -6.665 -24.289  0.00  0.00    -0.002 C 
ATOM     32  C   UNL     1      32.842  -4.816 -24.778  0.00  0.00    -0.002 C 
ATOM     33  C   UNL     1      35.164  -6.263 -25.321  0.00  0.00    -0.000 C 
ATOM     34  C   UNL     1      33.689  -4.412 -25.810  0.00  0.00    -0.000 C 
ATOM     35  C   UNL     1      34.850  -5.137 -26.082  0.00  0.00    -0.000 C 
ENDBRANCH  29  30
BRANCH  29  36
ATOM     36  O   UNL     1      30.949  -6.671 -23.440  0.00  0.00    -0.382 OA
ATOM     37  H   UNL     1      30.776  -6.087 -24.195  0.00  0.00    +0.211 HD
ENDBRANCH  29  36
ENDBRANCH  23  29
ENDBRANCH  21  24
ENDBRANCH   1  21
TORSDOF 7
ENDMDL
MODEL 8
REMARK VINA RESULT:     -10.7      1.800      3.085
REMARK  Name = 44472635
REMARK  7 active torsions:
REMARK  status: ('A' for Active; 'I' for Inactive)
REMARK    1  A    between atoms: C_1  and  C_21
REMARK    2  A    between atoms: C_4  and  N_8
REMARK    3  A    between atoms: C_9  and  C_14
REMARK    4  A    between atoms: C_21  and  C_24
REMARK    5  A    between atoms: C_23  and  C_29
REMARK    6  A    between atoms: C_29  and  C_30
REMARK    7  A    between atoms: C_29  and  O_36
REMARK                            x       y       z     vdW  Elec       q    Type
REMARK                         _______ _______ _______ _____ _____    ______ ____
ROOT
ATOM      1  C   UNL     1      33.093 -21.681 -19.498  0.00  0.00    -0.024 C 
ATOM      2  C   UNL     1      32.096 -22.073 -18.604  0.00  0.00    -0.003 C 
ATOM      3  C   UNL     1      34.417 -22.060 -19.275  0.00  0.00    -0.003 C 
ATOM      4  C   UNL     1      33.748 -23.222 -17.266  0.00  0.00    +0.050 C 
ATOM      5  C   UNL     1      32.423 -22.843 -17.488  0.00  0.00    +0.014 C 
ATOM      6  C   UNL     1      34.744 -22.830 -18.160  0.00  0.00    +0.014 C 
ENDROOT
BRANCH   4   8
ATOM      7  O   UNL     1      35.307 -22.514 -14.790  0.00  0.00    -0.273 OA
ATOM      8  N   UNL     1      34.080 -24.004 -16.134  0.00  0.00    -0.283 N 
ATOM      9  C   UNL     1      34.809 -23.612 -15.021  0.00  0.00    +0.245 C 
ATOM     10  H   UNL     1      33.756 -24.934 -16.138  0.00  0.00    +0.155 HD
BRANCH   9  14
ATOM     11  O   UNL     1      36.172 -26.597 -15.991  0.00  0.00    -0.269 OA
ATOM     12  N   UNL     1      36.306 -25.216 -14.122  0.00  0.00    -0.237 N 
ATOM     13  N   UNL     1      38.343 -24.971 -12.907  0.00  0.00    -0.233 NA
ATOM     14  C   UNL     1      34.943 -24.736 -14.038  0.00  0.00    +0.158 C 
ATOM     15  C   UNL     1      34.824 -24.246 -12.602  0.00  0.00    +0.037 C 
ATOM     16  C   UNL     1      36.247 -23.831 -12.217  0.00  0.00    +0.064 C 
ATOM     17  C   UNL     1      37.088 -24.717 -13.085  0.00  0.00    +0.115 C 
ATOM     18  C   UNL     1      36.801 -26.091 -15.069  0.00  0.00    +0.256 C 
ATOM     19  C   UNL     1      38.244 -26.385 -14.872  0.00  0.00    +0.079 C 
ATOM     20  C   UNL     1      38.889 -25.820 -13.840  0.00  0.00    +0.105 C 
ENDBRANCH   9  14
ENDBRANCH   4   8
BRANCH   1  21
ATOM     21  C   UNL     1      32.744 -20.855 -20.689  0.00  0.00    +0.005 C 
BRANCH  21  24
ATOM     22  N   UNL     1      33.875 -18.934 -21.774  0.00  0.00    +0.388 N 
ATOM     23  C   UNL     1      35.252 -18.539 -22.110  0.00  0.00    -0.030 C 
ATOM     24  C   UNL     1      33.976 -20.360 -21.430  0.00  0.00    -0.057 C 
ATOM     25  C   UNL     1      36.147 -19.349 -21.172  0.00  0.00    -0.021 C 
ATOM     26  C   UNL     1      35.243 -20.429 -20.589  0.00  0.00    -0.023 C 
ATOM     27  H   UNL     1      33.257 -18.800 -22.573  0.00  0.00    -0.084 HD
ATOM     28  H   UNL     1      33.487 -18.377 -21.013  0.00  0.00    -0.084 HD
BRANCH  23  29
ATOM     29  C   UNL     1      35.456 -17.037 -21.975  0.00  0.00    +0.113 C 
BRANCH  29  30
ATOM     30  C   UNL     1      34.776 -16.266 -23.083  0.00  0.00    +0.002 C 
ATOM     31  C   UNL     1      34.296 -14.978 -22.845  0.00  0.00    -0.002 C 
ATOM     32  C   UNL     1      34.627 -16.843 -24.345  0.00  0.00    -0.002 C 
ATOM     33  C   UNL     1      33.668 -14.267 -23.868  0.00  0.00    -0.000 C 
ATOM     34  C   UNL     1      33.999 -16.133 -25.367  0.00  0.00    -0.000 C 
ATOM     35  C   UNL     1      33.519 -14.844 -25.129  0.00  0.00    -0.000 C 
ENDBRANCH  29  30
BRANCH  29  36
ATOM     36  O   UNL     1      34.947 -16.592 -20.718  0.00  0.00    -0.382 OA
ATOM     37  H   UNL     1      34.982 -15.624 -20.679  0.00  0.00    +0.211 HD
ENDBRANCH  29  36
ENDBRANCH  23  29
ENDBRANCH  21  24
ENDBRANCH   1  21
TORSDOF 7
ENDMDL
MODEL 9
REMARK VINA RESULT:     -10.6      2.103      3.585
REMARK  Name = 44472635
REMARK  7 active torsions:
REMARK  status: ('A' for Active; 'I' for Inactive)
REMARK    1  A    between atoms: C_1  and  C_21
REMARK    2  A    between atoms: C_4  and  N_8
REMARK    3  A    between atoms: C_9  and  C_14
REMARK    4  A    between atoms: C_21  and  C_24
REMARK    5  A    between atoms: C_23  and  C_29
REMARK    6  A    between atoms: C_29  and  C_30
REMARK    7  A    between atoms: C_29  and  O_36
REMARK                            x       y       z     vdW  Elec       q    Type
REMARK                         _______ _______ _______ _____ _____    ______ ____
ROOT
ATOM      1  C   UNL     1      34.707 -21.719 -19.132  0.00  0.00    -0.024 C 
ATOM      2  C   UNL     1      36.083 -21.504 -19.048  0.00  0.00    -0.003 C 
ATOM      3  C   UNL     1      34.061 -22.483 -18.160  0.00  0.00    -0.003 C 
ATOM      4  C   UNL     1      36.165 -22.816 -17.021  0.00  0.00    +0.050 C 
ATOM      5  C   UNL     1      36.812 -22.053 -17.993  0.00  0.00    +0.014 C 
ATOM      6  C   UNL     1      34.789 -23.031 -17.105  0.00  0.00    +0.014 C 
ENDROOT
BRANCH   4   8
ATOM      7  O   UNL     1      36.039 -25.553 -15.774  0.00  0.00    -0.273 OA
ATOM      8  N   UNL     1      36.903 -23.372 -15.950  0.00  0.00    -0.283 N 
ATOM      9  C   UNL     1      36.792 -24.651 -15.421  0.00  0.00    +0.245 C 
ATOM     10  H   UNL     1      37.574 -22.784 -15.532  0.00  0.00    +0.155 HD
BRANCH   9  14
ATOM     11  O   UNL     1      37.296 -22.170 -13.117  0.00  0.00    -0.269 OA
ATOM     12  N   UNL     1      37.067 -24.486 -13.072  0.00  0.00    -0.237 N 
ATOM     13  N   UNL     1      35.957 -25.585 -11.270  0.00  0.00    -0.233 NA
ATOM     14  C   UNL     1      37.755 -24.854 -14.290  0.00  0.00    +0.158 C 
ATOM     15  C   UNL     1      38.082 -26.326 -14.086  0.00  0.00    +0.037 C 
ATOM     16  C   UNL     1      36.983 -26.839 -13.152  0.00  0.00    +0.064 C 
ATOM     17  C   UNL     1      36.609 -25.607 -12.385  0.00  0.00    +0.115 C 
ATOM     18  C   UNL     1      36.897 -23.203 -12.591  0.00  0.00    +0.256 C 
ATOM     19  C   UNL     1      36.145 -23.169 -11.310  0.00  0.00    +0.079 C 
ATOM     20  C   UNL     1      35.741 -24.325 -10.762  0.00  0.00    +0.105 C 
ENDBRANCH   9  14
ENDBRANCH   4   8
BRANCH   1  21
ATOM     21  C   UNL     1      33.928 -21.134 -20.261  0.00  0.00    +0.005 C 
BRANCH  21  24
ATOM     22  N   UNL     1      34.328 -18.987 -21.434  0.00  0.00    +0.388 N 
ATOM     23  C   UNL     1      35.465 -18.289 -22.054  0.00  0.00    -0.030 C 
ATOM     24  C   UNL     1      34.807 -20.362 -21.231  0.00  0.00    -0.057 C 
ATOM     25  C   UNL     1      36.713 -18.900 -21.416  0.00  0.00    -0.021 C 
ATOM     26  C   UNL     1      36.228 -20.167 -20.720  0.00  0.00    -0.023 C 
ATOM     27  H   UNL     1      33.518 -18.976 -22.053  0.00  0.00    -0.084 HD
ATOM     28  H   UNL     1      34.031 -18.547 -20.564  0.00  0.00    -0.084 HD
BRANCH  23  29
ATOM     29  C   UNL     1      35.376 -16.782 -21.858  0.00  0.00    +0.113 C 
BRANCH  29  30
ATOM     30  C   UNL     1      34.703 -16.093 -23.023  0.00  0.00    +0.002 C 
ATOM     31  C   UNL     1      34.528 -16.772 -24.229  0.00  0.00    -0.002 C 
ATOM     32  C   UNL     1      34.257 -14.778 -22.893  0.00  0.00    -0.002 C 
ATOM     33  C   UNL     1      33.908 -16.137 -25.304  0.00  0.00    -0.000 C 
ATOM     34  C   UNL     1      33.637 -14.141 -23.968  0.00  0.00    -0.000 C 
ATOM     35  C   UNL     1      33.462 -14.821 -25.174  0.00  0.00    -0.000 C 
ENDBRANCH  29  30
BRANCH  29  36
ATOM     36  O   UNL     1      34.650 -16.493 -20.664  0.00  0.00    -0.382 OA
ATOM     37  H   UNL     1      34.418 -15.551 -20.646  0.00  0.00    +0.211 HD
ENDBRANCH  29  36
ENDBRANCH  23  29
ENDBRANCH  21  24
ENDBRANCH   1  21
TORSDOF 7
ENDMDL
