MODEL 1
REMARK VINA RESULT:     -12.1      0.000      0.000
REMARK  Name = 5289110
REMARK  6 active torsions:
REMARK  status: ('A' for Active; 'I' for Inactive)
REMARK    1  A    between atoms: C_3  and  C_9
REMARK    2  A    between atoms: C_4  and  C_22
REMARK    3  A    between atoms: N_8  and  C_11
REMARK    4  A    between atoms: C_11  and  C_13
REMARK    5  A    between atoms: N_21  and  C_24
REMARK    6  A    between atoms: C_24  and  C_26
REMARK                            x       y       z     vdW  Elec       q    Type
REMARK                         _______ _______ _______ _____ _____    ______ ____
ROOT
ATOM      1  N   UNL     1      34.804 -19.762 -23.602  0.00  0.00    -0.244 NA
ATOM      2  N   UNL     1      33.952 -18.107 -25.132  0.00  0.00    -0.244 NA
ATOM      3  C   UNL     1      35.207 -18.758 -22.798  0.00  0.00    +0.115 C 
ATOM      4  C   UNL     1      34.388 -17.184 -24.270  0.00  0.00    +0.115 C 
ATOM      5  C   UNL     1      35.022 -17.421 -23.087  0.00  0.00    +0.100 C 
ATOM      6  C   UNL     1      34.192 -19.371 -24.736  0.00  0.00    +0.250 C 
ENDROOT
BRANCH   3   9
ATOM      7  O   UNL     1      36.570 -18.350 -20.933  0.00  0.00    -0.269 OA
ATOM      8  N   UNL     1      35.660 -20.473 -21.132  0.00  0.00    -0.296 N 
ATOM      9  C   UNL     1      35.869 -19.158 -21.568  0.00  0.00    +0.260 C 
ATOM     10  H   UNL     1      35.093 -21.060 -21.682  0.00  0.00    +0.150 HD
BRANCH   8  11
ATOM     11  C   UNL     1      36.229 -21.014 -19.919  0.00  0.00    +0.117 C 
BRANCH  11  13
ATOM     12  F   UNL     1      32.403 -23.782 -16.867  0.00  0.00    -0.205 F 
ATOM     13  C   UNL     1      35.209 -21.753 -19.101  0.00  0.00    -0.003 C 
ATOM     14  C   UNL     1      35.573 -22.299 -17.876  0.00  0.00    -0.005 C 
ATOM     15  C   UNL     1      34.626 -22.986 -17.117  0.00  0.00    +0.005 C 
ATOM     16  C   UNL     1      33.910 -21.885 -19.578  0.00  0.00    -0.000 C 
ATOM     17  C   UNL     1      33.320 -23.123 -17.589  0.00  0.00    +0.136 C 
ATOM     18  C   UNL     1      32.962 -22.571 -18.819  0.00  0.00    +0.029 C 
ATOM     19  C   UNL     1      35.012 -23.572 -15.801  0.00  0.00    +0.033 C 
ENDBRANCH  11  13
ENDBRANCH   8  11
ENDBRANCH   3   9
BRANCH   4  22
ATOM     20  O   UNL     1      33.774 -15.555 -25.842  0.00  0.00    -0.269 OA
ATOM     21  N   UNL     1      34.305 -14.813 -23.710  0.00  0.00    -0.296 N 
ATOM     22  C   UNL     1      34.134 -15.781 -24.689  0.00  0.00    +0.260 C 
ATOM     23  H   UNL     1      34.596 -15.094 -22.812  0.00  0.00    +0.150 HD
BRANCH  21  24
ATOM     24  C   UNL     1      34.074 -13.412 -23.955  0.00  0.00    +0.117 C 
BRANCH  24  26
ATOM     25  F   UNL     1      30.508 -11.164 -20.235  0.00  0.00    -0.205 F 
ATOM     26  C   UNL     1      33.127 -12.812 -22.969  0.00  0.00    -0.003 C 
ATOM     27  C   UNL     1      32.679 -11.503 -23.140  0.00  0.00    -0.005 C 
ATOM     28  C   UNL     1      31.795 -10.943 -22.218  0.00  0.00    +0.005 C 
ATOM     29  C   UNL     1      32.690 -13.563 -21.878  0.00  0.00    -0.000 C 
ATOM     30  C   UNL     1      31.358 -11.693 -21.126  0.00  0.00    +0.136 C 
ATOM     31  C   UNL     1      31.806 -13.003 -20.956  0.00  0.00    +0.029 C 
ATOM     32  C   UNL     1      31.317  -9.542 -22.403  0.00  0.00    +0.033 C 
ENDBRANCH  24  26
ENDBRANCH  21  24
ENDBRANCH   4  22
TORSDOF 6
ENDMDL
MODEL 2
REMARK VINA RESULT:     -12.0      3.531      5.777
REMARK  Name = 5289110
REMARK  6 active torsions:
REMARK  status: ('A' for Active; 'I' for Inactive)
REMARK    1  A    between atoms: C_3  and  C_9
REMARK    2  A    between atoms: C_4  and  C_22
REMARK    3  A    between atoms: N_8  and  C_11
REMARK    4  A    between atoms: C_11  and  C_13
REMARK    5  A    between atoms: N_21  and  C_24
REMARK    6  A    between atoms: C_24  and  C_26
REMARK                            x       y       z     vdW  Elec       q    Type
REMARK                         _______ _______ _______ _____ _____    ______ ____
ROOT
ATOM      1  N   UNL     1      32.921 -14.158 -23.078  0.00  0.00    -0.244 NA
ATOM      2  N   UNL     1      33.058 -11.761 -23.277  0.00  0.00    -0.244 NA
ATOM      3  C   UNL     1      33.615 -14.256 -24.230  0.00  0.00    +0.115 C 
ATOM      4  C   UNL     1      33.739 -11.960 -24.408  0.00  0.00    +0.115 C 
ATOM      5  C   UNL     1      34.060 -13.168 -24.954  0.00  0.00    +0.100 C 
ATOM      6  C   UNL     1      32.680 -12.899 -22.666  0.00  0.00    +0.250 C 
ENDROOT
BRANCH   3   9
ATOM      7  O   UNL     1      33.592 -15.950 -25.852  0.00  0.00    -0.269 OA
ATOM      8  N   UNL     1      34.507 -16.477 -23.788  0.00  0.00    -0.296 N 
ATOM      9  C   UNL     1      33.887 -15.606 -24.693  0.00  0.00    +0.260 C 
ATOM     10  H   UNL     1      34.712 -16.140 -22.886  0.00  0.00    +0.150 HD
BRANCH   8  11
ATOM     11  C   UNL     1      34.862 -17.841 -24.105  0.00  0.00    +0.117 C 
BRANCH  11  13
ATOM     12  F   UNL     1      36.177 -20.790 -19.502  0.00  0.00    -0.205 F 
ATOM     13  C   UNL     1      35.210 -18.631 -22.876  0.00  0.00    -0.003 C 
ATOM     14  C   UNL     1      34.227 -19.372 -22.232  0.00  0.00    -0.005 C 
ATOM     15  C   UNL     1      34.550 -20.105 -21.090  0.00  0.00    +0.005 C 
ATOM     16  C   UNL     1      36.514 -18.611 -22.393  0.00  0.00    -0.000 C 
ATOM     17  C   UNL     1      35.857 -20.090 -20.599  0.00  0.00    +0.136 C 
ATOM     18  C   UNL     1      36.838 -19.344 -21.251  0.00  0.00    +0.029 C 
ATOM     19  C   UNL     1      33.499 -20.903 -20.397  0.00  0.00    +0.033 C 
ENDBRANCH  11  13
ENDBRANCH   8  11
ENDBRANCH   3   9
BRANCH   4  22
ATOM     20  O   UNL     1      33.722 -10.472 -26.221  0.00  0.00    -0.269 OA
ATOM     21  N   UNL     1      35.031  -9.893 -24.396  0.00  0.00    -0.296 N 
ATOM     22  C   UNL     1      34.163 -10.716 -25.100  0.00  0.00    +0.260 C 
ATOM     23  H   UNL     1      35.329 -10.175 -23.501  0.00  0.00    +0.150 HD
BRANCH  21  24
ATOM     24  C   UNL     1      35.512  -8.641 -24.923  0.00  0.00    +0.117 C 
BRANCH  24  26
ATOM     25  F   UNL     1      32.312  -4.298 -23.344  0.00  0.00    -0.205 F 
ATOM     26  C   UNL     1      34.664  -7.487 -24.507  0.00  0.00    -0.003 C 
ATOM     27  C   UNL     1      34.536  -6.377 -25.342  0.00  0.00    -0.005 C 
ATOM     28  C   UNL     1      33.742  -5.298 -24.952  0.00  0.00    +0.005 C 
ATOM     29  C   UNL     1      33.997  -7.518 -23.282  0.00  0.00    -0.000 C 
ATOM     30  C   UNL     1      33.077  -5.330 -23.727  0.00  0.00    +0.136 C 
ATOM     31  C   UNL     1      33.204  -6.439 -22.892  0.00  0.00    +0.029 C 
ATOM     32  C   UNL     1      33.608  -4.114 -25.848  0.00  0.00    +0.033 C 
ENDBRANCH  24  26
ENDBRANCH  21  24
ENDBRANCH   4  22
TORSDOF 6
ENDMDL
MODEL 3
REMARK VINA RESULT:     -12.0      3.521     11.634
REMARK  Name = 5289110
REMARK  6 active torsions:
REMARK  status: ('A' for Active; 'I' for Inactive)
REMARK    1  A    between atoms: C_3  and  C_9
REMARK    2  A    between atoms: C_4  and  C_22
REMARK    3  A    between atoms: N_8  and  C_11
REMARK    4  A    between atoms: C_11  and  C_13
REMARK    5  A    between atoms: N_21  and  C_24
REMARK    6  A    between atoms: C_24  and  C_26
REMARK                            x       y       z     vdW  Elec       q    Type
REMARK                         _______ _______ _______ _____ _____    ______ ____
ROOT
ATOM      1  N   UNL     1      33.075 -11.783 -23.287  0.00  0.00    -0.244 NA
ATOM      2  N   UNL     1      32.927 -14.180 -23.080  0.00  0.00    -0.244 NA
ATOM      3  C   UNL     1      33.765 -11.962 -24.432  0.00  0.00    +0.115 C 
ATOM      4  C   UNL     1      33.615 -14.254 -24.223  0.00  0.00    +0.115 C 
ATOM      5  C   UNL     1      34.069 -13.201 -24.960  0.00  0.00    +0.100 C 
ATOM      6  C   UNL     1      32.693 -12.918 -22.671  0.00  0.00    +0.250 C 
ENDROOT
BRANCH   3   9
ATOM      7  O   UNL     1      33.818 -10.517 -26.278  0.00  0.00    -0.269 OA
ATOM      8  N   UNL     1      34.997  -9.864 -24.392  0.00  0.00    -0.296 N 
ATOM      9  C   UNL     1      34.186 -10.750 -25.113  0.00  0.00    +0.260 C 
ATOM     10  H   UNL     1      35.252 -10.110 -23.474  0.00  0.00    +0.150 HD
BRANCH   8  11
ATOM     11  C   UNL     1      35.479  -8.609 -24.921  0.00  0.00    +0.117 C 
BRANCH  11  13
ATOM     12  F   UNL     1      32.279  -4.283 -23.292  0.00  0.00    -0.205 F 
ATOM     13  C   UNL     1      34.624  -7.452 -24.489  0.00  0.00    -0.003 C 
ATOM     14  C   UNL     1      34.501  -6.341 -25.314  0.00  0.00    -0.005 C 
ATOM     15  C   UNL     1      33.707  -5.267 -24.913  0.00  0.00    +0.005 C 
ATOM     16  C   UNL     1      33.965  -7.504 -23.265  0.00  0.00    -0.000 C 
ATOM     17  C   UNL     1      33.042  -5.311 -23.687  0.00  0.00    +0.136 C 
ATOM     18  C   UNL     1      33.171  -6.429 -22.864  0.00  0.00    +0.029 C 
ATOM     19  C   UNL     1      33.570  -4.073 -25.796  0.00  0.00    +0.033 C 
ENDBRANCH  11  13
ENDBRANCH   8  11
ENDBRANCH   3   9
BRANCH   4  22
ATOM     20  O   UNL     1      33.600 -15.947 -25.846  0.00  0.00    -0.269 OA
ATOM     21  N   UNL     1      34.475 -16.489 -23.768  0.00  0.00    -0.296 N 
ATOM     22  C   UNL     1      33.885 -15.638 -24.691  0.00  0.00    +0.260 C 
ATOM     23  H   UNL     1      34.666 -16.148 -22.864  0.00  0.00    +0.150 HD
BRANCH  21  24
ATOM     24  C   UNL     1      34.820 -17.853 -24.080  0.00  0.00    +0.117 C 
BRANCH  24  26
ATOM     25  F   UNL     1      36.121 -20.829 -19.491  0.00  0.00    -0.205 F 
ATOM     26  C   UNL     1      35.162 -18.644 -22.862  0.00  0.00    -0.003 C 
ATOM     27  C   UNL     1      34.172 -19.368 -22.199  0.00  0.00    -0.005 C 
ATOM     28  C   UNL     1      34.492 -20.107 -21.060  0.00  0.00    +0.005 C 
ATOM     29  C   UNL     1      36.473 -18.660 -22.386  0.00  0.00    -0.000 C 
ATOM     30  C   UNL     1      35.803 -20.122 -20.585  0.00  0.00    +0.136 C 
ATOM     31  C   UNL     1      36.794 -19.398 -21.248  0.00  0.00    +0.029 C 
ATOM     32  C   UNL     1      33.430 -20.881 -20.354  0.00  0.00    +0.033 C 
ENDBRANCH  24  26
ENDBRANCH  21  24
ENDBRANCH   4  22
TORSDOF 6
ENDMDL
MODEL 4
REMARK VINA RESULT:     -11.8      2.473     10.540
REMARK  Name = 5289110
REMARK  6 active torsions:
REMARK  status: ('A' for Active; 'I' for Inactive)
REMARK    1  A    between atoms: C_3  and  C_9
REMARK    2  A    between atoms: C_4  and  C_22
REMARK    3  A    between atoms: N_8  and  C_11
REMARK    4  A    between atoms: C_11  and  C_13
REMARK    5  A    between atoms: N_21  and  C_24
REMARK    6  A    between atoms: C_24  and  C_26
REMARK                            x       y       z     vdW  Elec       q    Type
REMARK                         _______ _______ _______ _____ _____    ______ ____
ROOT
ATOM      1  N   UNL     1      32.924 -13.201 -24.803  0.00  0.00    -0.244 NA
ATOM      2  N   UNL     1      33.909 -15.153 -25.814  0.00  0.00    -0.244 NA
ATOM      3  C   UNL     1      33.100 -13.780 -23.599  0.00  0.00    +0.115 C 
ATOM      4  C   UNL     1      34.042 -15.644 -24.579  0.00  0.00    +0.115 C 
ATOM      5  C   UNL     1      33.667 -15.027 -23.423  0.00  0.00    +0.100 C 
ATOM      6  C   UNL     1      33.344 -13.932 -25.853  0.00  0.00    +0.250 C 
ENDROOT
BRANCH   3   9
ATOM      7  O   UNL     1      32.820 -13.436 -21.296  0.00  0.00    -0.269 OA
ATOM      8  N   UNL     1      32.058 -11.768 -22.714  0.00  0.00    -0.296 N 
ATOM      9  C   UNL     1      32.654 -13.008 -22.452  0.00  0.00    +0.260 C 
ATOM     10  H   UNL     1      31.957 -11.490 -23.653  0.00  0.00    +0.150 HD
BRANCH   8  11
ATOM     11  C   UNL     1      31.584 -10.874 -21.682  0.00  0.00    +0.117 C 
BRANCH  11  13
ATOM     12  F   UNL     1      32.993  -5.530 -22.710  0.00  0.00    -0.205 F 
ATOM     13  C   UNL     1      31.959  -9.447 -21.960  0.00  0.00    -0.003 C 
ATOM     14  C   UNL     1      31.940  -8.971 -23.265  0.00  0.00    -0.005 C 
ATOM     15  C   UNL     1      32.288  -7.645 -23.523  0.00  0.00    +0.005 C 
ATOM     16  C   UNL     1      32.324  -8.615 -20.907  0.00  0.00    -0.000 C 
ATOM     17  C   UNL     1      32.655  -6.804 -22.472  0.00  0.00    +0.136 C 
ATOM     18  C   UNL     1      32.672  -7.289 -21.165  0.00  0.00    +0.029 C 
ATOM     19  C   UNL     1      32.267  -7.130 -24.923  0.00  0.00    +0.033 C 
ENDBRANCH  11  13
ENDBRANCH   8  11
ENDBRANCH   3   9
BRANCH   4  22
ATOM     20  O   UNL     1      34.629 -17.717 -25.506  0.00  0.00    -0.269 OA
ATOM     21  N   UNL     1      35.269 -17.327 -23.312  0.00  0.00    -0.296 N 
ATOM     22  C   UNL     1      34.663 -16.992 -24.514  0.00  0.00    +0.260 C 
ATOM     23  H   UNL     1      35.243 -16.677 -22.572  0.00  0.00    +0.150 HD
BRANCH  21  24
ATOM     24  C   UNL     1      35.933 -18.588 -23.102  0.00  0.00    +0.117 C 
BRANCH  24  26
ATOM     25  F   UNL     1      33.390 -21.708 -19.178  0.00  0.00    -0.205 F 
ATOM     26  C   UNL     1      35.261 -19.416 -22.059  0.00  0.00    -0.003 C 
ATOM     27  C   UNL     1      36.025 -20.120 -21.128  0.00  0.00    -0.005 C 
ATOM     28  C   UNL     1      35.395 -20.895 -20.154  0.00  0.00    +0.005 C 
ATOM     29  C   UNL     1      33.869 -19.487 -22.015  0.00  0.00    -0.000 C 
ATOM     30  C   UNL     1      34.003 -20.966 -20.110  0.00  0.00    +0.136 C 
ATOM     31  C   UNL     1      33.240 -20.262 -21.042  0.00  0.00    +0.029 C 
ATOM     32  C   UNL     1      36.215 -21.647 -19.159  0.00  0.00    +0.033 C 
ENDBRANCH  24  26
ENDBRANCH  21  24
ENDBRANCH   4  22
TORSDOF 6
ENDMDL
MODEL 5
REMARK VINA RESULT:     -11.8      2.824      4.031
REMARK  Name = 5289110
REMARK  6 active torsions:
REMARK  status: ('A' for Active; 'I' for Inactive)
REMARK    1  A    between atoms: C_3  and  C_9
REMARK    2  A    between atoms: C_4  and  C_22
REMARK    3  A    between atoms: N_8  and  C_11
REMARK    4  A    between atoms: C_11  and  C_13
REMARK    5  A    between atoms: N_21  and  C_24
REMARK    6  A    between atoms: C_24  and  C_26
REMARK                            x       y       z     vdW  Elec       q    Type
REMARK                         _______ _______ _______ _____ _____    ______ ____
ROOT
ATOM      1  N   UNL     1      34.472 -15.392 -21.677  0.00  0.00    -0.244 NA
ATOM      2  N   UNL     1      33.893 -13.247 -22.612  0.00  0.00    -0.244 NA
ATOM      3  C   UNL     1      34.665 -15.845 -22.932  0.00  0.00    +0.115 C 
ATOM      4  C   UNL     1      34.109 -13.788 -23.814  0.00  0.00    +0.115 C 
ATOM      5  C   UNL     1      34.496 -15.071 -24.063  0.00  0.00    +0.100 C 
ATOM      6  C   UNL     1      34.092 -14.103 -21.591  0.00  0.00    +0.250 C 
ENDROOT
BRANCH   3   9
ATOM      7  O   UNL     1      35.141 -17.785 -24.161  0.00  0.00    -0.269 OA
ATOM      8  N   UNL     1      35.410 -17.899 -21.861  0.00  0.00    -0.296 N 
ATOM      9  C   UNL     1      35.076 -17.234 -23.048  0.00  0.00    +0.260 C 
ATOM     10  H   UNL     1      35.336 -17.404 -21.014  0.00  0.00    +0.150 HD
BRANCH   8  11
ATOM     11  C   UNL     1      35.858 -19.272 -21.812  0.00  0.00    +0.117 C 
BRANCH  11  13
ATOM     12  F   UNL     1      32.458 -22.477 -18.685  0.00  0.00    -0.205 F 
ATOM     13  C   UNL     1      34.952 -20.129 -20.975  0.00  0.00    -0.003 C 
ATOM     14  C   UNL     1      35.496 -20.970 -20.012  0.00  0.00    -0.005 C 
ATOM     15  C   UNL     1      34.655 -21.766 -19.234  0.00  0.00    +0.005 C 
ATOM     16  C   UNL     1      33.577 -20.073 -21.172  0.00  0.00    -0.000 C 
ATOM     17  C   UNL     1      33.274 -21.716 -19.426  0.00  0.00    +0.136 C 
ATOM     18  C   UNL     1      32.735 -20.869 -20.395  0.00  0.00    +0.029 C 
ATOM     19  C   UNL     1      35.235 -22.669 -18.198  0.00  0.00    +0.033 C 
ENDBRANCH  11  13
ENDBRANCH   8  11
ENDBRANCH   3   9
BRANCH   4  22
ATOM     20  O   UNL     1      33.234 -13.239 -25.919  0.00  0.00    -0.269 OA
ATOM     21  N   UNL     1      34.452 -11.596 -24.825  0.00  0.00    -0.296 N 
ATOM     22  C   UNL     1      33.894 -12.860 -24.954  0.00  0.00    +0.260 C 
ATOM     23  H   UNL     1      34.965 -11.386 -24.012  0.00  0.00    +0.150 HD
BRANCH  21  24
ATOM     24  C   UNL     1      34.309 -10.579 -25.835  0.00  0.00    +0.117 C 
BRANCH  24  26
ATOM     25  F   UNL     1      33.575  -5.464 -23.620  0.00  0.00    -0.205 F 
ATOM     26  C   UNL     1      34.111  -9.221 -25.248  0.00  0.00    -0.003 C 
ATOM     27  C   UNL     1      32.904  -8.548 -25.437  0.00  0.00    -0.005 C 
ATOM     28  C   UNL     1      32.720  -7.279 -24.889  0.00  0.00    +0.005 C 
ATOM     29  C   UNL     1      35.133  -8.626 -24.510  0.00  0.00    -0.000 C 
ATOM     30  C   UNL     1      33.743  -6.684 -24.151  0.00  0.00    +0.136 C 
ATOM     31  C   UNL     1      34.950  -7.357 -23.962  0.00  0.00    +0.029 C 
ATOM     32  C   UNL     1      31.428  -6.562 -25.092  0.00  0.00    +0.033 C 
ENDBRANCH  24  26
ENDBRANCH  21  24
ENDBRANCH   4  22
TORSDOF 6
ENDMDL
MODEL 6
REMARK VINA RESULT:     -11.8      2.478      4.265
REMARK  Name = 5289110
REMARK  6 active torsions:
REMARK  status: ('A' for Active; 'I' for Inactive)
REMARK    1  A    between atoms: C_3  and  C_9
REMARK    2  A    between atoms: C_4  and  C_22
REMARK    3  A    between atoms: N_8  and  C_11
REMARK    4  A    between atoms: C_11  and  C_13
REMARK    5  A    between atoms: N_21  and  C_24
REMARK    6  A    between atoms: C_24  and  C_26
REMARK                            x       y       z     vdW  Elec       q    Type
REMARK                         _______ _______ _______ _____ _____    ______ ____
ROOT
ATOM      1  N   UNL     1      33.917 -15.163 -25.710  0.00  0.00    -0.244 NA
ATOM      2  N   UNL     1      32.886 -13.212 -24.741  0.00  0.00    -0.244 NA
ATOM      3  C   UNL     1      34.065 -15.658 -24.465  0.00  0.00    +0.115 C 
ATOM      4  C   UNL     1      33.077 -13.786 -23.550  0.00  0.00    +0.115 C 
ATOM      5  C   UNL     1      33.655 -15.000 -23.323  0.00  0.00    +0.100 C 
ATOM      6  C   UNL     1      33.329 -13.953 -25.774  0.00  0.00    +0.250 C 
ENDROOT
BRANCH   3   9
ATOM      7  O   UNL     1      34.619 -17.773 -25.314  0.00  0.00    -0.269 OA
ATOM      8  N   UNL     1      35.406 -17.245 -23.199  0.00  0.00    -0.296 N 
ATOM      9  C   UNL     1      34.697 -16.963 -24.373  0.00  0.00    +0.260 C 
ATOM     10  H   UNL     1      35.429 -16.560 -22.493  0.00  0.00    +0.150 HD
BRANCH   8  11
ATOM     11  C   UNL     1      36.107 -18.488 -22.966  0.00  0.00    +0.117 C 
BRANCH  11  13
ATOM     12  F   UNL     1      33.425 -21.742 -19.248  0.00  0.00    -0.205 F 
ATOM     13  C   UNL     1      35.393 -19.357 -21.971  0.00  0.00    -0.003 C 
ATOM     14  C   UNL     1      36.125 -20.065 -21.025  0.00  0.00    -0.005 C 
ATOM     15  C   UNL     1      35.463 -20.872 -20.101  0.00  0.00    +0.005 C 
ATOM     16  C   UNL     1      34.006 -19.447 -22.007  0.00  0.00    -0.000 C 
ATOM     17  C   UNL     1      34.071 -20.968 -20.130  0.00  0.00    +0.136 C 
ATOM     18  C   UNL     1      33.343 -20.254 -21.083  0.00  0.00    +0.029 C 
ATOM     19  C   UNL     1      36.244 -21.633 -19.083  0.00  0.00    +0.033 C 
ENDBRANCH  11  13
ENDBRANCH   8  11
ENDBRANCH   3   9
BRANCH   4  22
ATOM     20  O   UNL     1      32.711 -13.439 -21.259  0.00  0.00    -0.269 OA
ATOM     21  N   UNL     1      32.067 -11.738 -22.697  0.00  0.00    -0.296 N 
ATOM     22  C   UNL     1      32.598 -12.983 -22.395  0.00  0.00    +0.260 C 
ATOM     23  H   UNL     1      32.019 -11.460 -23.641  0.00  0.00    +0.150 HD
BRANCH  21  24
ATOM     24  C   UNL     1      31.582 -10.834 -21.685  0.00  0.00    +0.117 C 
BRANCH  24  26
ATOM     25  F   UNL     1      32.753  -5.464 -22.867  0.00  0.00    -0.205 F 
ATOM     26  C   UNL     1      31.892  -9.409 -22.002  0.00  0.00    -0.003 C 
ATOM     27  C   UNL     1      31.616  -8.900 -23.270  0.00  0.00    -0.005 C 
ATOM     28  C   UNL     1      31.905  -7.568 -23.566  0.00  0.00    +0.005 C 
ATOM     29  C   UNL     1      32.457  -8.586 -21.028  0.00  0.00    -0.000 C 
ATOM     30  C   UNL     1      32.471  -6.745 -22.592  0.00  0.00    +0.136 C 
ATOM     31  C   UNL     1      32.748  -7.254 -21.323  0.00  0.00    +0.029 C 
ATOM     32  C   UNL     1      31.608  -7.027 -24.924  0.00  0.00    +0.033 C 
ENDBRANCH  24  26
ENDBRANCH  21  24
ENDBRANCH   4  22
TORSDOF 6
ENDMDL
MODEL 7
REMARK VINA RESULT:     -11.7      5.713      9.084
REMARK  Name = 5289110
REMARK  6 active torsions:
REMARK  status: ('A' for Active; 'I' for Inactive)
REMARK    1  A    between atoms: C_3  and  C_9
REMARK    2  A    between atoms: C_4  and  C_22
REMARK    3  A    between atoms: N_8  and  C_11
REMARK    4  A    between atoms: C_11  and  C_13
REMARK    5  A    between atoms: N_21  and  C_24
REMARK    6  A    between atoms: C_24  and  C_26
REMARK                            x       y       z     vdW  Elec       q    Type
REMARK                         _______ _______ _______ _____ _____    ______ ____
ROOT
ATOM      1  N   UNL     1      36.525 -24.644 -13.650  0.00  0.00    -0.244 NA
ATOM      2  N   UNL     1      37.886 -23.629 -15.360  0.00  0.00    -0.244 NA
ATOM      3  C   UNL     1      35.491 -23.893 -14.078  0.00  0.00    +0.115 C 
ATOM      4  C   UNL     1      36.804 -22.929 -15.711  0.00  0.00    +0.115 C 
ATOM      5  C   UNL     1      35.574 -22.999 -15.127  0.00  0.00    +0.100 C 
ATOM      6  C   UNL     1      37.676 -24.464 -14.325  0.00  0.00    +0.250 C 
ENDROOT
BRANCH   3   9
ATOM      7  O   UNL     1      34.206 -24.699 -12.289  0.00  0.00    -0.269 OA
ATOM      8  N   UNL     1      33.096 -23.491 -13.927  0.00  0.00    -0.296 N 
ATOM      9  C   UNL     1      34.239 -24.072 -13.363  0.00  0.00    +0.260 C 
ATOM     10  H   UNL     1      33.192 -23.008 -14.780  0.00  0.00    +0.150 HD
BRANCH   8  11
ATOM     11  C   UNL     1      31.783 -23.561 -13.327  0.00  0.00    +0.117 C 
BRANCH  11  13
ATOM     12  F   UNL     1      27.865 -25.186 -17.016  0.00  0.00    -0.205 F 
ATOM     13  C   UNL     1      30.737 -23.992 -14.314  0.00  0.00    -0.003 C 
ATOM     14  C   UNL     1      29.960 -23.035 -14.956  0.00  0.00    -0.005 C 
ATOM     15  C   UNL     1      28.988 -23.435 -15.872  0.00  0.00    +0.005 C 
ATOM     16  C   UNL     1      30.553 -25.345 -14.573  0.00  0.00    -0.000 C 
ATOM     17  C   UNL     1      28.798 -24.792 -16.139  0.00  0.00    +0.136 C 
ATOM     18  C   UNL     1      29.581 -25.746 -15.490  0.00  0.00    +0.029 C 
ATOM     19  C   UNL     1      28.153 -22.411 -16.566  0.00  0.00    +0.033 C 
ENDBRANCH  11  13
ENDBRANCH   8  11
ENDBRANCH   3   9
BRANCH   4  22
ATOM     20  O   UNL     1      37.589 -20.930 -16.655  0.00  0.00    -0.269 OA
ATOM     21  N   UNL     1      36.553 -22.434 -18.084  0.00  0.00    -0.296 N 
ATOM     22  C   UNL     1      37.015 -21.999 -16.850  0.00  0.00    +0.260 C 
ATOM     23  H   UNL     1      36.103 -23.308 -18.140  0.00  0.00    +0.150 HD
BRANCH  21  24
ATOM     24  C   UNL     1      36.704 -21.656 -19.288  0.00  0.00    +0.117 C 
BRANCH  24  26
ATOM     25  F   UNL     1      31.754 -20.109 -21.457  0.00  0.00    -0.205 F 
ATOM     26  C   UNL     1      35.392 -21.243 -19.866  0.00  0.00    -0.003 C 
ATOM     27  C   UNL     1      35.351 -20.371 -20.953  0.00  0.00    -0.005 C 
ATOM     28  C   UNL     1      34.124 -19.986 -21.492  0.00  0.00    +0.005 C 
ATOM     29  C   UNL     1      34.205 -21.732 -19.319  0.00  0.00    -0.000 C 
ATOM     30  C   UNL     1      32.938 -20.474 -20.945  0.00  0.00    +0.136 C 
ATOM     31  C   UNL     1      32.978 -21.346 -19.858  0.00  0.00    +0.029 C 
ATOM     32  C   UNL     1      34.084 -19.052 -22.655  0.00  0.00    +0.033 C 
ENDBRANCH  24  26
ENDBRANCH  21  24
ENDBRANCH   4  22
TORSDOF 6
ENDMDL
MODEL 8
REMARK VINA RESULT:     -11.7      5.717     10.768
REMARK  Name = 5289110
REMARK  6 active torsions:
REMARK  status: ('A' for Active; 'I' for Inactive)
REMARK    1  A    between atoms: C_3  and  C_9
REMARK    2  A    between atoms: C_4  and  C_22
REMARK    3  A    between atoms: N_8  and  C_11
REMARK    4  A    between atoms: C_11  and  C_13
REMARK    5  A    between atoms: N_21  and  C_24
REMARK    6  A    between atoms: C_24  and  C_26
REMARK                            x       y       z     vdW  Elec       q    Type
REMARK                         _______ _______ _______ _____ _____    ______ ____
ROOT
ATOM      1  N   UNL     1      37.869 -23.663 -15.341  0.00  0.00    -0.244 NA
ATOM      2  N   UNL     1      36.503 -24.675 -13.632  0.00  0.00    -0.244 NA
ATOM      3  C   UNL     1      36.799 -22.928 -15.708  0.00  0.00    +0.115 C 
ATOM      4  C   UNL     1      35.504 -23.904 -14.068  0.00  0.00    +0.115 C 
ATOM      5  C   UNL     1      35.565 -23.008 -15.094  0.00  0.00    +0.100 C 
ATOM      6  C   UNL     1      37.653 -24.505 -14.312  0.00  0.00    +0.250 C 
ENDROOT
BRANCH   3   9
ATOM      7  O   UNL     1      37.580 -20.922 -16.638  0.00  0.00    -0.269 OA
ATOM      8  N   UNL     1      36.564 -22.429 -18.078  0.00  0.00    -0.296 N 
ATOM      9  C   UNL     1      37.010 -22.013 -16.816  0.00  0.00    +0.260 C 
ATOM     10  H   UNL     1      36.121 -23.305 -18.148  0.00  0.00    +0.150 HD
BRANCH   8  11
ATOM     11  C   UNL     1      36.721 -21.644 -19.281  0.00  0.00    +0.117 C 
BRANCH  11  13
ATOM     12  F   UNL     1      31.759 -20.144 -21.457  0.00  0.00    -0.205 F 
ATOM     13  C   UNL     1      35.397 -21.242 -19.865  0.00  0.00    -0.003 C 
ATOM     14  C   UNL     1      35.357 -20.364 -20.941  0.00  0.00    -0.005 C 
ATOM     15  C   UNL     1      34.127 -19.991 -21.484  0.00  0.00    +0.005 C 
ATOM     16  C   UNL     1      34.223 -21.751 -19.321  0.00  0.00    -0.000 C 
ATOM     17  C   UNL     1      32.945 -20.498 -20.944  0.00  0.00    +0.136 C 
ATOM     18  C   UNL     1      32.993 -21.378 -19.863  0.00  0.00    +0.029 C 
ATOM     19  C   UNL     1      34.080 -19.051 -22.641  0.00  0.00    +0.033 C 
ENDBRANCH  11  13
ENDBRANCH   8  11
ENDBRANCH   3   9
BRANCH   4  22
ATOM     20  O   UNL     1      34.225 -24.687 -12.265  0.00  0.00    -0.269 OA
ATOM     21  N   UNL     1      33.104 -23.503 -13.915  0.00  0.00    -0.296 N 
ATOM     22  C   UNL     1      34.225 -24.078 -13.332  0.00  0.00    +0.260 C 
ATOM     23  H   UNL     1      33.206 -23.033 -14.774  0.00  0.00    +0.150 HD
BRANCH  21  24
ATOM     24  C   UNL     1      31.798 -23.565 -13.310  0.00  0.00    +0.117 C 
BRANCH  24  26
ATOM     25  F   UNL     1      27.832 -25.167 -16.959  0.00  0.00    -0.205 F 
ATOM     26  C   UNL     1      30.744 -23.987 -14.279  0.00  0.00    -0.003 C 
ATOM     27  C   UNL     1      29.949 -23.028 -14.907  0.00  0.00    -0.005 C 
ATOM     28  C   UNL     1      28.964 -23.424 -15.812  0.00  0.00    +0.005 C 
ATOM     29  C   UNL     1      30.556 -25.340 -14.558  0.00  0.00    -0.000 C 
ATOM     30  C   UNL     1      28.776 -24.778 -16.090  0.00  0.00    +0.136 C 
ATOM     31  C   UNL     1      29.571 -25.736 -15.463  0.00  0.00    +0.029 C 
ATOM     32  C   UNL     1      28.115 -22.396 -16.482  0.00  0.00    +0.033 C 
ENDBRANCH  24  26
ENDBRANCH  21  24
ENDBRANCH   4  22
TORSDOF 6
ENDMDL
MODEL 9
REMARK VINA RESULT:     -11.7      2.668     11.062
REMARK  Name = 5289110
REMARK  6 active torsions:
REMARK  status: ('A' for Active; 'I' for Inactive)
REMARK    1  A    between atoms: C_3  and  C_9
REMARK    2  A    between atoms: C_4  and  C_22
REMARK    3  A    between atoms: N_8  and  C_11
REMARK    4  A    between atoms: C_11  and  C_13
REMARK    5  A    between atoms: N_21  and  C_24
REMARK    6  A    between atoms: C_24  and  C_26
REMARK                            x       y       z     vdW  Elec       q    Type
REMARK                         _______ _______ _______ _____ _____    ______ ____
ROOT
ATOM      1  N   UNL     1      33.902 -13.243 -22.422  0.00  0.00    -0.244 NA
ATOM      2  N   UNL     1      34.406 -15.445 -21.583  0.00  0.00    -0.244 NA
ATOM      3  C   UNL     1      34.159 -13.698 -23.665  0.00  0.00    +0.115 C 
ATOM      4  C   UNL     1      34.638 -15.801 -22.849  0.00  0.00    +0.115 C 
ATOM      5  C   UNL     1      34.538 -14.996 -23.944  0.00  0.00    +0.100 C 
ATOM      6  C   UNL     1      34.044 -14.156 -21.442  0.00  0.00    +0.250 C 
ENDROOT
BRANCH   3   9
ATOM      7  O   UNL     1      33.397 -13.024 -25.778  0.00  0.00    -0.269 OA
ATOM      8  N   UNL     1      34.568 -11.461 -24.529  0.00  0.00    -0.296 N 
ATOM      9  C   UNL     1      34.011 -12.729 -24.737  0.00  0.00    +0.260 C 
ATOM     10  H   UNL     1      35.041 -11.294 -23.683  0.00  0.00    +0.150 HD
BRANCH   8  11
ATOM     11  C   UNL     1      34.486 -10.384 -25.489  0.00  0.00    +0.117 C 
BRANCH  11  13
ATOM     12  F   UNL     1      33.155  -5.493 -23.058  0.00  0.00    -0.205 F 
ATOM     13  C   UNL     1      34.128  -9.078 -24.839  0.00  0.00    -0.003 C 
ATOM     14  C   UNL     1      32.791  -8.737 -24.673  0.00  0.00    -0.005 C 
ATOM     15  C   UNL     1      32.458  -7.524 -24.069  0.00  0.00    +0.005 C 
ATOM     16  C   UNL     1      35.137  -8.223 -24.412  0.00  0.00    -0.000 C 
ATOM     17  C   UNL     1      33.465  -6.660 -23.637  0.00  0.00    +0.136 C 
ATOM     18  C   UNL     1      34.804  -7.011 -23.808  0.00  0.00    +0.029 C 
ATOM     19  C   UNL     1      31.024  -7.154 -23.887  0.00  0.00    +0.033 C 
ENDBRANCH  11  13
ENDBRANCH   8  11
ENDBRANCH   3   9
BRANCH   4  22
ATOM     20  O   UNL     1      35.106 -17.689 -24.160  0.00  0.00    -0.269 OA
ATOM     21  N   UNL     1      35.345 -17.917 -21.865  0.00  0.00    -0.296 N 
ATOM     22  C   UNL     1      35.042 -17.220 -23.026  0.00  0.00    +0.260 C 
ATOM     23  H   UNL     1      35.263 -17.453 -21.000  0.00  0.00    +0.150 HD
BRANCH  21  24
ATOM     24  C   UNL     1      35.774 -19.292 -21.875  0.00  0.00    +0.117 C 
BRANCH  24  26
ATOM     25  F   UNL     1      32.575 -22.547 -18.592  0.00  0.00    -0.205 F 
ATOM     26  C   UNL     1      34.928 -20.157 -21.002  0.00  0.00    -0.003 C 
ATOM     27  C   UNL     1      35.521 -20.953 -20.023  0.00  0.00    -0.005 C 
ATOM     28  C   UNL     1      34.729 -21.762 -19.207  0.00  0.00    +0.005 C 
ATOM     29  C   UNL     1      33.543 -20.168 -21.165  0.00  0.00    -0.000 C 
ATOM     30  C   UNL     1      33.344 -21.773 -19.371  0.00  0.00    +0.136 C 
ATOM     31  C   UNL     1      32.751 -20.977 -20.351  0.00  0.00    +0.029 C 
ATOM     32  C   UNL     1      35.367 -22.612 -18.160  0.00  0.00    +0.033 C 
ENDBRANCH  24  26
ENDBRANCH  21  24
ENDBRANCH   4  22
TORSDOF 6
ENDMDL
