MODEL 1
REMARK VINA RESULT:     -11.7      0.000      0.000
REMARK  Name = 5289109
REMARK  6 active torsions:
REMARK  status: ('A' for Active; 'I' for Inactive)
REMARK    1  A    between atoms: C_3  and  C_9
REMARK    2  A    between atoms: C_4  and  C_21
REMARK    3  A    between atoms: N_8  and  C_11
REMARK    4  A    between atoms: C_11  and  C_12
REMARK    5  A    between atoms: N_20  and  C_23
REMARK    6  A    between atoms: C_23  and  C_24
REMARK                            x       y       z     vdW  Elec       q    Type
REMARK                         _______ _______ _______ _____ _____    ______ ____
ROOT
ATOM      1  N   UNL     1      32.976 -11.680 -23.249  0.00  0.00    -0.244 NA
ATOM      2  N   UNL     1      32.831 -14.081 -23.114  0.00  0.00    -0.244 NA
ATOM      3  C   UNL     1      33.714 -11.825 -24.370  0.00  0.00    +0.115 C 
ATOM      4  C   UNL     1      33.567 -14.123 -24.226  0.00  0.00    +0.115 C 
ATOM      5  C   UNL     1      34.048 -13.049 -24.915  0.00  0.00    +0.100 C 
ATOM      6  C   UNL     1      32.573 -12.832 -22.682  0.00  0.00    +0.250 C 
ENDROOT
BRANCH   3   9
ATOM      7  O   UNL     1      33.841 -10.331 -26.173  0.00  0.00    -0.269 OA
ATOM      8  N   UNL     1      34.932  -9.724 -24.218  0.00  0.00    -0.296 N 
ATOM      9  C   UNL     1      34.159 -10.593 -24.999  0.00  0.00    +0.260 C 
ATOM     10  H   UNL     1      35.148  -9.993 -23.297  0.00  0.00    +0.150 HD
BRANCH   8  11
ATOM     11  C   UNL     1      35.429  -8.452 -24.693  0.00  0.00    +0.117 C 
BRANCH  11  12
ATOM     12  C   UNL     1      34.524  -7.317 -24.309  0.00  0.00    -0.003 C 
ATOM     13  C   UNL     1      34.395  -6.224 -25.157  0.00  0.00    -0.007 C 
ATOM     14  C   UNL     1      33.553  -5.170 -24.802  0.00  0.00    -0.022 C 
ATOM     15  C   UNL     1      33.824  -7.371 -23.109  0.00  0.00    -0.003 C 
ATOM     16  C   UNL     1      32.847  -5.216 -23.599  0.00  0.00    -0.004 C 
ATOM     17  C   UNL     1      32.983  -6.317 -22.753  0.00  0.00    -0.001 C 
ATOM     18  C   UNL     1      33.409  -3.992 -25.706  0.00  0.00    +0.031 C 
ENDBRANCH  11  12
ENDBRANCH   8  11
ENDBRANCH   3   9
BRANCH   4  21
ATOM     19  O   UNL     1      33.652 -15.764 -25.899  0.00  0.00    -0.269 OA
ATOM     20  N   UNL     1      34.392 -16.373 -23.787  0.00  0.00    -0.296 N 
ATOM     21  C   UNL     1      33.863 -15.492 -24.720  0.00  0.00    +0.260 C 
ATOM     22  H   UNL     1      34.525 -16.061 -22.863  0.00  0.00    +0.150 HD
BRANCH  20  23
ATOM     23  C   UNL     1      34.755 -17.728 -24.119  0.00  0.00    +0.117 C 
BRANCH  23  24
ATOM     24  C   UNL     1      35.128 -18.526 -22.915  0.00  0.00    -0.003 C 
ATOM     25  C   UNL     1      34.166 -19.302 -22.268  0.00  0.00    -0.007 C 
ATOM     26  C   UNL     1      34.514 -20.049 -21.142  0.00  0.00    -0.022 C 
ATOM     27  C   UNL     1      36.437 -18.496 -22.436  0.00  0.00    -0.003 C 
ATOM     28  C   UNL     1      35.824 -20.019 -20.664  0.00  0.00    -0.004 C 
ATOM     29  C   UNL     1      36.786 -19.243 -21.311  0.00  0.00    -0.001 C 
ATOM     30  C   UNL     1      33.486 -20.878 -20.450  0.00  0.00    +0.031 C 
ENDBRANCH  23  24
ENDBRANCH  20  23
ENDBRANCH   4  21
TORSDOF 6
ENDMDL
MODEL 2
REMARK VINA RESULT:     -11.6      0.123     10.716
REMARK  Name = 5289109
REMARK  6 active torsions:
REMARK  status: ('A' for Active; 'I' for Inactive)
REMARK    1  A    between atoms: C_3  and  C_9
REMARK    2  A    between atoms: C_4  and  C_21
REMARK    3  A    between atoms: N_8  and  C_11
REMARK    4  A    between atoms: C_11  and  C_12
REMARK    5  A    between atoms: N_20  and  C_23
REMARK    6  A    between atoms: C_23  and  C_24
REMARK                            x       y       z     vdW  Elec       q    Type
REMARK                         _______ _______ _______ _____ _____    ______ ____
ROOT
ATOM      1  N   UNL     1      32.930 -14.138 -23.065  0.00  0.00    -0.244 NA
ATOM      2  N   UNL     1      33.058 -11.739 -23.249  0.00  0.00    -0.244 NA
ATOM      3  C   UNL     1      33.640 -14.226 -24.209  0.00  0.00    +0.115 C 
ATOM      4  C   UNL     1      33.753 -11.928 -24.372  0.00  0.00    +0.115 C 
ATOM      5  C   UNL     1      34.087 -13.131 -24.921  0.00  0.00    +0.100 C 
ATOM      6  C   UNL     1      32.679 -12.883 -22.648  0.00  0.00    +0.250 C 
ENDROOT
BRANCH   3   9
ATOM      7  O   UNL     1      33.705 -15.891 -25.860  0.00  0.00    -0.269 OA
ATOM      8  N   UNL     1      34.467 -16.468 -23.747  0.00  0.00    -0.296 N 
ATOM      9  C   UNL     1      33.923 -15.572 -24.677  0.00  0.00    +0.260 C 
ATOM     10  H   UNL     1      34.614 -16.152 -22.827  0.00  0.00    +0.150 HD
BRANCH   8  11
ATOM     11  C   UNL     1      34.823 -17.832 -24.065  0.00  0.00    +0.117 C 
BRANCH  11  12
ATOM     12  C   UNL     1      35.223 -18.608 -22.843  0.00  0.00    -0.003 C 
ATOM     13  C   UNL     1      34.276 -19.375 -22.177  0.00  0.00    -0.007 C 
ATOM     14  C   UNL     1      34.648 -20.098 -21.043  0.00  0.00    -0.022 C 
ATOM     15  C   UNL     1      36.537 -18.550 -22.391  0.00  0.00    -0.003 C 
ATOM     16  C   UNL     1      35.964 -20.046 -20.583  0.00  0.00    -0.004 C 
ATOM     17  C   UNL     1      36.908 -19.272 -21.258  0.00  0.00    -0.001 C 
ATOM     18  C   UNL     1      33.638 -20.925 -20.320  0.00  0.00    +0.031 C 
ENDBRANCH  11  12
ENDBRANCH   8  11
ENDBRANCH   3   9
BRANCH   4  21
ATOM     19  O   UNL     1      33.870 -10.498 -26.227  0.00  0.00    -0.269 OA
ATOM     20  N   UNL     1      34.896  -9.778 -24.275  0.00  0.00    -0.296 N 
ATOM     21  C   UNL     1      34.180 -10.678 -25.051  0.00  0.00    +0.260 C 
ATOM     22  H   UNL     1      35.096 -10.013 -23.340  0.00  0.00    +0.150 HD
BRANCH  20  23
ATOM     23  C   UNL     1      35.358  -8.511 -24.783  0.00  0.00    +0.117 C 
BRANCH  23  24
ATOM     24  C   UNL     1      34.493  -7.376 -24.347  0.00  0.00    -0.003 C 
ATOM     25  C   UNL     1      34.357  -6.252 -25.161  0.00  0.00    -0.007 C 
ATOM     26  C   UNL     1      33.547  -5.190 -24.754  0.00  0.00    -0.022 C 
ATOM     27  C   UNL     1      33.821  -7.439 -23.127  0.00  0.00    -0.003 C 
ATOM     28  C   UNL     1      32.876  -5.254 -23.534  0.00  0.00    -0.004 C 
ATOM     29  C   UNL     1      33.012  -6.378 -22.720  0.00  0.00    -0.001 C 
ATOM     30  C   UNL     1      33.401  -3.987 -25.624  0.00  0.00    +0.031 C 
ENDBRANCH  23  24
ENDBRANCH  20  23
ENDBRANCH   4  21
TORSDOF 6
ENDMDL
MODEL 3
REMARK VINA RESULT:     -11.5      3.316     11.210
REMARK  Name = 5289109
REMARK  6 active torsions:
REMARK  status: ('A' for Active; 'I' for Inactive)
REMARK    1  A    between atoms: C_3  and  C_9
REMARK    2  A    between atoms: C_4  and  C_21
REMARK    3  A    between atoms: N_8  and  C_11
REMARK    4  A    between atoms: C_11  and  C_12
REMARK    5  A    between atoms: N_20  and  C_23
REMARK    6  A    between atoms: C_23  and  C_24
REMARK                            x       y       z     vdW  Elec       q    Type
REMARK                         _______ _______ _______ _____ _____    ______ ____
ROOT
ATOM      1  N   UNL     1      34.878 -19.788 -23.719  0.00  0.00    -0.244 NA
ATOM      2  N   UNL     1      33.879 -18.091 -25.108  0.00  0.00    -0.244 NA
ATOM      3  C   UNL     1      35.403 -18.804 -22.959  0.00  0.00    +0.115 C 
ATOM      4  C   UNL     1      34.441 -17.190 -24.298  0.00  0.00    +0.115 C 
ATOM      5  C   UNL     1      35.214 -17.459 -23.207  0.00  0.00    +0.100 C 
ATOM      6  C   UNL     1      34.137 -19.366 -24.761  0.00  0.00    +0.250 C 
ENDROOT
BRANCH   3   9
ATOM      7  O   UNL     1      37.264 -18.649 -21.540  0.00  0.00    -0.269 OA
ATOM      8  N   UNL     1      35.720 -20.317 -21.080  0.00  0.00    -0.296 N 
ATOM      9  C   UNL     1      36.206 -19.237 -21.828  0.00  0.00    +0.260 C 
ATOM     10  H   UNL     1      34.876 -20.738 -21.362  0.00  0.00    +0.150 HD
BRANCH   8  11
ATOM     11  C   UNL     1      36.391 -20.849 -19.915  0.00  0.00    +0.117 C 
BRANCH  11  12
ATOM     12  C   UNL     1      35.466 -21.664 -19.058  0.00  0.00    -0.003 C 
ATOM     13  C   UNL     1      35.904 -22.126 -17.823  0.00  0.00    -0.007 C 
ATOM     14  C   UNL     1      35.044 -22.882 -17.025  0.00  0.00    -0.022 C 
ATOM     15  C   UNL     1      34.182 -21.947 -19.508  0.00  0.00    -0.003 C 
ATOM     16  C   UNL     1      33.754 -23.172 -17.469  0.00  0.00    -0.004 C 
ATOM     17  C   UNL     1      33.323 -22.703 -18.711  0.00  0.00    -0.001 C 
ATOM     18  C   UNL     1      35.505 -23.384 -15.698  0.00  0.00    +0.031 C 
ENDBRANCH  11  12
ENDBRANCH   8  11
ENDBRANCH   3   9
BRANCH   4  21
ATOM     19  O   UNL     1      33.806 -15.511 -25.807  0.00  0.00    -0.269 OA
ATOM     20  N   UNL     1      34.330 -14.844 -23.648  0.00  0.00    -0.296 N 
ATOM     21  C   UNL     1      34.169 -15.777 -24.664  0.00  0.00    +0.260 C 
ATOM     22  H   UNL     1      34.626 -15.156 -22.762  0.00  0.00    +0.150 HD
BRANCH  20  23
ATOM     23  C   UNL     1      34.080 -13.438 -23.840  0.00  0.00    +0.117 C 
BRANCH  23  24
ATOM     24  C   UNL     1      33.111 -12.894 -22.845  0.00  0.00    -0.003 C 
ATOM     25  C   UNL     1      32.593 -11.610 -23.009  0.00  0.00    -0.007 C 
ATOM     26  C   UNL     1      31.685 -11.100 -22.079  0.00  0.00    -0.022 C 
ATOM     27  C   UNL     1      32.723 -13.668 -21.753  0.00  0.00    -0.003 C 
ATOM     28  C   UNL     1      31.297 -11.875 -20.987  0.00  0.00    -0.004 C 
ATOM     29  C   UNL     1      31.816 -13.160 -20.823  0.00  0.00    -0.001 C 
ATOM     30  C   UNL     1      31.131  -9.726 -22.253  0.00  0.00    +0.031 C 
ENDBRANCH  23  24
ENDBRANCH  20  23
ENDBRANCH   4  21
TORSDOF 6
ENDMDL
MODEL 4
REMARK VINA RESULT:     -11.4      1.731      2.745
REMARK  Name = 5289109
REMARK  6 active torsions:
REMARK  status: ('A' for Active; 'I' for Inactive)
REMARK    1  A    between atoms: C_3  and  C_9
REMARK    2  A    between atoms: C_4  and  C_21
REMARK    3  A    between atoms: N_8  and  C_11
REMARK    4  A    between atoms: C_11  and  C_12
REMARK    5  A    between atoms: N_20  and  C_23
REMARK    6  A    between atoms: C_23  and  C_24
REMARK                            x       y       z     vdW  Elec       q    Type
REMARK                         _______ _______ _______ _____ _____    ______ ____
ROOT
ATOM      1  N   UNL     1      33.978 -13.260 -22.568  0.00  0.00    -0.244 NA
ATOM      2  N   UNL     1      34.485 -15.408 -21.600  0.00  0.00    -0.244 NA
ATOM      3  C   UNL     1      34.149 -13.812 -23.788  0.00  0.00    +0.115 C 
ATOM      4  C   UNL     1      34.633 -15.861 -22.846  0.00  0.00    +0.115 C 
ATOM      5  C   UNL     1      34.485 -15.135 -23.991  0.00  0.00    +0.100 C 
ATOM      6  C   UNL     1      34.158 -14.104 -21.534  0.00  0.00    +0.250 C 
ENDROOT
BRANCH   3   9
ATOM      7  O   UNL     1      33.419 -13.325 -25.962  0.00  0.00    -0.269 OA
ATOM      8  N   UNL     1      34.389 -11.595 -24.762  0.00  0.00    -0.296 N 
ATOM      9  C   UNL     1      33.960 -12.919 -24.918  0.00  0.00    +0.260 C 
ATOM     10  H   UNL     1      34.810 -11.339 -23.910  0.00  0.00    +0.150 HD
BRANCH   8  11
ATOM     11  C   UNL     1      34.249 -10.583 -25.784  0.00  0.00    +0.117 C 
BRANCH  11  12
ATOM     12  C   UNL     1      34.171  -9.202 -25.201  0.00  0.00    -0.003 C 
ATOM     13  C   UNL     1      33.018  -8.446 -25.374  0.00  0.00    -0.007 C 
ATOM     14  C   UNL     1      32.945  -7.164 -24.830  0.00  0.00    -0.022 C 
ATOM     15  C   UNL     1      35.253  -8.692 -24.492  0.00  0.00    -0.003 C 
ATOM     16  C   UNL     1      34.026  -6.645 -24.118  0.00  0.00    -0.004 C 
ATOM     17  C   UNL     1      35.180  -7.410 -23.949  0.00  0.00    -0.001 C 
ATOM     18  C   UNL     1      31.711  -6.345 -25.013  0.00  0.00    +0.031 C 
ENDBRANCH  11  12
ENDBRANCH   8  11
ENDBRANCH   3   9
BRANCH   4  21
ATOM     19  O   UNL     1      34.904 -17.870 -24.026  0.00  0.00    -0.269 OA
ATOM     20  N   UNL     1      35.442 -17.893 -21.770  0.00  0.00    -0.296 N 
ATOM     21  C   UNL     1      34.995 -17.298 -22.942  0.00  0.00    +0.260 C 
ATOM     22  H   UNL     1      35.480 -17.350 -20.949  0.00  0.00    +0.150 HD
BRANCH  20  23
ATOM     23  C   UNL     1      35.853 -19.272 -21.707  0.00  0.00    +0.117 C 
BRANCH  23  24
ATOM     24  C   UNL     1      34.881 -20.120 -20.959  0.00  0.00    -0.003 C 
ATOM     25  C   UNL     1      35.339 -21.033 -20.010  0.00  0.00    -0.007 C 
ATOM     26  C   UNL     1      34.429 -21.827 -19.308  0.00  0.00    -0.022 C 
ATOM     27  C   UNL     1      33.514 -20.000 -21.208  0.00  0.00    -0.003 C 
ATOM     28  C   UNL     1      33.063 -21.706 -19.558  0.00  0.00    -0.004 C 
ATOM     29  C   UNL     1      32.605 -20.793 -20.508  0.00  0.00    -0.001 C 
ATOM     30  C   UNL     1      34.919 -22.803 -18.294  0.00  0.00    +0.031 C 
ENDBRANCH  23  24
ENDBRANCH  20  23
ENDBRANCH   4  21
TORSDOF 6
ENDMDL
MODEL 5
REMARK VINA RESULT:     -11.4      2.173      3.127
REMARK  Name = 5289109
REMARK  6 active torsions:
REMARK  status: ('A' for Active; 'I' for Inactive)
REMARK    1  A    between atoms: C_3  and  C_9
REMARK    2  A    between atoms: C_4  and  C_21
REMARK    3  A    between atoms: N_8  and  C_11
REMARK    4  A    between atoms: C_11  and  C_12
REMARK    5  A    between atoms: N_20  and  C_23
REMARK    6  A    between atoms: C_23  and  C_24
REMARK                            x       y       z     vdW  Elec       q    Type
REMARK                         _______ _______ _______ _____ _____    ______ ____
ROOT
ATOM      1  N   UNL     1      32.935 -13.254 -24.715  0.00  0.00    -0.244 NA
ATOM      2  N   UNL     1      33.933 -15.211 -25.703  0.00  0.00    -0.244 NA
ATOM      3  C   UNL     1      33.108 -13.823 -23.504  0.00  0.00    +0.115 C 
ATOM      4  C   UNL     1      34.061 -15.691 -24.464  0.00  0.00    +0.115 C 
ATOM      5  C   UNL     1      33.676 -15.066 -23.314  0.00  0.00    +0.100 C 
ATOM      6  C   UNL     1      33.365 -13.992 -25.755  0.00  0.00    +0.250 C 
ENDROOT
BRANCH   3   9
ATOM      7  O   UNL     1      32.886 -13.419 -21.204  0.00  0.00    -0.269 OA
ATOM      8  N   UNL     1      31.965 -11.853 -22.646  0.00  0.00    -0.296 N 
ATOM      9  C   UNL     1      32.651 -13.042 -22.367  0.00  0.00    +0.260 C 
ATOM     10  H   UNL     1      31.811 -11.614 -23.588  0.00  0.00    +0.150 HD
BRANCH   8  11
ATOM     11  C   UNL     1      31.469 -10.958 -21.625  0.00  0.00    +0.117 C 
BRANCH  11  12
ATOM     12  C   UNL     1      31.903  -9.540 -21.863  0.00  0.00    -0.003 C 
ATOM     13  C   UNL     1      31.963  -9.048 -23.160  0.00  0.00    -0.007 C 
ATOM     14  C   UNL     1      32.364  -7.730 -23.381  0.00  0.00    -0.022 C 
ATOM     15  C   UNL     1      32.239  -8.733 -20.781  0.00  0.00    -0.003 C 
ATOM     16  C   UNL     1      32.704  -6.914 -22.302  0.00  0.00    -0.004 C 
ATOM     17  C   UNL     1      32.640  -7.416 -21.001  0.00  0.00    -0.001 C 
ATOM     18  C   UNL     1      32.433  -7.193 -24.771  0.00  0.00    +0.031 C 
ENDBRANCH  11  12
ENDBRANCH   8  11
ENDBRANCH   3   9
BRANCH   4  21
ATOM     19  O   UNL     1      34.587 -17.802 -25.339  0.00  0.00    -0.269 OA
ATOM     20  N   UNL     1      35.371 -17.319 -23.209  0.00  0.00    -0.296 N 
ATOM     21  C   UNL     1      34.686 -17.036 -24.383  0.00  0.00    +0.260 C 
ATOM     22  H   UNL     1      35.393 -16.639 -22.499  0.00  0.00    +0.150 HD
BRANCH  20  23
ATOM     23  C   UNL     1      36.050 -18.571 -22.991  0.00  0.00    +0.117 C 
BRANCH  23  24
ATOM     24  C   UNL     1      35.358 -19.423 -21.981  0.00  0.00    -0.003 C 
ATOM     25  C   UNL     1      36.104 -20.126 -21.034  0.00  0.00    -0.007 C 
ATOM     26  C   UNL     1      35.457 -20.922 -20.088  0.00  0.00    -0.022 C 
ATOM     27  C   UNL     1      33.967 -19.516 -21.981  0.00  0.00    -0.003 C 
ATOM     28  C   UNL     1      34.065 -21.014 -20.090  0.00  0.00    -0.004 C 
ATOM     29  C   UNL     1      33.320 -20.311 -21.036  0.00  0.00    -0.001 C 
ATOM     30  C   UNL     1      36.253 -21.675 -19.076  0.00  0.00    +0.031 C 
ENDBRANCH  23  24
ENDBRANCH  20  23
ENDBRANCH   4  21
TORSDOF 6
ENDMDL
MODEL 6
REMARK VINA RESULT:     -11.4      2.045     10.463
REMARK  Name = 5289109
REMARK  6 active torsions:
REMARK  status: ('A' for Active; 'I' for Inactive)
REMARK    1  A    between atoms: C_3  and  C_9
REMARK    2  A    between atoms: C_4  and  C_21
REMARK    3  A    between atoms: N_8  and  C_11
REMARK    4  A    between atoms: C_11  and  C_12
REMARK    5  A    between atoms: N_20  and  C_23
REMARK    6  A    between atoms: C_23  and  C_24
REMARK                            x       y       z     vdW  Elec       q    Type
REMARK                         _______ _______ _______ _____ _____    ______ ____
ROOT
ATOM      1  N   UNL     1      33.901 -15.220 -25.737  0.00  0.00    -0.244 NA
ATOM      2  N   UNL     1      32.896 -13.260 -24.761  0.00  0.00    -0.244 NA
ATOM      3  C   UNL     1      34.055 -15.716 -24.492  0.00  0.00    +0.115 C 
ATOM      4  C   UNL     1      33.090 -13.834 -23.571  0.00  0.00    +0.115 C 
ATOM      5  C   UNL     1      33.660 -15.052 -23.348  0.00  0.00    +0.100 C 
ATOM      6  C   UNL     1      33.323 -14.005 -25.797  0.00  0.00    +0.250 C 
ENDROOT
BRANCH   3   9
ATOM      7  O   UNL     1      34.581 -17.837 -25.343  0.00  0.00    -0.269 OA
ATOM      8  N   UNL     1      35.397 -17.311 -23.237  0.00  0.00    -0.296 N 
ATOM      9  C   UNL     1      34.677 -17.026 -24.405  0.00  0.00    +0.260 C 
ATOM     10  H   UNL     1      35.433 -16.625 -22.533  0.00  0.00    +0.150 HD
BRANCH   8  11
ATOM     11  C   UNL     1      36.091 -18.559 -23.011  0.00  0.00    +0.117 C 
BRANCH  11  12
ATOM     12  C   UNL     1      35.392 -19.414 -21.995  0.00  0.00    -0.003 C 
ATOM     13  C   UNL     1      36.136 -20.085 -21.032  0.00  0.00    -0.007 C 
ATOM     14  C   UNL     1      35.487 -20.878 -20.086  0.00  0.00    -0.022 C 
ATOM     15  C   UNL     1      34.007 -19.527 -22.027  0.00  0.00    -0.003 C 
ATOM     16  C   UNL     1      34.097 -20.997 -20.111  0.00  0.00    -0.004 C 
ATOM     17  C   UNL     1      33.357 -20.320 -21.082  0.00  0.00    -0.001 C 
ATOM     18  C   UNL     1      36.278 -21.602 -19.050  0.00  0.00    +0.031 C 
ENDBRANCH  11  12
ENDBRANCH   8  11
ENDBRANCH   3   9
BRANCH   4  21
ATOM     19  O   UNL     1      32.840 -13.434 -21.274  0.00  0.00    -0.269 OA
ATOM     20  N   UNL     1      31.991 -11.832 -22.721  0.00  0.00    -0.296 N 
ATOM     21  C   UNL     1      32.626 -13.027 -22.414  0.00  0.00    +0.260 C 
ATOM     22  H   UNL     1      31.866 -11.592 -23.667  0.00  0.00    +0.150 HD
BRANCH  20  23
ATOM     23  C   UNL     1      31.506 -10.929 -21.707  0.00  0.00    +0.117 C 
BRANCH  23  24
ATOM     24  C   UNL     1      32.087  -9.561 -21.843  0.00  0.00    -0.003 C 
ATOM     25  C   UNL     1      32.566  -9.128 -23.079  0.00  0.00    -0.007 C 
ATOM     26  C   UNL     1      33.108  -7.848 -23.208  0.00  0.00    -0.022 C 
ATOM     27  C   UNL     1      32.150  -8.716 -20.736  0.00  0.00    -0.003 C 
ATOM     28  C   UNL     1      33.170  -7.004 -22.099  0.00  0.00    -0.004 C 
ATOM     29  C   UNL     1      32.691  -7.437 -20.864  0.00  0.00    -0.001 C 
ATOM     30  C   UNL     1      33.622  -7.384 -24.529  0.00  0.00    +0.031 C 
ENDBRANCH  23  24
ENDBRANCH  20  23
ENDBRANCH   4  21
TORSDOF 6
ENDMDL
MODEL 7
REMARK VINA RESULT:     -11.3      1.607     10.689
REMARK  Name = 5289109
REMARK  6 active torsions:
REMARK  status: ('A' for Active; 'I' for Inactive)
REMARK    1  A    between atoms: C_3  and  C_9
REMARK    2  A    between atoms: C_4  and  C_21
REMARK    3  A    between atoms: N_8  and  C_11
REMARK    4  A    between atoms: C_11  and  C_12
REMARK    5  A    between atoms: N_20  and  C_23
REMARK    6  A    between atoms: C_23  and  C_24
REMARK                            x       y       z     vdW  Elec       q    Type
REMARK                         _______ _______ _______ _____ _____    ______ ____
ROOT
ATOM      1  N   UNL     1      34.390 -15.504 -21.506  0.00  0.00    -0.244 NA
ATOM      2  N   UNL     1      33.673 -13.386 -22.402  0.00  0.00    -0.244 NA
ATOM      3  C   UNL     1      34.747 -15.870 -22.755  0.00  0.00    +0.115 C 
ATOM      4  C   UNL     1      34.055 -13.837 -23.599  0.00  0.00    +0.115 C 
ATOM      5  C   UNL     1      34.598 -15.060 -23.863  0.00  0.00    +0.100 C 
ATOM      6  C   UNL     1      33.868 -14.267 -21.404  0.00  0.00    +0.250 C 
ENDROOT
BRANCH   3   9
ATOM      7  O   UNL     1      35.245 -17.813 -23.969  0.00  0.00    -0.269 OA
ATOM      8  N   UNL     1      35.949 -17.738 -21.760  0.00  0.00    -0.296 N 
ATOM      9  C   UNL     1      35.313 -17.201 -22.888  0.00  0.00    +0.260 C 
ATOM     10  H   UNL     1      35.967 -17.200 -20.936  0.00  0.00    +0.150 HD
BRANCH   8  11
ATOM     11  C   UNL     1      36.580 -19.038 -21.741  0.00  0.00    +0.117 C 
BRANCH  11  12
ATOM     12  C   UNL     1      35.805 -20.026 -20.919  0.00  0.00    -0.003 C 
ATOM     13  C   UNL     1      34.418 -20.034 -20.981  0.00  0.00    -0.007 C 
ATOM     14  C   UNL     1      33.698 -20.955 -20.219  0.00  0.00    -0.022 C 
ATOM     15  C   UNL     1      36.485 -20.925 -20.104  0.00  0.00    -0.003 C 
ATOM     16  C   UNL     1      34.372 -21.859 -19.398  0.00  0.00    -0.004 C 
ATOM     17  C   UNL     1      35.766 -21.844 -19.341  0.00  0.00    -0.001 C 
ATOM     18  C   UNL     1      32.208 -20.970 -20.278  0.00  0.00    +0.031 C 
ENDBRANCH  11  12
ENDBRANCH   8  11
ENDBRANCH   3   9
BRANCH   4  21
ATOM     19  O   UNL     1      33.268 -13.258 -25.731  0.00  0.00    -0.269 OA
ATOM     20  N   UNL     1      34.317 -11.591 -24.506  0.00  0.00    -0.296 N 
ATOM     21  C   UNL     1      33.848 -12.880 -24.715  0.00  0.00    +0.260 C 
ATOM     22  H   UNL     1      34.770 -11.384 -23.657  0.00  0.00    +0.150 HD
BRANCH  20  23
ATOM     23  C   UNL     1      34.169 -10.543 -25.485  0.00  0.00    +0.117 C 
BRANCH  23  24
ATOM     24  C   UNL     1      34.213  -9.184 -24.871  0.00  0.00    -0.003 C 
ATOM     25  C   UNL     1      33.582  -8.951 -23.649  0.00  0.00    -0.007 C 
ATOM     26  C   UNL     1      33.623  -7.680 -23.074  0.00  0.00    -0.022 C 
ATOM     27  C   UNL     1      34.884  -8.147 -25.518  0.00  0.00    -0.003 C 
ATOM     28  C   UNL     1      34.296  -6.644 -23.722  0.00  0.00    -0.004 C 
ATOM     29  C   UNL     1      34.926  -6.877 -24.944  0.00  0.00    -0.001 C 
ATOM     30  C   UNL     1      32.949  -7.430 -21.768  0.00  0.00    +0.031 C 
ENDBRANCH  23  24
ENDBRANCH  20  23
ENDBRANCH   4  21
TORSDOF 6
ENDMDL
MODEL 8
REMARK VINA RESULT:     -11.3      3.007     11.610
REMARK  Name = 5289109
REMARK  6 active torsions:
REMARK  status: ('A' for Active; 'I' for Inactive)
REMARK    1  A    between atoms: C_3  and  C_9
REMARK    2  A    between atoms: C_4  and  C_21
REMARK    3  A    between atoms: N_8  and  C_11
REMARK    4  A    between atoms: C_11  and  C_12
REMARK    5  A    between atoms: N_20  and  C_23
REMARK    6  A    between atoms: C_23  and  C_24
REMARK                            x       y       z     vdW  Elec       q    Type
REMARK                         _______ _______ _______ _____ _____    ______ ____
ROOT
ATOM      1  N   UNL     1      35.286 -19.103 -23.236  0.00  0.00    -0.244 NA
ATOM      2  N   UNL     1      34.293 -17.065 -24.051  0.00  0.00    -0.244 NA
ATOM      3  C   UNL     1      35.622 -18.444 -22.108  0.00  0.00    +0.115 C 
ATOM      4  C   UNL     1      34.667 -16.500 -22.901  0.00  0.00    +0.115 C 
ATOM      5  C   UNL     1      35.333 -17.114 -21.881  0.00  0.00    +0.100 C 
ATOM      6  C   UNL     1      34.632 -18.364 -24.152  0.00  0.00    +0.250 C 
ENDROOT
BRANCH   3   9
ATOM      7  O   UNL     1      37.412 -18.826 -20.642  0.00  0.00    -0.269 OA
ATOM      8  N   UNL     1      35.722 -20.413 -20.681  0.00  0.00    -0.296 N 
ATOM      9  C   UNL     1      36.328 -19.224 -21.106  0.00  0.00    +0.260 C 
ATOM     10  H   UNL     1      34.864 -20.671 -21.090  0.00  0.00    +0.150 HD
BRANCH   8  11
ATOM     11  C   UNL     1      36.287 -21.285 -19.676  0.00  0.00    +0.117 C 
BRANCH  11  12
ATOM     12  C   UNL     1      35.225 -21.967 -18.863  0.00  0.00    -0.003 C 
ATOM     13  C   UNL     1      35.530 -22.436 -17.591  0.00  0.00    -0.007 C 
ATOM     14  C   UNL     1      34.543 -23.068 -16.834  0.00  0.00    -0.022 C 
ATOM     15  C   UNL     1      33.948 -22.122 -19.390  0.00  0.00    -0.003 C 
ATOM     16  C   UNL     1      33.259 -23.228 -17.355  0.00  0.00    -0.004 C 
ATOM     17  C   UNL     1      32.962 -22.754 -18.634  0.00  0.00    -0.001 C 
ATOM     18  C   UNL     1      34.861 -23.576 -15.468  0.00  0.00    +0.031 C 
ENDBRANCH  11  12
ENDBRANCH   8  11
ENDBRANCH   3   9
BRANCH   4  21
ATOM     19  O   UNL     1      34.673 -14.441 -21.779  0.00  0.00    -0.269 OA
ATOM     20  N   UNL     1      33.572 -14.526 -23.819  0.00  0.00    -0.296 N 
ATOM     21  C   UNL     1      34.303 -15.066 -22.770  0.00  0.00    +0.260 C 
ATOM     22  H   UNL     1      33.322 -15.109 -24.572  0.00  0.00    +0.150 HD
BRANCH  20  23
ATOM     23  C   UNL     1      33.165 -13.144 -23.850  0.00  0.00    +0.117 C 
BRANCH  23  24
ATOM     24  C   UNL     1      33.680 -12.428 -25.053  0.00  0.00    -0.003 C 
ATOM     25  C   UNL     1      34.317 -11.196 -24.911  0.00  0.00    -0.007 C 
ATOM     26  C   UNL     1      34.800 -10.526 -26.037  0.00  0.00    -0.022 C 
ATOM     27  C   UNL     1      33.524 -12.991 -26.320  0.00  0.00    -0.003 C 
ATOM     28  C   UNL     1      34.644 -11.090 -27.303  0.00  0.00    -0.004 C 
ATOM     29  C   UNL     1      34.006 -12.322 -27.445  0.00  0.00    -0.001 C 
ATOM     30  C   UNL     1      35.481  -9.208 -25.886  0.00  0.00    +0.031 C 
ENDBRANCH  23  24
ENDBRANCH  20  23
ENDBRANCH   4  21
TORSDOF 6
ENDMDL
MODEL 9
REMARK VINA RESULT:     -11.2      9.716     13.987
REMARK  Name = 5289109
REMARK  6 active torsions:
REMARK  status: ('A' for Active; 'I' for Inactive)
REMARK    1  A    between atoms: C_3  and  C_9
REMARK    2  A    between atoms: C_4  and  C_21
REMARK    3  A    between atoms: N_8  and  C_11
REMARK    4  A    between atoms: C_11  and  C_12
REMARK    5  A    between atoms: N_20  and  C_23
REMARK    6  A    between atoms: C_23  and  C_24
REMARK                            x       y       z     vdW  Elec       q    Type
REMARK                         _______ _______ _______ _____ _____    ______ ____
ROOT
ATOM      1  N   UNL     1      30.352 -24.531 -15.449  0.00  0.00    -0.244 NA
ATOM      2  N   UNL     1      31.683 -25.222 -13.563  0.00  0.00    -0.244 NA
ATOM      3  C   UNL     1      31.366 -23.722 -15.821  0.00  0.00    +0.115 C 
ATOM      4  C   UNL     1      32.629 -24.393 -14.011  0.00  0.00    +0.115 C 
ATOM      5  C   UNL     1      32.552 -23.610 -15.125  0.00  0.00    +0.100 C 
ATOM      6  C   UNL     1      30.575 -25.242 -14.327  0.00  0.00    +0.250 C 
ENDROOT
BRANCH   3   9
ATOM      7  O   UNL     1      30.036 -22.433 -17.258  0.00  0.00    -0.269 OA
ATOM      8  N   UNL     1      32.237 -22.790 -17.893  0.00  0.00    -0.296 N 
ATOM      9  C   UNL     1      31.145 -22.946 -17.029  0.00  0.00    +0.260 C 
ATOM     10  H   UNL     1      33.087 -23.224 -17.652  0.00  0.00    +0.150 HD
BRANCH   8  11
ATOM     11  C   UNL     1      32.183 -22.028 -19.120  0.00  0.00    +0.117 C 
BRANCH  11  12
ATOM     12  C   UNL     1      33.546 -21.584 -19.566  0.00  0.00    -0.003 C 
ATOM     13  C   UNL     1      33.664 -20.609 -20.549  0.00  0.00    -0.007 C 
ATOM     14  C   UNL     1      34.930 -20.194 -20.961  0.00  0.00    -0.022 C 
ATOM     15  C   UNL     1      34.677 -22.151 -18.989  0.00  0.00    -0.003 C 
ATOM     16  C   UNL     1      36.070 -20.759 -20.389  0.00  0.00    -0.004 C 
ATOM     17  C   UNL     1      35.943 -21.737 -19.402  0.00  0.00    -0.001 C 
ATOM     18  C   UNL     1      35.066 -19.150 -22.017  0.00  0.00    +0.031 C 
ENDBRANCH  11  12
ENDBRANCH   8  11
ENDBRANCH   3   9
BRANCH   4  21
ATOM     19  O   UNL     1      33.923 -23.574 -12.235  0.00  0.00    -0.269 OA
ATOM     20  N   UNL     1      34.862 -25.247 -13.539  0.00  0.00    -0.296 N 
ATOM     21  C   UNL     1      33.860 -24.355 -13.182  0.00  0.00    +0.260 C 
ATOM     22  H   UNL     1      34.718 -25.834 -14.316  0.00  0.00    +0.150 HD
BRANCH  20  23
ATOM     23  C   UNL     1      36.105 -25.347 -12.816  0.00  0.00    +0.117 C 
BRANCH  23  24
ATOM     24  C   UNL     1      37.291 -25.165 -13.701  0.00  0.00    -0.003 C 
ATOM     25  C   UNL     1      38.419 -25.966 -13.528  0.00  0.00    -0.007 C 
ATOM     26  C   UNL     1      39.530 -25.797 -14.356  0.00  0.00    -0.022 C 
ATOM     27  C   UNL     1      37.273 -24.195 -14.703  0.00  0.00    -0.003 C 
ATOM     28  C   UNL     1      39.510 -24.827 -15.358  0.00  0.00    -0.004 C 
ATOM     29  C   UNL     1      38.382 -24.026 -15.532  0.00  0.00    -0.001 C 
ATOM     30  C   UNL     1      40.737 -26.653 -14.171  0.00  0.00    +0.031 C 
ENDBRANCH  23  24
ENDBRANCH  20  23
ENDBRANCH   4  21
TORSDOF 6
ENDMDL
