MODEL 1
REMARK VINA RESULT:     -12.4      0.000      0.000
REMARK  Name = 11581936
REMARK  5 active torsions:
REMARK  status: ('A' for Active; 'I' for Inactive)
REMARK    1  A    between atoms: C_1  and  C_9
REMARK    2  A    between atoms: C_4  and  O_19
REMARK    3  A    between atoms: C_10  and  C_14
REMARK    4  A    between atoms: O_19  and  C_20
REMARK    5  A    between atoms: C_20  and  C_22
REMARK                            x       y       z     vdW  Elec       q    Type
REMARK                         _______ _______ _______ _____ _____    ______ ____
ROOT
ATOM      1  C   UNL     1      33.352 -22.157 -18.655  0.00  0.00    +0.019 C 
ATOM      2  C   UNL     1      34.721 -22.364 -18.826  0.00  0.00    +0.005 C 
ATOM      3  C   UNL     1      32.663 -21.304 -19.516  0.00  0.00    +0.005 C 
ATOM      4  C   UNL     1      34.706 -20.868 -20.713  0.00  0.00    +0.139 C 
ATOM      5  C   UNL     1      35.400 -21.716 -19.859  0.00  0.00    +0.037 C 
ATOM      6  C   UNL     1      33.341 -20.657 -20.550  0.00  0.00    +0.037 C 
ENDROOT
BRANCH   1   9
ATOM      7  N   UNL     1      31.034 -23.583 -16.485  0.00  0.00    -0.208 N 
ATOM      8  N   UNL     1      31.317 -22.912 -17.614  0.00  0.00    -0.178 NA
ATOM      9  C   UNL     1      32.653 -22.823 -17.592  0.00  0.00    +0.100 C 
ATOM     10  C   UNL     1      33.213 -23.436 -16.451  0.00  0.00    +0.036 C 
ATOM     11  C   UNL     1      32.134 -23.921 -15.753  0.00  0.00    +0.086 C 
ATOM     12  C   UNL     1      29.661 -23.879 -16.153  0.00  0.00    +0.140 C 
BRANCH  10  14
ATOM     13  N   UNL     1      37.218 -23.869 -15.160  0.00  0.00    -0.242 NA
ATOM     14  C   UNL     1      34.568 -23.582 -16.013  0.00  0.00    +0.006 C 
ATOM     15  C   UNL     1      35.091 -24.847 -15.761  0.00  0.00    +0.021 C 
ATOM     16  C   UNL     1      35.374 -22.461 -15.838  0.00  0.00    +0.021 C 
ATOM     17  C   UNL     1      36.408 -24.936 -15.341  0.00  0.00    +0.099 C 
ATOM     18  C   UNL     1      36.678 -22.655 -15.414  0.00  0.00    +0.099 C 
ENDBRANCH  10  14
ENDBRANCH   1   9
BRANCH   4  19
ATOM     19  O   UNL     1      35.372 -20.233 -21.729  0.00  0.00    -0.468 OA
BRANCH  19  20
ATOM     20  C   UNL     1      35.806 -18.902 -21.476  0.00  0.00    +0.264 C 
BRANCH  20  22
ATOM     21  N   UNL     1      35.085 -16.696 -22.163  0.00  0.00    -0.406 NA
ATOM     22  C   UNL     1      35.240 -17.993 -22.516  0.00  0.00    +0.152 C 
ATOM     23  C   UNL     1      34.210 -16.272 -24.368  0.00  0.00    +0.026 C 
ATOM     24  C   UNL     1      34.577 -15.845 -23.076  0.00  0.00    +0.113 C 
ATOM     25  C   UNL     1      34.910 -18.502 -23.755  0.00  0.00    +0.031 C 
ATOM     26  C   UNL     1      34.387 -17.623 -24.692  0.00  0.00    +0.005 C 
ATOM     27  C   UNL     1      33.682 -15.357 -25.294  0.00  0.00    +0.002 C 
ATOM     28  C   UNL     1      34.401 -14.502 -22.754  0.00  0.00    +0.085 C 
ATOM     29  C   UNL     1      33.516 -14.018 -24.947  0.00  0.00    -0.004 C 
ATOM     30  C   UNL     1      33.876 -13.591 -23.675  0.00  0.00    -0.019 C 
ENDBRANCH  20  22
ENDBRANCH  19  20
ENDBRANCH   4  19
TORSDOF 5
ENDMDL
MODEL 2
REMARK VINA RESULT:     -12.3      1.321      1.965
REMARK  Name = 11581936
REMARK  5 active torsions:
REMARK  status: ('A' for Active; 'I' for Inactive)
REMARK    1  A    between atoms: C_1  and  C_9
REMARK    2  A    between atoms: C_4  and  O_19
REMARK    3  A    between atoms: C_10  and  C_14
REMARK    4  A    between atoms: O_19  and  C_20
REMARK    5  A    between atoms: C_20  and  C_22
REMARK                            x       y       z     vdW  Elec       q    Type
REMARK                         _______ _______ _______ _____ _____    ______ ____
ROOT
ATOM      1  C   UNL     1      33.869 -23.043 -17.172  0.00  0.00    +0.019 C 
ATOM      2  C   UNL     1      35.202 -22.635 -17.153  0.00  0.00    +0.005 C 
ATOM      3  C   UNL     1      33.108 -22.887 -18.330  0.00  0.00    +0.005 C 
ATOM      4  C   UNL     1      35.010 -21.918 -19.444  0.00  0.00    +0.139 C 
ATOM      5  C   UNL     1      35.774 -22.070 -18.294  0.00  0.00    +0.037 C 
ATOM      6  C   UNL     1      33.680 -22.323 -19.471  0.00  0.00    +0.037 C 
ENDROOT
BRANCH   1   9
ATOM      7  N   UNL     1      31.789 -24.163 -14.615  0.00  0.00    -0.208 N 
ATOM      8  N   UNL     1      31.963 -23.513 -15.778  0.00  0.00    -0.178 NA
ATOM      9  C   UNL     1      33.279 -23.625 -15.999  0.00  0.00    +0.100 C 
ATOM     10  C   UNL     1      33.935 -24.344 -14.978  0.00  0.00    +0.036 C 
ATOM     11  C   UNL     1      32.939 -24.681 -14.095  0.00  0.00    +0.086 C 
ATOM     12  C   UNL     1      30.469 -24.258 -14.039  0.00  0.00    +0.140 C 
BRANCH  10  14
ATOM     13  N   UNL     1      37.994 -25.406 -14.431  0.00  0.00    -0.242 NA
ATOM     14  C   UNL     1      35.309 -24.703 -14.794  0.00  0.00    +0.006 C 
ATOM     15  C   UNL     1      36.159 -23.875 -14.066  0.00  0.00    +0.021 C 
ATOM     16  C   UNL     1      35.805 -25.884 -15.339  0.00  0.00    +0.021 C 
ATOM     17  C   UNL     1      37.479 -24.268 -13.915  0.00  0.00    +0.099 C 
ATOM     18  C   UNL     1      37.141 -26.187 -15.132  0.00  0.00    +0.099 C 
ENDBRANCH  10  14
ENDBRANCH   1   9
BRANCH   4  19
ATOM     19  O   UNL     1      35.572 -21.364 -20.565  0.00  0.00    -0.468 OA
BRANCH  19  20
ATOM     20  C   UNL     1      36.010 -20.015 -20.461  0.00  0.00    +0.264 C 
BRANCH  20  22
ATOM     21  N   UNL     1      35.415 -17.899 -21.477  0.00  0.00    -0.406 NA
ATOM     22  C   UNL     1      35.504 -19.240 -21.632  0.00  0.00    +0.152 C 
ATOM     23  C   UNL     1      34.585 -17.760 -23.735  0.00  0.00    +0.026 C 
ATOM     24  C   UNL     1      34.963 -17.166 -22.513  0.00  0.00    +0.113 C 
ATOM     25  C   UNL     1      35.158 -19.909 -22.789  0.00  0.00    +0.031 C 
ATOM     26  C   UNL     1      34.693 -19.151 -23.854  0.00  0.00    +0.005 C 
ATOM     27  C   UNL     1      34.117 -16.964 -24.794  0.00  0.00    +0.002 C 
ATOM     28  C   UNL     1      34.857 -15.783 -22.394  0.00  0.00    +0.085 C 
ATOM     29  C   UNL     1      34.020 -15.583 -24.650  0.00  0.00    -0.004 C 
ATOM     30  C   UNL     1      34.390 -14.992 -23.448  0.00  0.00    -0.019 C 
ENDBRANCH  20  22
ENDBRANCH  19  20
ENDBRANCH   4  19
TORSDOF 5
ENDMDL
MODEL 3
REMARK VINA RESULT:     -12.2      3.344     11.000
REMARK  Name = 11581936
REMARK  5 active torsions:
REMARK  status: ('A' for Active; 'I' for Inactive)
REMARK    1  A    between atoms: C_1  and  C_9
REMARK    2  A    between atoms: C_4  and  O_19
REMARK    3  A    between atoms: C_10  and  C_14
REMARK    4  A    between atoms: O_19  and  C_20
REMARK    5  A    between atoms: C_20  and  C_22
REMARK                            x       y       z     vdW  Elec       q    Type
REMARK                         _______ _______ _______ _____ _____    ______ ____
ROOT
ATOM      1  C   UNL     1      33.278 -13.606 -23.168  0.00  0.00    +0.019 C 
ATOM      2  C   UNL     1      34.110 -14.230 -22.239  0.00  0.00    +0.005 C 
ATOM      3  C   UNL     1      33.060 -14.193 -24.415  0.00  0.00    +0.005 C 
ATOM      4  C   UNL     1      34.502 -16.021 -23.801  0.00  0.00    +0.139 C 
ATOM      5  C   UNL     1      34.724 -15.442 -22.557  0.00  0.00    +0.037 C 
ATOM      6  C   UNL     1      33.673 -15.405 -24.733  0.00  0.00    +0.037 C 
ENDROOT
BRANCH   1   9
ATOM      7  N   UNL     1      31.366 -11.007 -21.859  0.00  0.00    -0.208 N 
ATOM      8  N   UNL     1      31.719 -12.304 -21.876  0.00  0.00    -0.178 NA
ATOM      9  C   UNL     1      32.645 -12.359 -22.841  0.00  0.00    +0.100 C 
ATOM     10  C   UNL     1      32.878 -11.100 -23.433  0.00  0.00    +0.036 C 
ATOM     11  C   UNL     1      32.032 -10.243 -22.773  0.00  0.00    +0.086 C 
ATOM     12  C   UNL     1      30.365 -10.550 -20.927  0.00  0.00    +0.140 C 
BRANCH  10  14
ATOM     13  N   UNL     1      35.486  -9.878 -26.532  0.00  0.00    -0.242 NA
ATOM     14  C   UNL     1      33.760 -10.686 -24.482  0.00  0.00    +0.006 C 
ATOM     15  C   UNL     1      34.725  -9.711 -24.244  0.00  0.00    +0.021 C 
ATOM     16  C   UNL     1      33.661 -11.256 -25.749  0.00  0.00    +0.021 C 
ATOM     17  C   UNL     1      35.555  -9.346 -25.292  0.00  0.00    +0.099 C 
ATOM     18  C   UNL     1      34.538 -10.822 -26.729  0.00  0.00    +0.099 C 
ENDBRANCH  10  14
ENDBRANCH   1   9
BRANCH   4  19
ATOM     19  O   UNL     1      35.105 -17.212 -24.114  0.00  0.00    -0.468 OA
BRANCH  19  20
ATOM     20  C   UNL     1      34.370 -18.395 -23.828  0.00  0.00    +0.264 C 
BRANCH  20  22
ATOM     21  N   UNL     1      34.164 -19.916 -21.956  0.00  0.00    -0.406 NA
ATOM     22  C   UNL     1      34.971 -19.076 -22.643  0.00  0.00    +0.152 C 
ATOM     23  C   UNL     1      36.004 -20.354 -20.463  0.00  0.00    +0.026 C 
ATOM     24  C   UNL     1      34.671 -20.549 -20.881  0.00  0.00    +0.113 C 
ATOM     25  C   UNL     1      36.286 -18.822 -22.311  0.00  0.00    +0.031 C 
ATOM     26  C   UNL     1      36.806 -19.475 -21.202  0.00  0.00    +0.005 C 
ATOM     27  C   UNL     1      36.499 -21.030 -19.335  0.00  0.00    +0.002 C 
ATOM     28  C   UNL     1      33.874 -21.423 -20.146  0.00  0.00    +0.085 C 
ATOM     29  C   UNL     1      35.681 -21.899 -18.618  0.00  0.00    -0.004 C 
ATOM     30  C   UNL     1      34.367 -22.095 -19.024  0.00  0.00    -0.019 C 
ENDBRANCH  20  22
ENDBRANCH  19  20
ENDBRANCH   4  19
TORSDOF 5
ENDMDL
MODEL 4
REMARK VINA RESULT:     -11.7      1.509      3.664
REMARK  Name = 11581936
REMARK  5 active torsions:
REMARK  status: ('A' for Active; 'I' for Inactive)
REMARK    1  A    between atoms: C_1  and  C_9
REMARK    2  A    between atoms: C_4  and  O_19
REMARK    3  A    between atoms: C_10  and  C_14
REMARK    4  A    between atoms: O_19  and  C_20
REMARK    5  A    between atoms: C_20  and  C_22
REMARK                            x       y       z     vdW  Elec       q    Type
REMARK                         _______ _______ _______ _____ _____    ______ ____
ROOT
ATOM      1  C   UNL     1      34.363 -23.142 -16.593  0.00  0.00    +0.019 C 
ATOM      2  C   UNL     1      35.566 -22.532 -16.949  0.00  0.00    +0.005 C 
ATOM      3  C   UNL     1      33.307 -23.186 -17.504  0.00  0.00    +0.005 C 
ATOM      4  C   UNL     1      34.656 -22.015 -19.118  0.00  0.00    +0.139 C 
ATOM      5  C   UNL     1      35.712 -21.966 -18.216  0.00  0.00    +0.037 C 
ATOM      6  C   UNL     1      33.454 -22.622 -18.771  0.00  0.00    +0.037 C 
ENDROOT
BRANCH   1   9
ATOM      7  N   UNL     1      34.763 -24.527 -13.424  0.00  0.00    -0.208 N 
ATOM      8  N   UNL     1      35.289 -24.009 -14.547  0.00  0.00    -0.178 NA
ATOM      9  C   UNL     1      34.211 -23.724 -15.289  0.00  0.00    +0.100 C 
ATOM     10  C   UNL     1      33.007 -24.060 -14.636  0.00  0.00    +0.036 C 
ATOM     11  C   UNL     1      33.400 -24.579 -13.427  0.00  0.00    +0.086 C 
ATOM     12  C   UNL     1      35.635 -24.963 -12.360  0.00  0.00    +0.140 C 
BRANCH  10  14
ATOM     13  N   UNL     1      28.959 -23.704 -15.816  0.00  0.00    -0.242 NA
ATOM     14  C   UNL     1      31.637 -23.939 -15.037  0.00  0.00    +0.006 C 
ATOM     15  C   UNL     1      30.920 -25.065 -15.434  0.00  0.00    +0.021 C 
ATOM     16  C   UNL     1      31.011 -22.696 -15.030  0.00  0.00    +0.021 C 
ATOM     17  C   UNL     1      29.598 -24.895 -15.811  0.00  0.00    +0.099 C 
ATOM     18  C   UNL     1      29.685 -22.632 -15.424  0.00  0.00    +0.099 C 
ENDBRANCH  10  14
ENDBRANCH   1   9
BRANCH   4  19
ATOM     19  O   UNL     1      34.801 -21.460 -20.363  0.00  0.00    -0.468 OA
BRANCH  19  20
ATOM     20  C   UNL     1      35.710 -20.373 -20.478  0.00  0.00    +0.264 C 
BRANCH  20  22
ATOM     21  N   UNL     1      35.285 -18.177 -21.404  0.00  0.00    -0.406 NA
ATOM     22  C   UNL     1      35.306 -19.511 -21.628  0.00  0.00    +0.152 C 
ATOM     23  C   UNL     1      34.576 -17.874 -23.687  0.00  0.00    +0.026 C 
ATOM     24  C   UNL     1      34.926 -17.367 -22.419  0.00  0.00    +0.113 C 
ATOM     25  C   UNL     1      34.980 -20.098 -22.833  0.00  0.00    +0.031 C 
ATOM     26  C   UNL     1      34.610 -19.261 -23.876  0.00  0.00    +0.005 C 
ATOM     27  C   UNL     1      34.205 -16.999 -24.722  0.00  0.00    +0.002 C 
ATOM     28  C   UNL     1      34.892 -15.988 -22.231  0.00  0.00    +0.085 C 
ATOM     29  C   UNL     1      34.179 -15.623 -24.508  0.00  0.00    -0.004 C 
ATOM     30  C   UNL     1      34.522 -15.118 -23.261  0.00  0.00    -0.019 C 
ENDBRANCH  20  22
ENDBRANCH  19  20
ENDBRANCH   4  19
TORSDOF 5
ENDMDL
MODEL 5
REMARK VINA RESULT:     -11.4      6.697     13.230
REMARK  Name = 11581936
REMARK  5 active torsions:
REMARK  status: ('A' for Active; 'I' for Inactive)
REMARK    1  A    between atoms: C_1  and  C_9
REMARK    2  A    between atoms: C_4  and  O_19
REMARK    3  A    between atoms: C_10  and  C_14
REMARK    4  A    between atoms: O_19  and  C_20
REMARK    5  A    between atoms: C_20  and  C_22
REMARK                            x       y       z     vdW  Elec       q    Type
REMARK                         _______ _______ _______ _____ _____    ______ ____
ROOT
ATOM      1  C   UNL     1      33.550  -8.819 -25.142  0.00  0.00    +0.019 C 
ATOM      2  C   UNL     1      34.420  -9.628 -24.411  0.00  0.00    +0.005 C 
ATOM      3  C   UNL     1      32.878  -9.338 -26.249  0.00  0.00    +0.005 C 
ATOM      4  C   UNL     1      33.944 -11.467 -25.892  0.00  0.00    +0.139 C 
ATOM      5  C   UNL     1      34.617 -10.956 -24.788  0.00  0.00    +0.037 C 
ATOM      6  C   UNL     1      33.075 -10.667 -26.625  0.00  0.00    +0.037 C 
ENDROOT
BRANCH   1   9
ATOM      7  N   UNL     1      33.295  -5.354 -24.918  0.00  0.00    -0.208 N 
ATOM      8  N   UNL     1      33.593  -6.460 -25.621  0.00  0.00    -0.178 NA
ATOM      9  C   UNL     1      33.346  -7.451 -24.755  0.00  0.00    +0.100 C 
ATOM     10  C   UNL     1      32.893  -6.972 -23.508  0.00  0.00    +0.036 C 
ATOM     11  C   UNL     1      32.870  -5.606 -23.647  0.00  0.00    +0.086 C 
ATOM     12  C   UNL     1      33.439  -4.055 -25.532  0.00  0.00    +0.140 C 
BRANCH  10  14
ATOM     13  N   UNL     1      31.781  -8.977 -19.952  0.00  0.00    -0.242 NA
ATOM     14  C   UNL     1      32.516  -7.650 -22.304  0.00  0.00    +0.006 C 
ATOM     15  C   UNL     1      31.594  -8.692 -22.346  0.00  0.00    +0.021 C 
ATOM     16  C   UNL     1      33.070  -7.274 -21.084  0.00  0.00    +0.021 C 
ATOM     17  C   UNL     1      31.263  -9.317 -21.154  0.00  0.00    +0.099 C 
ATOM     18  C   UNL     1      32.673  -7.961 -19.948  0.00  0.00    +0.099 C 
ENDBRANCH  10  14
ENDBRANCH   1   9
BRANCH   4  19
ATOM     19  O   UNL     1      34.138 -12.773 -26.261  0.00  0.00    -0.468 OA
BRANCH  19  20
ATOM     20  C   UNL     1      33.113 -13.695 -25.913  0.00  0.00    +0.264 C 
BRANCH  20  22
ATOM     21  N   UNL     1      33.615 -16.013 -25.428  0.00  0.00    -0.406 NA
ATOM     22  C   UNL     1      33.673 -14.732 -24.997  0.00  0.00    +0.152 C 
ATOM     23  C   UNL     1      34.678 -16.683 -23.371  0.00  0.00    +0.026 C 
ATOM     24  C   UNL     1      34.111 -16.977 -24.628  0.00  0.00    +0.113 C 
ATOM     25  C   UNL     1      34.209 -14.348 -23.784  0.00  0.00    +0.031 C 
ATOM     26  C   UNL     1      34.719 -15.343 -22.963  0.00  0.00    +0.005 C 
ATOM     27  C   UNL     1      35.184 -17.714 -22.563  0.00  0.00    +0.002 C 
ATOM     28  C   UNL     1      34.071 -18.308 -25.034  0.00  0.00    +0.085 C 
ATOM     29  C   UNL     1      35.132 -19.038 -22.992  0.00  0.00    -0.004 C 
ATOM     30  C   UNL     1      34.574 -19.335 -24.230  0.00  0.00    -0.019 C 
ENDBRANCH  20  22
ENDBRANCH  19  20
ENDBRANCH   4  19
TORSDOF 5
ENDMDL
MODEL 6
REMARK VINA RESULT:     -11.3      3.712     11.374
REMARK  Name = 11581936
REMARK  5 active torsions:
REMARK  status: ('A' for Active; 'I' for Inactive)
REMARK    1  A    between atoms: C_1  and  C_9
REMARK    2  A    between atoms: C_4  and  O_19
REMARK    3  A    between atoms: C_10  and  C_14
REMARK    4  A    between atoms: O_19  and  C_20
REMARK    5  A    between atoms: C_20  and  C_22
REMARK                            x       y       z     vdW  Elec       q    Type
REMARK                         _______ _______ _______ _____ _____    ______ ____
ROOT
ATOM      1  C   UNL     1      33.858 -12.514 -24.235  0.00  0.00    +0.019 C 
ATOM      2  C   UNL     1      34.279 -13.042 -23.015  0.00  0.00    +0.005 C 
ATOM      3  C   UNL     1      33.473 -13.367 -25.269  0.00  0.00    +0.005 C 
ATOM      4  C   UNL     1      33.931 -15.268 -23.864  0.00  0.00    +0.139 C 
ATOM      5  C   UNL     1      34.316 -14.424 -22.829  0.00  0.00    +0.037 C 
ATOM      6  C   UNL     1      33.509 -14.749 -25.083  0.00  0.00    +0.037 C 
ENDROOT
BRANCH   1   9
ATOM      7  N   UNL     1      34.246  -9.216 -25.279  0.00  0.00    -0.208 N 
ATOM      8  N   UNL     1      34.524 -10.523 -25.413  0.00  0.00    -0.178 NA
ATOM      9  C   UNL     1      33.820 -11.091 -24.426  0.00  0.00    +0.100 C 
ATOM     10  C   UNL     1      33.097 -10.144 -23.670  0.00  0.00    +0.036 C 
ATOM     11  C   UNL     1      33.395  -8.936 -24.251  0.00  0.00    +0.086 C 
ATOM     12  C   UNL     1      34.837  -8.261 -26.186  0.00  0.00    +0.140 C 
BRANCH  10  14
ATOM     13  N   UNL     1      30.526 -10.565 -20.337  0.00  0.00    -0.242 NA
ATOM     14  C   UNL     1      32.226 -10.286 -22.543  0.00  0.00    +0.006 C 
ATOM     15  C   UNL     1      31.412 -11.409 -22.422  0.00  0.00    +0.021 C 
ATOM     16  C   UNL     1      32.188  -9.304 -21.557  0.00  0.00    +0.021 C 
ATOM     17  C   UNL     1      30.588 -11.499 -21.311  0.00  0.00    +0.099 C 
ATOM     18  C   UNL     1      31.330  -9.488 -20.486  0.00  0.00    +0.099 C 
ENDBRANCH  10  14
ENDBRANCH   1   9
BRANCH   4  19
ATOM     19  O   UNL     1      33.966 -16.627 -23.681  0.00  0.00    -0.468 OA
BRANCH  19  20
ATOM     20  C   UNL     1      35.236 -17.255 -23.799  0.00  0.00    +0.264 C 
BRANCH  20  22
ATOM     21  N   UNL     1      34.236 -18.900 -22.330  0.00  0.00    -0.406 NA
ATOM     22  C   UNL     1      35.375 -18.290 -22.732  0.00  0.00    +0.152 C 
ATOM     23  C   UNL     1      35.556 -20.193 -20.782  0.00  0.00    +0.026 C 
ATOM     24  C   UNL     1      34.323 -19.839 -21.369  0.00  0.00    +0.113 C 
ATOM     25  C   UNL     1      36.625 -18.569 -22.218  0.00  0.00    +0.031 C 
ATOM     26  C   UNL     1      36.711 -19.537 -21.228  0.00  0.00    +0.005 C 
ATOM     27  C   UNL     1      35.608 -21.177 -19.781  0.00  0.00    +0.002 C 
ATOM     28  C   UNL     1      33.175 -20.491 -20.926  0.00  0.00    +0.085 C 
ATOM     29  C   UNL     1      34.445 -21.814 -19.356  0.00  0.00    -0.004 C 
ATOM     30  C   UNL     1      33.228 -21.470 -19.929  0.00  0.00    -0.019 C 
ENDBRANCH  20  22
ENDBRANCH  19  20
ENDBRANCH   4  19
TORSDOF 5
ENDMDL
MODEL 7
REMARK VINA RESULT:     -11.2      1.798      4.186
REMARK  Name = 11581936
REMARK  5 active torsions:
REMARK  status: ('A' for Active; 'I' for Inactive)
REMARK    1  A    between atoms: C_1  and  C_9
REMARK    2  A    between atoms: C_4  and  O_19
REMARK    3  A    between atoms: C_10  and  C_14
REMARK    4  A    between atoms: O_19  and  C_20
REMARK    5  A    between atoms: C_20  and  C_22
REMARK                            x       y       z     vdW  Elec       q    Type
REMARK                         _______ _______ _______ _____ _____    ______ ____
ROOT
ATOM      1  C   UNL     1      34.401 -23.276 -16.353  0.00  0.00    +0.019 C 
ATOM      2  C   UNL     1      35.549 -22.589 -16.748  0.00  0.00    +0.005 C 
ATOM      3  C   UNL     1      33.330 -23.410 -17.236  0.00  0.00    +0.005 C 
ATOM      4  C   UNL     1      34.554 -22.174 -18.901  0.00  0.00    +0.139 C 
ATOM      5  C   UNL     1      35.625 -22.036 -18.026  0.00  0.00    +0.037 C 
ATOM      6  C   UNL     1      33.406 -22.858 -18.515  0.00  0.00    +0.037 C 
ENDROOT
BRANCH   1   9
ATOM      7  N   UNL     1      34.977 -24.617 -13.192  0.00  0.00    -0.208 N 
ATOM      8  N   UNL     1      35.440 -24.104 -14.345  0.00  0.00    -0.178 NA
ATOM      9  C   UNL     1      34.323 -23.845 -15.037  0.00  0.00    +0.100 C 
ATOM     10  C   UNL     1      33.157 -24.194 -14.323  0.00  0.00    +0.036 C 
ATOM     11  C   UNL     1      33.617 -24.692 -13.128  0.00  0.00    +0.086 C 
ATOM     12  C   UNL     1      35.907 -25.027 -12.167  0.00  0.00    +0.140 C 
BRANCH  10  14
ATOM     13  N   UNL     1      29.053 -23.916 -15.314  0.00  0.00    -0.242 NA
ATOM     14  C   UNL     1      31.768 -24.100 -14.658  0.00  0.00    +0.006 C 
ATOM     15  C   UNL     1      31.172 -22.854 -14.835  0.00  0.00    +0.021 C 
ATOM     16  C   UNL     1      31.003 -25.253 -14.810  0.00  0.00    +0.021 C 
ATOM     17  C   UNL     1      29.825 -22.817 -15.159  0.00  0.00    +0.099 C 
ATOM     18  C   UNL     1      29.664 -25.109 -15.135  0.00  0.00    +0.099 C 
ENDBRANCH  10  14
ENDBRANCH   1   9
BRANCH   4  19
ATOM     19  O   UNL     1      34.629 -21.632 -20.158  0.00  0.00    -0.468 OA
BRANCH  19  20
ATOM     20  C   UNL     1      35.878 -21.070 -20.539  0.00  0.00    +0.264 C 
BRANCH  20  22
ATOM     21  N   UNL     1      34.829 -20.018 -22.450  0.00  0.00    -0.406 NA
ATOM     22  C   UNL     1      35.640 -19.859 -21.378  0.00  0.00    +0.152 C 
ATOM     23  C   UNL     1      35.160 -17.686 -22.960  0.00  0.00    +0.026 C 
ATOM     24  C   UNL     1      34.590 -18.947 -23.232  0.00  0.00    +0.113 C 
ATOM     25  C   UNL     1      36.242 -18.666 -21.034  0.00  0.00    +0.031 C 
ATOM     26  C   UNL     1      35.994 -17.565 -21.841  0.00  0.00    +0.005 C 
ATOM     27  C   UNL     1      34.890 -16.591 -23.798  0.00  0.00    +0.002 C 
ATOM     28  C   UNL     1      33.761 -19.066 -24.344  0.00  0.00    +0.085 C 
ATOM     29  C   UNL     1      34.058 -16.737 -24.905  0.00  0.00    -0.004 C 
ATOM     30  C   UNL     1      33.493 -17.977 -25.178  0.00  0.00    -0.019 C 
ENDBRANCH  20  22
ENDBRANCH  19  20
ENDBRANCH   4  19
TORSDOF 5
ENDMDL
MODEL 8
REMARK VINA RESULT:     -11.1      2.998     10.850
REMARK  Name = 11581936
REMARK  5 active torsions:
REMARK  status: ('A' for Active; 'I' for Inactive)
REMARK    1  A    between atoms: C_1  and  C_9
REMARK    2  A    between atoms: C_4  and  O_19
REMARK    3  A    between atoms: C_10  and  C_14
REMARK    4  A    between atoms: O_19  and  C_20
REMARK    5  A    between atoms: C_20  and  C_22
REMARK                            x       y       z     vdW  Elec       q    Type
REMARK                         _______ _______ _______ _____ _____    ______ ____
ROOT
ATOM      1  C   UNL     1      34.048 -13.875 -24.393  0.00  0.00    +0.019 C 
ATOM      2  C   UNL     1      33.593 -14.781 -25.350  0.00  0.00    +0.005 C 
ATOM      3  C   UNL     1      34.608 -14.339 -23.203  0.00  0.00    +0.005 C 
ATOM      4  C   UNL     1      34.261 -16.608 -23.930  0.00  0.00    +0.139 C 
ATOM      5  C   UNL     1      33.701 -16.153 -25.117  0.00  0.00    +0.037 C 
ATOM      6  C   UNL     1      34.716 -15.710 -22.970  0.00  0.00    +0.037 C 
ENDROOT
BRANCH   1   9
ATOM      7  N   UNL     1      34.232 -10.605 -25.575  0.00  0.00    -0.208 N 
ATOM      8  N   UNL     1      34.558 -11.905 -25.679  0.00  0.00    -0.178 NA
ATOM      9  C   UNL     1      33.938 -12.463 -24.632  0.00  0.00    +0.100 C 
ATOM     10  C   UNL     1      33.221 -11.518 -23.868  0.00  0.00    +0.036 C 
ATOM     11  C   UNL     1      33.432 -10.322 -24.508  0.00  0.00    +0.086 C 
ATOM     12  C   UNL     1      34.727  -9.663 -26.549  0.00  0.00    +0.140 C 
BRANCH  10  14
ATOM     13  N   UNL     1      30.866 -11.914 -20.375  0.00  0.00    -0.242 NA
ATOM     14  C   UNL     1      32.425 -11.652 -22.685  0.00  0.00    +0.006 C 
ATOM     15  C   UNL     1      31.755 -10.550 -22.162  0.00  0.00    +0.021 C 
ATOM     16  C   UNL     1      32.313 -12.886 -22.050  0.00  0.00    +0.021 C 
ATOM     17  C   UNL     1      30.997 -10.732 -21.017  0.00  0.00    +0.099 C 
ATOM     18  C   UNL     1      31.531 -12.964 -20.910  0.00  0.00    +0.099 C 
ENDBRANCH  10  14
ENDBRANCH   1   9
BRANCH   4  19
ATOM     19  O   UNL     1      34.367 -17.955 -23.701  0.00  0.00    -0.468 OA
BRANCH  19  20
ATOM     20  C   UNL     1      35.360 -18.371 -22.773  0.00  0.00    +0.264 C 
BRANCH  20  22
ATOM     21  N   UNL     1      35.622 -19.972 -20.975  0.00  0.00    -0.406 NA
ATOM     22  C   UNL     1      34.763 -19.349 -21.816  0.00  0.00    +0.152 C 
ATOM     23  C   UNL     1      33.741 -21.152 -20.038  0.00  0.00    +0.026 C 
ATOM     24  C   UNL     1      35.120 -20.861 -20.097  0.00  0.00    +0.113 C 
ATOM     25  C   UNL     1      33.401 -19.568 -21.832  0.00  0.00    +0.031 C 
ATOM     26  C   UNL     1      32.887 -20.485 -20.926  0.00  0.00    +0.005 C 
ATOM     27  C   UNL     1      33.253 -22.086 -19.110  0.00  0.00    +0.002 C 
ATOM     28  C   UNL     1      35.968 -21.523 -19.214  0.00  0.00    +0.085 C 
ATOM     29  C   UNL     1      34.123 -22.735 -18.238  0.00  0.00    -0.004 C 
ATOM     30  C   UNL     1      35.482 -22.453 -18.290  0.00  0.00    -0.019 C 
ENDBRANCH  20  22
ENDBRANCH  19  20
ENDBRANCH   4  19
TORSDOF 5
ENDMDL
MODEL 9
REMARK VINA RESULT:     -10.8      2.463     10.265
REMARK  Name = 11581936
REMARK  5 active torsions:
REMARK  status: ('A' for Active; 'I' for Inactive)
REMARK    1  A    between atoms: C_1  and  C_9
REMARK    2  A    between atoms: C_4  and  O_19
REMARK    3  A    between atoms: C_10  and  C_14
REMARK    4  A    between atoms: O_19  and  C_20
REMARK    5  A    between atoms: C_20  and  C_22
REMARK                            x       y       z     vdW  Elec       q    Type
REMARK                         _______ _______ _______ _____ _____    ______ ____
ROOT
ATOM      1  C   UNL     1      34.145 -15.583 -24.519  0.00  0.00    +0.019 C 
ATOM      2  C   UNL     1      33.587 -16.712 -25.118  0.00  0.00    +0.005 C 
ATOM      3  C   UNL     1      35.012 -15.724 -23.436  0.00  0.00    +0.005 C 
ATOM      4  C   UNL     1      34.762 -18.116 -23.554  0.00  0.00    +0.139 C 
ATOM      5  C   UNL     1      33.897 -17.983 -24.633  0.00  0.00    +0.037 C 
ATOM      6  C   UNL     1      35.323 -16.995 -22.952  0.00  0.00    +0.037 C 
ENDROOT
BRANCH   1   9
ATOM      7  N   UNL     1      33.679 -12.677 -26.379  0.00  0.00    -0.208 N 
ATOM      8  N   UNL     1      34.111 -13.946 -26.284  0.00  0.00    -0.178 NA
ATOM      9  C   UNL     1      33.826 -14.275 -25.017  0.00  0.00    +0.100 C 
ATOM     10  C   UNL     1      33.213 -13.216 -24.314  0.00  0.00    +0.036 C 
ATOM     11  C   UNL     1      33.132 -12.193 -25.227  0.00  0.00    +0.086 C 
ATOM     12  C   UNL     1      33.819 -11.965 -27.626  0.00  0.00    +0.140 C 
BRANCH  10  14
ATOM     13  N   UNL     1      31.824 -12.905 -20.330  0.00  0.00    -0.242 NA
ATOM     14  C   UNL     1      32.744 -13.110 -22.965  0.00  0.00    +0.006 C 
ATOM     15  C   UNL     1      31.886 -12.077 -22.600  0.00  0.00    +0.021 C 
ATOM     16  C   UNL     1      33.141 -14.041 -22.009  0.00  0.00    +0.021 C 
ATOM     17  C   UNL     1      31.460 -12.019 -21.283  0.00  0.00    +0.099 C 
ATOM     18  C   UNL     1      32.658 -13.896 -20.719  0.00  0.00    +0.099 C 
ENDBRANCH  10  14
ENDBRANCH   1   9
BRANCH   4  19
ATOM     19  O   UNL     1      35.068 -19.365 -23.078  0.00  0.00    -0.468 OA
BRANCH  19  20
ATOM     20  C   UNL     1      35.681 -19.430 -21.797  0.00  0.00    +0.264 C 
BRANCH  20  22
ATOM     21  N   UNL     1      35.487 -20.942 -19.916  0.00  0.00    -0.406 NA
ATOM     22  C   UNL     1      34.837 -20.260 -20.887  0.00  0.00    +0.152 C 
ATOM     23  C   UNL     1      33.357 -21.800 -19.187  0.00  0.00    +0.026 C 
ATOM     24  C   UNL     1      34.759 -21.702 -19.076  0.00  0.00    +0.113 C 
ATOM     25  C   UNL     1      33.470 -20.294 -21.074  0.00  0.00    +0.031 C 
ATOM     26  C   UNL     1      32.723 -21.078 -20.207  0.00  0.00    +0.005 C 
ATOM     27  C   UNL     1      32.629 -22.604 -18.294  0.00  0.00    +0.002 C 
ATOM     28  C   UNL     1      35.388 -22.419 -18.062  0.00  0.00    +0.085 C 
ATOM     29  C   UNL     1      33.283 -23.312 -17.288  0.00  0.00    -0.004 C 
ATOM     30  C   UNL     1      34.664 -23.219 -17.173  0.00  0.00    -0.019 C 
ENDBRANCH  20  22
ENDBRANCH  19  20
ENDBRANCH   4  19
TORSDOF 5
ENDMDL
