MODEL 1
REMARK VINA RESULT:     -13.1      0.000      0.000
REMARK  Name = 71351
REMARK  4 active torsions:
REMARK  status: ('A' for Active; 'I' for Inactive)
REMARK    1  A    between atoms: N_1  and  C_18
REMARK    2  A    between atoms: C_2  and  C_11
REMARK    3  A    between atoms: C_18  and  C_19
REMARK    4  A    between atoms: C_19  and  C_23
REMARK                            x       y       z     vdW  Elec       q    Type
REMARK                         _______ _______ _______ _____ _____    ______ ____
ROOT
ATOM      1  N   UNL     1      35.720 -19.661 -20.580  0.00  0.00    +0.387 N 
ATOM      2  C   UNL     1      35.128 -18.428 -23.175  0.00  0.00    +0.039 C 
ATOM      3  C   UNL     1      36.246 -17.914 -22.252  0.00  0.00    -0.017 C 
ATOM      4  C   UNL     1      34.059 -19.156 -22.344  0.00  0.00    -0.017 C 
ATOM      5  C   UNL     1      36.792 -19.035 -21.364  0.00  0.00    -0.077 C 
ATOM      6  C   UNL     1      34.686 -20.232 -21.454  0.00  0.00    -0.077 C 
ATOM      7  H   UNL     1      35.284 -18.937 -20.008  0.00  0.00    -0.080 HD
ENDROOT
BRANCH   2  11
ATOM      8  F   UNL     1      33.304 -12.006 -23.988  0.00  0.00    -0.204 F 
ATOM      9  O   UNL     1      33.685 -16.440 -25.812  0.00  0.00    -0.354 OA
ATOM     10  N   UNL     1      34.162 -17.637 -25.289  0.00  0.00    -0.081 NA
ATOM     11  C   UNL     1      34.547 -17.341 -24.050  0.00  0.00    +0.100 A 
ATOM     12  C   UNL     1      34.348 -15.991 -23.720  0.00  0.00    +0.054 A 
ATOM     13  C   UNL     1      33.798 -15.461 -24.873  0.00  0.00    +0.179 A 
ATOM     14  C   UNL     1      34.554 -15.153 -22.615  0.00  0.00    +0.007 C 
ATOM     15  C   UNL     1      33.425 -14.129 -25.024  0.00  0.00    +0.070 C 
ATOM     16  C   UNL     1      34.191 -13.803 -22.731  0.00  0.00    +0.030 C 
ATOM     17  C   UNL     1      33.638 -13.303 -23.915  0.00  0.00    +0.143 C 
ENDBRANCH   2  11
BRANCH   1  18
ATOM     18  C   UNL     1      36.267 -20.690 -19.695  0.00  0.00    -0.076 C 
BRANCH  18  19
ATOM     19  C   UNL     1      35.474 -21.980 -19.848  0.00  0.00    -0.007 C 
BRANCH  19  23
ATOM     20  O   UNL     1      32.793 -22.619 -19.531  0.00  0.00    -0.274 OA
ATOM     21  N   UNL     1      32.951 -23.092 -17.247  0.00  0.00    -0.211 N 
ATOM     22  N   UNL     1      35.068 -22.947 -16.182  0.00  0.00    -0.395 NA
ATOM     23  C   UNL     1      34.924 -22.430 -18.526  0.00  0.00    +0.123 C 
ATOM     24  C   UNL     1      35.619 -22.570 -17.381  0.00  0.00    +0.097 C 
ATOM     25  C   UNL     1      33.455 -22.719 -18.497  0.00  0.00    +0.241 C 
ATOM     26  C   UNL     1      33.794 -23.190 -16.134  0.00  0.00    +0.188 C 
ATOM     27  C   UNL     1      37.107 -22.347 -17.296  0.00  0.00    +0.062 C 
ATOM     28  C   UNL     1      33.165 -23.602 -14.828  0.00  0.00    +0.023 C 
ATOM     29  C   UNL     1      31.593 -23.369 -17.133  0.00  0.00    +0.074 C 
ATOM     30  C   UNL     1      31.848 -23.852 -14.797  0.00  0.00    +0.001 C 
ATOM     31  C   UNL     1      31.037 -23.735 -15.975  0.00  0.00    +0.016 C 
ATOM     32  C   UNL     1      34.043 -23.713 -13.620  0.00  0.00    +0.035 C 
ENDBRANCH  19  23
ENDBRANCH  18  19
ENDBRANCH   1  18
TORSDOF 4
ENDMDL
MODEL 2
REMARK VINA RESULT:     -12.7      1.034      1.997
REMARK  Name = 71351
REMARK  4 active torsions:
REMARK  status: ('A' for Active; 'I' for Inactive)
REMARK    1  A    between atoms: N_1  and  C_18
REMARK    2  A    between atoms: C_2  and  C_11
REMARK    3  A    between atoms: C_18  and  C_19
REMARK    4  A    between atoms: C_19  and  C_23
REMARK                            x       y       z     vdW  Elec       q    Type
REMARK                         _______ _______ _______ _____ _____    ______ ____
ROOT
ATOM      1  N   UNL     1      35.541 -19.570 -20.760  0.00  0.00    +0.387 N 
ATOM      2  C   UNL     1      35.215 -18.122 -23.291  0.00  0.00    +0.039 C 
ATOM      3  C   UNL     1      36.012 -17.548 -22.108  0.00  0.00    -0.017 C 
ATOM      4  C   UNL     1      34.176 -19.133 -22.779  0.00  0.00    -0.017 C 
ATOM      5  C   UNL     1      36.594 -18.664 -21.237  0.00  0.00    -0.077 C 
ATOM      6  C   UNL     1      34.827 -20.191 -21.884  0.00  0.00    -0.077 C 
ATOM      7  H   UNL     1      34.869 -19.018 -20.227  0.00  0.00    -0.080 HD
ENDROOT
BRANCH   2  11
ATOM      8  F   UNL     1      33.122 -11.775 -24.038  0.00  0.00    -0.204 F 
ATOM      9  O   UNL     1      33.736 -16.156 -25.924  0.00  0.00    -0.354 OA
ATOM     10  N   UNL     1      34.256 -17.338 -25.411  0.00  0.00    -0.081 NA
ATOM     11  C   UNL     1      34.603 -17.047 -24.159  0.00  0.00    +0.100 A 
ATOM     12  C   UNL     1      34.338 -15.713 -23.812  0.00  0.00    +0.054 A 
ATOM     13  C   UNL     1      33.787 -15.188 -24.968  0.00  0.00    +0.179 A 
ATOM     14  C   UNL     1      34.485 -14.885 -22.690  0.00  0.00    +0.007 C 
ATOM     15  C   UNL     1      33.358 -13.871 -25.105  0.00  0.00    +0.070 C 
ATOM     16  C   UNL     1      34.065 -13.551 -22.792  0.00  0.00    +0.030 C 
ATOM     17  C   UNL     1      33.513 -13.056 -23.979  0.00  0.00    +0.143 C 
ENDBRANCH   2  11
BRANCH   1  18
ATOM     18  C   UNL     1      36.107 -20.596 -19.883  0.00  0.00    -0.076 C 
BRANCH  18  19
ATOM     19  C   UNL     1      35.434 -21.934 -20.151  0.00  0.00    -0.007 C 
BRANCH  19  23
ATOM     20  O   UNL     1      36.174 -22.916 -17.665  0.00  0.00    -0.274 OA
ATOM     21  N   UNL     1      33.992 -23.111 -16.849  0.00  0.00    -0.211 N 
ATOM     22  N   UNL     1      32.181 -22.426 -18.223  0.00  0.00    -0.395 NA
ATOM     23  C   UNL     1      34.416 -22.242 -19.093  0.00  0.00    +0.123 C 
ATOM     24  C   UNL     1      33.081 -22.095 -19.204  0.00  0.00    +0.097 C 
ATOM     25  C   UNL     1      34.958 -22.788 -17.808  0.00  0.00    +0.241 C 
ATOM     26  C   UNL     1      32.631 -22.913 -17.107  0.00  0.00    +0.188 C 
ATOM     27  C   UNL     1      32.423 -21.520 -20.431  0.00  0.00    +0.062 C 
ATOM     28  C   UNL     1      31.662 -23.287 -16.015  0.00  0.00    +0.023 C 
ATOM     29  C   UNL     1      34.413 -23.633 -15.631  0.00  0.00    +0.074 C 
ATOM     30  C   UNL     1      32.144 -23.784 -14.867  0.00  0.00    +0.001 C 
ATOM     31  C   UNL     1      33.553 -23.964 -14.664  0.00  0.00    +0.016 C 
ATOM     32  C   UNL     1      30.199 -23.085 -16.264  0.00  0.00    +0.035 C 
ENDBRANCH  19  23
ENDBRANCH  18  19
ENDBRANCH   1  18
TORSDOF 4
ENDMDL
MODEL 3
REMARK VINA RESULT:     -12.6      4.256     10.531
REMARK  Name = 71351
REMARK  4 active torsions:
REMARK  status: ('A' for Active; 'I' for Inactive)
REMARK    1  A    between atoms: N_1  and  C_18
REMARK    2  A    between atoms: C_2  and  C_11
REMARK    3  A    between atoms: C_18  and  C_19
REMARK    4  A    between atoms: C_19  and  C_23
REMARK                            x       y       z     vdW  Elec       q    Type
REMARK                         _______ _______ _______ _____ _____    ______ ____
ROOT
ATOM      1  N   UNL     1      34.895 -15.369 -23.534  0.00  0.00    +0.387 N 
ATOM      2  C   UNL     1      34.602 -17.907 -22.091  0.00  0.00    +0.039 C 
ATOM      3  C   UNL     1      34.898 -16.579 -21.374  0.00  0.00    -0.017 C 
ATOM      4  C   UNL     1      35.096 -17.836 -23.545  0.00  0.00    -0.017 C 
ATOM      5  C   UNL     1      34.356 -15.387 -22.168  0.00  0.00    -0.077 C 
ATOM      6  C   UNL     1      34.546 -16.598 -24.258  0.00  0.00    -0.077 C 
ATOM      7  H   UNL     1      35.913 -15.320 -23.470  0.00  0.00    -0.080 HD
ENDROOT
BRANCH   2  11
ATOM      8  F   UNL     1      33.497 -23.600 -18.687  0.00  0.00    -0.204 F 
ATOM      9  O   UNL     1      36.625 -20.428 -20.500  0.00  0.00    -0.354 OA
ATOM     10  N   UNL     1      36.462 -19.250 -21.218  0.00  0.00    -0.081 NA
ATOM     11  C   UNL     1      35.146 -19.105 -21.348  0.00  0.00    +0.100 A 
ATOM     12  C   UNL     1      34.417 -20.142 -20.745  0.00  0.00    +0.054 A 
ATOM     13  C   UNL     1      35.403 -20.959 -20.220  0.00  0.00    +0.179 A 
ATOM     14  C   UNL     1      33.072 -20.500 -20.572  0.00  0.00    +0.007 C 
ATOM     15  C   UNL     1      35.156 -22.134 -19.517  0.00  0.00    +0.070 C 
ATOM     16  C   UNL     1      32.786 -21.679 -19.870  0.00  0.00    +0.030 C 
ATOM     17  C   UNL     1      33.810 -22.480 -19.353  0.00  0.00    +0.143 C 
ENDBRANCH   2  11
BRANCH   1  18
ATOM     18  C   UNL     1      34.413 -14.193 -24.259  0.00  0.00    -0.076 C 
BRANCH  18  19
ATOM     19  C   UNL     1      32.959 -13.925 -23.901  0.00  0.00    -0.007 C 
BRANCH  19  23
ATOM     20  O   UNL     1      31.761 -13.450 -21.444  0.00  0.00    -0.274 OA
ATOM     21  N   UNL     1      31.912 -11.122 -21.573  0.00  0.00    -0.211 N 
ATOM     22  N   UNL     1      32.957 -10.136 -23.465  0.00  0.00    -0.395 NA
ATOM     23  C   UNL     1      32.788 -12.533 -23.365  0.00  0.00    +0.123 C 
ATOM     24  C   UNL     1      33.168 -11.393 -23.973  0.00  0.00    +0.097 C 
ATOM     25  C   UNL     1      32.104 -12.427 -22.037  0.00  0.00    +0.241 C 
ATOM     26  C   UNL     1      32.354 -10.023 -22.320  0.00  0.00    +0.188 C 
ATOM     27  C   UNL     1      33.899 -11.375 -25.290  0.00  0.00    +0.062 C 
ATOM     28  C   UNL     1      32.108  -8.654 -21.742  0.00  0.00    +0.023 C 
ATOM     29  C   UNL     1      31.275 -10.936 -20.351  0.00  0.00    +0.074 C 
ATOM     30  C   UNL     1      31.487  -8.556 -20.558  0.00  0.00    +0.001 C 
ATOM     31  C   UNL     1      31.058  -9.722 -19.840  0.00  0.00    +0.016 C 
ATOM     32  C   UNL     1      32.570  -7.460 -22.520  0.00  0.00    +0.035 C 
ENDBRANCH  19  23
ENDBRANCH  18  19
ENDBRANCH   1  18
TORSDOF 4
ENDMDL
MODEL 4
REMARK VINA RESULT:     -12.6      3.607     10.906
REMARK  Name = 71351
REMARK  4 active torsions:
REMARK  status: ('A' for Active; 'I' for Inactive)
REMARK    1  A    between atoms: N_1  and  C_18
REMARK    2  A    between atoms: C_2  and  C_11
REMARK    3  A    between atoms: C_18  and  C_19
REMARK    4  A    between atoms: C_19  and  C_23
REMARK                            x       y       z     vdW  Elec       q    Type
REMARK                         _______ _______ _______ _____ _____    ______ ____
ROOT
ATOM      1  N   UNL     1      35.198 -16.865 -23.957  0.00  0.00    +0.387 N 
ATOM      2  C   UNL     1      34.678 -18.874 -21.884  0.00  0.00    +0.039 C 
ATOM      3  C   UNL     1      35.343 -17.523 -21.575  0.00  0.00    -0.017 C 
ATOM      4  C   UNL     1      34.916 -19.250 -23.356  0.00  0.00    -0.017 C 
ATOM      5  C   UNL     1      34.911 -16.450 -22.578  0.00  0.00    -0.077 C 
ATOM      6  C   UNL     1      34.498 -18.113 -24.292  0.00  0.00    -0.077 C 
ATOM      7  H   UNL     1      36.201 -17.037 -24.033  0.00  0.00    -0.080 HD
ENDROOT
BRANCH   2  11
ATOM      8  F   UNL     1      33.022 -23.809 -17.625  0.00  0.00    -0.204 F 
ATOM      9  O   UNL     1      36.445 -21.230 -19.808  0.00  0.00    -0.354 OA
ATOM     10  N   UNL     1      36.399 -20.182 -20.720  0.00  0.00    -0.081 NA
ATOM     11  C   UNL     1      35.102 -19.966 -20.928  0.00  0.00    +0.100 A 
ATOM     12  C   UNL     1      34.275 -20.828 -20.192  0.00  0.00    +0.054 A 
ATOM     13  C   UNL     1      35.177 -21.614 -19.496  0.00  0.00    +0.179 A 
ATOM     14  C   UNL     1      32.901 -21.052 -20.019  0.00  0.00    +0.007 C 
ATOM     15  C   UNL     1      34.817 -22.631 -18.617  0.00  0.00    +0.070 C 
ATOM     16  C   UNL     1      32.502 -22.070 -19.142  0.00  0.00    +0.030 C 
ATOM     17  C   UNL     1      33.444 -22.844 -18.456  0.00  0.00    +0.143 C 
ENDBRANCH   2  11
BRANCH   1  18
ATOM     18  C   UNL     1      34.832 -15.805 -24.897  0.00  0.00    -0.076 C 
BRANCH  18  19
ATOM     19  C   UNL     1      33.425 -15.310 -24.596  0.00  0.00    -0.007 C 
BRANCH  19  23
ATOM     20  O   UNL     1      33.984 -13.673 -26.766  0.00  0.00    -0.274 OA
ATOM     21  N   UNL     1      33.759 -11.667 -25.589  0.00  0.00    -0.211 N 
ATOM     22  N   UNL     1      33.147 -11.736 -23.295  0.00  0.00    -0.395 NA
ATOM     23  C   UNL     1      33.399 -13.814 -24.480  0.00  0.00    +0.123 C 
ATOM     24  C   UNL     1      33.120 -13.106 -23.368  0.00  0.00    +0.097 C 
ATOM     25  C   UNL     1      33.744 -13.058 -25.727  0.00  0.00    +0.241 C 
ATOM     26  C   UNL     1      33.455 -11.063 -24.363  0.00  0.00    +0.188 C 
ATOM     27  C   UNL     1      32.722 -13.752 -22.067  0.00  0.00    +0.062 C 
ATOM     28  C   UNL     1      33.493  -9.559 -24.308  0.00  0.00    +0.023 C 
ATOM     29  C   UNL     1      34.079 -10.892 -26.698  0.00  0.00    +0.074 C 
ATOM     30  C   UNL     1      33.811  -8.880 -25.420  0.00  0.00    +0.001 C 
ATOM     31  C   UNL     1      34.112  -9.558 -26.648  0.00  0.00    +0.016 C 
ATOM     32  C   UNL     1      33.174  -8.886 -23.008  0.00  0.00    +0.035 C 
ENDBRANCH  19  23
ENDBRANCH  18  19
ENDBRANCH   1  18
TORSDOF 4
ENDMDL
MODEL 5
REMARK VINA RESULT:     -12.3      4.264     11.340
REMARK  Name = 71351
REMARK  4 active torsions:
REMARK  status: ('A' for Active; 'I' for Inactive)
REMARK    1  A    between atoms: N_1  and  C_18
REMARK    2  A    between atoms: C_2  and  C_11
REMARK    3  A    between atoms: C_18  and  C_19
REMARK    4  A    between atoms: C_19  and  C_23
REMARK                            x       y       z     vdW  Elec       q    Type
REMARK                         _______ _______ _______ _____ _____    ______ ____
ROOT
ATOM      1  N   UNL     1      33.527 -15.324 -23.991  0.00  0.00    +0.387 N 
ATOM      2  C   UNL     1      35.359 -17.267 -22.777  0.00  0.00    +0.039 C 
ATOM      3  C   UNL     1      34.475 -17.611 -23.987  0.00  0.00    -0.017 C 
ATOM      4  C   UNL     1      34.725 -16.119 -21.976  0.00  0.00    -0.017 C 
ATOM      5  C   UNL     1      34.158 -16.364 -24.815  0.00  0.00    -0.077 C 
ATOM      6  C   UNL     1      34.400 -14.926 -22.879  0.00  0.00    -0.077 C 
ATOM      7  H   UNL     1      32.671 -15.713 -23.596  0.00  0.00    -0.080 HD
ENDROOT
BRANCH   2  11
ATOM      8  F   UNL     1      33.214 -22.575 -19.248  0.00  0.00    -0.204 F 
ATOM      9  O   UNL     1      36.880 -19.904 -20.848  0.00  0.00    -0.354 OA
ATOM     10  N   UNL     1      36.939 -18.761 -21.636  0.00  0.00    -0.081 NA
ATOM     11  C   UNL     1      35.671 -18.473 -21.920  0.00  0.00    +0.100 A 
ATOM     12  C   UNL     1      34.762 -19.379 -21.354  0.00  0.00    +0.054 A 
ATOM     13  C   UNL     1      35.579 -20.271 -20.682  0.00  0.00    +0.179 A 
ATOM     14  C   UNL     1      33.372 -19.567 -21.317  0.00  0.00    +0.007 C 
ATOM     15  C   UNL     1      35.118 -21.364 -19.956  0.00  0.00    +0.070 C 
ATOM     16  C   UNL     1      32.872 -20.660 -20.594  0.00  0.00    +0.030 C 
ATOM     17  C   UNL     1      33.731 -21.541 -19.928  0.00  0.00    +0.143 C 
ENDBRANCH   2  11
BRANCH   1  18
ATOM     18  C   UNL     1      33.180 -14.163 -24.811  0.00  0.00    -0.076 C 
BRANCH  18  19
ATOM     19  C   UNL     1      34.300 -13.135 -24.753  0.00  0.00    -0.007 C 
BRANCH  19  23
ATOM     20  O   UNL     1      32.914 -12.247 -22.520  0.00  0.00    -0.274 OA
ATOM     21  N   UNL     1      32.450 -10.124 -23.381  0.00  0.00    -0.211 N 
ATOM     22  N   UNL     1      33.278  -9.544 -25.529  0.00  0.00    -0.395 NA
ATOM     23  C   UNL     1      33.745 -11.743 -24.674  0.00  0.00    +0.123 C 
ATOM     24  C   UNL     1      33.836 -10.794 -25.626  0.00  0.00    +0.097 C 
ATOM     25  C   UNL     1      33.000 -11.409 -23.418  0.00  0.00    +0.241 C 
ATOM     26  C   UNL     1      32.618  -9.240 -24.453  0.00  0.00    +0.188 C 
ATOM     27  C   UNL     1      34.593 -10.998 -26.913  0.00  0.00    +0.062 C 
ATOM     28  C   UNL     1      31.994  -7.875 -24.325  0.00  0.00    +0.023 C 
ATOM     29  C   UNL     1      31.734  -9.740 -22.252  0.00  0.00    +0.074 C 
ATOM     30  C   UNL     1      31.318  -7.578 -23.205  0.00  0.00    +0.001 C 
ATOM     31  C   UNL     1      31.182  -8.529 -22.140  0.00  0.00    +0.016 C 
ATOM     32  C   UNL     1      32.156  -6.910 -25.458  0.00  0.00    +0.035 C 
ENDBRANCH  19  23
ENDBRANCH  18  19
ENDBRANCH   1  18
TORSDOF 4
ENDMDL
MODEL 6
REMARK VINA RESULT:     -12.2      4.115     11.084
REMARK  Name = 71351
REMARK  4 active torsions:
REMARK  status: ('A' for Active; 'I' for Inactive)
REMARK    1  A    between atoms: N_1  and  C_18
REMARK    2  A    between atoms: C_2  and  C_11
REMARK    3  A    between atoms: C_18  and  C_19
REMARK    4  A    between atoms: C_19  and  C_23
REMARK                            x       y       z     vdW  Elec       q    Type
REMARK                         _______ _______ _______ _____ _____    ______ ____
ROOT
ATOM      1  N   UNL     1      34.973 -15.459 -23.624  0.00  0.00    +0.387 N 
ATOM      2  C   UNL     1      34.644 -17.946 -22.103  0.00  0.00    +0.039 C 
ATOM      3  C   UNL     1      34.914 -16.593 -21.424  0.00  0.00    -0.017 C 
ATOM      4  C   UNL     1      35.182 -17.925 -23.543  0.00  0.00    -0.017 C 
ATOM      5  C   UNL     1      34.393 -15.432 -22.274  0.00  0.00    -0.077 C 
ATOM      6  C   UNL     1      34.650 -16.714 -24.315  0.00  0.00    -0.077 C 
ATOM      7  H   UNL     1      35.987 -15.403 -23.531  0.00  0.00    -0.080 HD
ENDROOT
BRANCH   2  11
ATOM      8  F   UNL     1      33.464 -23.575 -18.617  0.00  0.00    -0.204 F 
ATOM      9  O   UNL     1      36.626 -20.390 -20.345  0.00  0.00    -0.354 OA
ATOM     10  N   UNL     1      36.480 -19.232 -21.101  0.00  0.00    -0.081 NA
ATOM     11  C   UNL     1      35.170 -19.116 -21.302  0.00  0.00    +0.100 A 
ATOM     12  C   UNL     1      34.429 -20.151 -20.712  0.00  0.00    +0.054 A 
ATOM     13  C   UNL     1      35.400 -20.936 -20.116  0.00  0.00    +0.179 A 
ATOM     14  C   UNL     1      33.083 -20.530 -20.600  0.00  0.00    +0.007 C 
ATOM     15  C   UNL     1      35.138 -22.099 -19.397  0.00  0.00    +0.070 C 
ATOM     16  C   UNL     1      32.781 -21.697 -19.884  0.00  0.00    +0.030 C 
ATOM     17  C   UNL     1      33.792 -22.466 -19.295  0.00  0.00    +0.143 C 
ENDBRANCH   2  11
BRANCH   1  18
ATOM     18  C   UNL     1      34.509 -14.311 -24.403  0.00  0.00    -0.076 C 
BRANCH  18  19
ATOM     19  C   UNL     1      33.058 -14.004 -24.059  0.00  0.00    -0.007 C 
BRANCH  19  23
ATOM     20  O   UNL     1      33.888 -11.992 -25.779  0.00  0.00    -0.274 OA
ATOM     21  N   UNL     1      33.276 -10.232 -24.367  0.00  0.00    -0.211 N 
ATOM     22  N   UNL     1      32.241 -10.727 -22.288  0.00  0.00    -0.395 NA
ATOM     23  C   UNL     1      32.887 -12.554 -23.713  0.00  0.00    +0.123 C 
ATOM     24  C   UNL     1      32.342 -12.064 -22.582  0.00  0.00    +0.097 C 
ATOM     25  C   UNL     1      33.402 -11.578 -24.725  0.00  0.00    +0.241 C 
ATOM     26  C   UNL     1      32.693  -9.866 -23.148  0.00  0.00    +0.188 C 
ATOM     27  C   UNL     1      31.755 -12.945 -21.510  0.00  0.00    +0.062 C 
ATOM     28  C   UNL     1      32.595  -8.394 -22.846  0.00  0.00    +0.023 C 
ATOM     29  C   UNL     1      33.738  -9.263 -25.249  0.00  0.00    +0.074 C 
ATOM     30  C   UNL     1      33.064  -7.518 -23.747  0.00  0.00    +0.001 C 
ATOM     31  C   UNL     1      33.651  -7.957 -24.980  0.00  0.00    +0.016 C 
ATOM     32  C   UNL     1      31.977  -7.973 -21.548  0.00  0.00    +0.035 C 
ENDBRANCH  19  23
ENDBRANCH  18  19
ENDBRANCH   1  18
TORSDOF 4
ENDMDL
MODEL 7
REMARK VINA RESULT:     -11.3      6.762     13.944
REMARK  Name = 71351
REMARK  4 active torsions:
REMARK  status: ('A' for Active; 'I' for Inactive)
REMARK    1  A    between atoms: N_1  and  C_18
REMARK    2  A    between atoms: C_2  and  C_11
REMARK    3  A    between atoms: C_18  and  C_19
REMARK    4  A    between atoms: C_19  and  C_23
REMARK                            x       y       z     vdW  Elec       q    Type
REMARK                         _______ _______ _______ _____ _____    ______ ____
ROOT
ATOM      1  N   UNL     1      32.001 -10.383 -23.199  0.00  0.00    +0.387 N 
ATOM      2  C   UNL     1      33.468 -12.881 -23.663  0.00  0.00    +0.039 C 
ATOM      3  C   UNL     1      33.516 -11.700 -24.647  0.00  0.00    -0.017 C 
ATOM      4  C   UNL     1      32.166 -12.828 -22.847  0.00  0.00    -0.017 C 
ATOM      5  C   UNL     1      33.275 -10.370 -23.930  0.00  0.00    -0.077 C 
ATOM      6  C   UNL     1      31.976 -11.455 -22.196  0.00  0.00    -0.077 C 
ATOM      7  H   UNL     1      31.255 -10.563 -23.872  0.00  0.00    -0.080 HD
ENDROOT
BRANCH   2  11
ATOM      8  F   UNL     1      35.558 -19.266 -23.364  0.00  0.00    -0.204 F 
ATOM      9  O   UNL     1      33.643 -15.677 -25.930  0.00  0.00    -0.354 OA
ATOM     10  N   UNL     1      33.327 -14.360 -25.618  0.00  0.00    -0.081 NA
ATOM     11  C   UNL     1      33.677 -14.216 -24.342  0.00  0.00    +0.100 A 
ATOM     12  C   UNL     1      34.215 -15.385 -23.784  0.00  0.00    +0.054 A 
ATOM     13  C   UNL     1      34.172 -16.286 -24.833  0.00  0.00    +0.179 A 
ATOM     14  C   UNL     1      34.729 -15.803 -22.547  0.00  0.00    +0.007 C 
ATOM     15  C   UNL     1      34.610 -17.604 -24.754  0.00  0.00    +0.070 C 
ATOM     16  C   UNL     1      35.179 -17.126 -22.431  0.00  0.00    +0.030 C 
ATOM     17  C   UNL     1      35.118 -18.008 -23.515  0.00  0.00    +0.143 C 
ENDBRANCH   2  11
BRANCH   1  18
ATOM     18  C   UNL     1      31.760  -9.085 -22.568  0.00  0.00    -0.076 C 
BRANCH  18  19
ATOM     19  C   UNL     1      33.074  -8.333 -22.412  0.00  0.00    -0.007 C 
BRANCH  19  23
ATOM     20  O   UNL     1      30.864  -6.681 -22.699  0.00  0.00    -0.274 OA
ATOM     21  N   UNL     1      31.867  -5.242 -24.244  0.00  0.00    -0.211 N 
ATOM     22  N   UNL     1      34.127  -5.615 -24.871  0.00  0.00    -0.395 NA
ATOM     23  C   UNL     1      33.106  -7.124 -23.301  0.00  0.00    +0.123 C 
ATOM     24  C   UNL     1      34.152  -6.706 -24.039  0.00  0.00    +0.097 C 
ATOM     25  C   UNL     1      31.833  -6.339 -23.377  0.00  0.00    +0.241 C 
ATOM     26  C   UNL     1      33.028  -4.928 -24.960  0.00  0.00    +0.188 C 
ATOM     27  C   UNL     1      35.494  -7.391 -24.015  0.00  0.00    +0.062 C 
ATOM     28  C   UNL     1      32.974  -3.728 -25.868  0.00  0.00    +0.023 C 
ATOM     29  C   UNL     1      30.721  -4.465 -24.379  0.00  0.00    +0.074 C 
ATOM     30  C   UNL     1      31.833  -3.028 -25.945  0.00  0.00    +0.001 C 
ATOM     31  C   UNL     1      30.675  -3.401 -25.184  0.00  0.00    +0.016 C 
ATOM     32  C   UNL     1      34.202  -3.369 -26.647  0.00  0.00    +0.035 C 
ENDBRANCH  19  23
ENDBRANCH  18  19
ENDBRANCH   1  18
TORSDOF 4
ENDMDL
MODEL 8
REMARK VINA RESULT:     -11.3      1.406      1.952
REMARK  Name = 71351
REMARK  4 active torsions:
REMARK  status: ('A' for Active; 'I' for Inactive)
REMARK    1  A    between atoms: N_1  and  C_18
REMARK    2  A    between atoms: C_2  and  C_11
REMARK    3  A    between atoms: C_18  and  C_19
REMARK    4  A    between atoms: C_19  and  C_23
REMARK                            x       y       z     vdW  Elec       q    Type
REMARK                         _______ _______ _______ _____ _____    ______ ____
ROOT
ATOM      1  N   UNL     1      35.893 -20.420 -20.129  0.00  0.00    +0.387 N 
ATOM      2  C   UNL     1      35.487 -18.969 -22.646  0.00  0.00    +0.039 C 
ATOM      3  C   UNL     1      36.663 -18.670 -21.701  0.00  0.00    -0.017 C 
ATOM      4  C   UNL     1      34.324 -19.587 -21.852  0.00  0.00    -0.017 C 
ATOM      5  C   UNL     1      37.045 -19.906 -20.882  0.00  0.00    -0.077 C 
ATOM      6  C   UNL     1      34.792 -20.789 -21.028  0.00  0.00    -0.077 C 
ATOM      7  H   UNL     1      35.562 -19.676 -19.514  0.00  0.00    -0.080 HD
ENDROOT
BRANCH   2  11
ATOM      8  F   UNL     1      33.544 -12.534 -22.859  0.00  0.00    -0.204 F 
ATOM      9  O   UNL     1      34.589 -16.599 -25.208  0.00  0.00    -0.354 OA
ATOM     10  N   UNL     1      34.998 -17.857 -24.779  0.00  0.00    -0.081 NA
ATOM     11  C   UNL     1      35.066 -17.762 -23.453  0.00  0.00    +0.100 A 
ATOM     12  C   UNL     1      34.719 -16.490 -22.974  0.00  0.00    +0.054 A 
ATOM     13  C   UNL     1      34.425 -15.786 -24.128  0.00  0.00    +0.179 A 
ATOM     14  C   UNL     1      34.615 -15.841 -21.735  0.00  0.00    +0.007 C 
ATOM     15  C   UNL     1      34.023 -14.454 -24.154  0.00  0.00    +0.070 C 
ATOM     16  C   UNL     1      34.214 -14.498 -21.723  0.00  0.00    +0.030 C 
ATOM     17  C   UNL     1      33.925 -13.819 -22.911  0.00  0.00    +0.143 C 
ENDBRANCH   2  11
BRANCH   1  18
ATOM     18  C   UNL     1      36.289 -21.565 -19.308  0.00  0.00    -0.076 C 
BRANCH  18  19
ATOM     19  C   UNL     1      35.060 -22.190 -18.665  0.00  0.00    -0.007 C 
BRANCH  19  23
ATOM     20  O   UNL     1      33.414 -23.926 -17.260  0.00  0.00    -0.274 OA
ATOM     21  N   UNL     1      34.577 -23.745 -15.241  0.00  0.00    -0.211 N 
ATOM     22  N   UNL     1      36.523 -22.386 -15.148  0.00  0.00    -0.395 NA
ATOM     23  C   UNL     1      35.325 -22.537 -17.229  0.00  0.00    +0.123 C 
ATOM     24  C   UNL     1      36.339 -22.074 -16.472  0.00  0.00    +0.097 C 
ATOM     25  C   UNL     1      34.341 -23.468 -16.592  0.00  0.00    +0.241 C 
ATOM     26  C   UNL     1      35.672 -23.182 -14.575  0.00  0.00    +0.188 C 
ATOM     27  C   UNL     1      37.412 -21.164 -17.012  0.00  0.00    +0.062 C 
ATOM     28  C   UNL     1      35.851 -23.538 -13.122  0.00  0.00    +0.023 C 
ATOM     29  C   UNL     1      33.702 -24.594 -14.573  0.00  0.00    +0.074 C 
ATOM     30  C   UNL     1      34.965 -24.364 -12.547  0.00  0.00    +0.001 C 
ATOM     31  C   UNL     1      33.862 -24.909 -13.285  0.00  0.00    +0.016 C 
ATOM     32  C   UNL     1      37.014 -22.950 -12.384  0.00  0.00    +0.035 C 
ENDBRANCH  19  23
ENDBRANCH  18  19
ENDBRANCH   1  18
TORSDOF 4
ENDMDL
MODEL 9
REMARK VINA RESULT:     -11.2      5.380     12.736
REMARK  Name = 71351
REMARK  4 active torsions:
REMARK  status: ('A' for Active; 'I' for Inactive)
REMARK    1  A    between atoms: N_1  and  C_18
REMARK    2  A    between atoms: C_2  and  C_11
REMARK    3  A    between atoms: C_18  and  C_19
REMARK    4  A    between atoms: C_19  and  C_23
REMARK                            x       y       z     vdW  Elec       q    Type
REMARK                         _______ _______ _______ _____ _____    ______ ____
ROOT
ATOM      1  N   UNL     1      33.160 -13.111 -24.642  0.00  0.00    +0.387 N 
ATOM      2  C   UNL     1      34.437 -15.749 -24.512  0.00  0.00    +0.039 C 
ATOM      3  C   UNL     1      33.423 -15.376 -25.606  0.00  0.00    -0.017 C 
ATOM      4  C   UNL     1      34.199 -14.885 -23.263  0.00  0.00    -0.017 C 
ATOM      5  C   UNL     1      33.424 -13.868 -25.872  0.00  0.00    -0.077 C 
ATOM      6  C   UNL     1      34.173 -13.395 -23.616  0.00  0.00    -0.077 C 
ATOM      7  H   UNL     1      32.253 -13.406 -24.279  0.00  0.00    -0.080 HD
ENDROOT
BRANCH   2  11
ATOM      8  F   UNL     1      35.989 -20.788 -20.337  0.00  0.00    -0.204 F 
ATOM      9  O   UNL     1      34.090 -19.336 -24.511  0.00  0.00    -0.354 OA
ATOM     10  N   UNL     1      33.930 -18.081 -25.087  0.00  0.00    -0.081 NA
ATOM     11  C   UNL     1      34.445 -17.229 -24.204  0.00  0.00    +0.100 A 
ATOM     12  C   UNL     1      34.945 -17.862 -23.056  0.00  0.00    +0.054 A 
ATOM     13  C   UNL     1      34.696 -19.202 -23.299  0.00  0.00    +0.179 A 
ATOM     14  C   UNL     1      35.569 -17.491 -21.856  0.00  0.00    +0.007 C 
ATOM     15  C   UNL     1      35.024 -20.232 -22.423  0.00  0.00    +0.070 C 
ATOM     16  C   UNL     1      35.913 -18.504 -20.949  0.00  0.00    +0.030 C 
ATOM     17  C   UNL     1      35.645 -19.848 -21.229  0.00  0.00    +0.143 C 
ENDBRANCH   2  11
BRANCH   1  18
ATOM     18  C   UNL     1      33.108 -11.676 -24.925  0.00  0.00    -0.076 C 
BRANCH  18  19
ATOM     19  C   UNL     1      34.073 -10.933 -24.013  0.00  0.00    -0.007 C 
BRANCH  19  23
ATOM     20  O   UNL     1      32.538  -8.998 -22.749  0.00  0.00    -0.274 OA
ATOM     21  N   UNL     1      33.321  -7.218 -24.045  0.00  0.00    -0.211 N 
ATOM     22  N   UNL     1      34.973  -7.633 -25.700  0.00  0.00    -0.395 NA
ATOM     23  C   UNL     1      34.162  -9.485 -24.396  0.00  0.00    +0.123 C 
ATOM     24  C   UNL     1      34.951  -8.961 -25.354  0.00  0.00    +0.097 C 
ATOM     25  C   UNL     1      33.258  -8.556 -23.645  0.00  0.00    +0.241 C 
ATOM     26  C   UNL     1      34.187  -6.815 -25.068  0.00  0.00    +0.188 C 
ATOM     27  C   UNL     1      35.930  -9.787 -26.148  0.00  0.00    +0.062 C 
ATOM     28  C   UNL     1      34.191  -5.353 -25.431  0.00  0.00    +0.023 C 
ATOM     29  C   UNL     1      32.506  -6.293 -23.403  0.00  0.00    +0.074 C 
ATOM     30  C   UNL     1      33.376  -4.521 -24.766  0.00  0.00    +0.001 C 
ATOM     31  C   UNL     1      32.510  -4.997 -23.726  0.00  0.00    +0.016 C 
ATOM     32  C   UNL     1      35.107  -4.894 -26.523  0.00  0.00    +0.035 C 
ENDBRANCH  19  23
ENDBRANCH  18  19
ENDBRANCH   1  18
TORSDOF 4
ENDMDL
