MODEL 1
REMARK VINA RESULT:     -11.6      0.000      0.000
REMARK  Name = 6918388
REMARK  5 active torsions:
REMARK  status: ('A' for Active; 'I' for Inactive)
REMARK    1  A    between atoms: N_1  and  C_4
REMARK    2  A    between atoms: N_1  and  C_15
REMARK    3  A    between atoms: C_4  and  C_6
REMARK    4  A    between atoms: C_15  and  C_17
REMARK    5  A    between atoms: C_19  and  C_23
REMARK                            x       y       z     vdW  Elec       q    Type
REMARK                         _______ _______ _______ _____ _____    ______ ____
ROOT
ATOM      1  N   UNL     1      33.391 -12.994 -24.480  0.00  0.00    +0.389 N 
ATOM      2  H   UNL     1      32.932 -13.648 -25.112  0.00  0.00    -0.084 HD
ATOM      3  H   UNL     1      32.700 -12.501 -23.913  0.00  0.00    -0.084 HD
ENDROOT
BRANCH   1   4
ATOM      4  C   UNL     1      34.132 -12.015 -25.262  0.00  0.00    -0.037 C 
BRANCH   4   6
ATOM      5  O   UNL     1      33.063 -10.342 -23.944  0.00  0.00    -0.482 OA
ATOM      6  C   UNL     1      34.341 -10.729 -24.472  0.00  0.00    +0.145 C 
ATOM      7  C   UNL     1      34.929  -9.634 -25.360  0.00  0.00    +0.046 C 
ATOM      8  C   UNL     1      35.172  -8.386 -24.520  0.00  0.00    +0.033 C 
ATOM      9  C   UNL     1      33.980  -8.098 -23.652  0.00  0.00    +0.012 C 
ATOM     10  C   UNL     1      33.013  -9.082 -23.407  0.00  0.00    +0.134 C 
ATOM     11  C   UNL     1      33.840  -6.839 -23.053  0.00  0.00    -0.001 C 
ATOM     12  C   UNL     1      31.903  -8.795 -22.609  0.00  0.00    +0.037 C 
ATOM     13  C   UNL     1      32.738  -6.559 -22.245  0.00  0.00    -0.000 C 
ATOM     14  C   UNL     1      31.768  -7.535 -22.027  0.00  0.00    +0.003 C 
ENDBRANCH   4   6
ENDBRANCH   1   4
BRANCH   1  15
ATOM     15  C   UNL     1      34.278 -13.732 -23.591  0.00  0.00    -0.053 C 
BRANCH  15  17
ATOM     16  N   UNL     1      33.844 -16.964 -25.478  0.00  0.00    -0.243 NA
ATOM     17  C   UNL     1      34.293 -15.204 -23.907  0.00  0.00    -0.025 C 
ATOM     18  C   UNL     1      34.744 -16.114 -22.972  0.00  0.00    -0.003 C 
ATOM     19  C   UNL     1      34.746 -17.467 -23.292  0.00  0.00    +0.019 C 
ATOM     20  C   UNL     1      33.857 -15.658 -25.131  0.00  0.00    +0.092 C 
ATOM     21  C   UNL     1      34.291 -17.837 -24.547  0.00  0.00    +0.099 C 
BRANCH  19  23
ATOM     22  F   UNL     1      36.537 -21.288 -19.647  0.00  0.00    -0.204 F 
ATOM     23  C   UNL     1      35.209 -18.456 -22.347  0.00  0.00    +0.002 C 
ATOM     24  C   UNL     1      36.545 -18.465 -21.942  0.00  0.00    +0.002 C 
ATOM     25  C   UNL     1      34.324 -19.407 -21.838  0.00  0.00    +0.002 C 
ATOM     26  C   UNL     1      36.993 -19.422 -21.030  0.00  0.00    +0.030 C 
ATOM     27  C   UNL     1      34.772 -20.364 -20.926  0.00  0.00    +0.030 C 
ATOM     28  C   UNL     1      36.107 -20.370 -20.523  0.00  0.00    +0.140 C 
ENDBRANCH  19  23
ENDBRANCH  15  17
ENDBRANCH   1  15
TORSDOF 5
ENDMDL
MODEL 2
REMARK VINA RESULT:     -11.5      0.823      1.432
REMARK  Name = 6918388
REMARK  5 active torsions:
REMARK  status: ('A' for Active; 'I' for Inactive)
REMARK    1  A    between atoms: N_1  and  C_4
REMARK    2  A    between atoms: N_1  and  C_15
REMARK    3  A    between atoms: C_4  and  C_6
REMARK    4  A    between atoms: C_15  and  C_17
REMARK    5  A    between atoms: C_19  and  C_23
REMARK                            x       y       z     vdW  Elec       q    Type
REMARK                         _______ _______ _______ _____ _____    ______ ____
ROOT
ATOM      1  N   UNL     1      33.257 -13.665 -23.853  0.00  0.00    +0.389 N 
ATOM      2  H   UNL     1      32.560 -14.386 -24.032  0.00  0.00    -0.084 HD
ATOM      3  H   UNL     1      32.950 -13.050 -23.100  0.00  0.00    -0.084 HD
ENDROOT
BRANCH   1   4
ATOM      4  C   UNL     1      33.437 -12.867 -25.058  0.00  0.00    -0.037 C 
BRANCH   4   6
ATOM      5  O   UNL     1      33.238 -10.702 -24.081  0.00  0.00    -0.482 OA
ATOM      6  C   UNL     1      34.170 -11.568 -24.748  0.00  0.00    +0.145 C 
ATOM      7  C   UNL     1      34.705 -10.926 -26.027  0.00  0.00    +0.046 C 
ATOM      8  C   UNL     1      35.474  -9.661 -25.668  0.00  0.00    +0.033 C 
ATOM      9  C   UNL     1      34.701  -8.840 -24.675  0.00  0.00    +0.012 C 
ATOM     10  C   UNL     1      33.649  -9.402 -23.940  0.00  0.00    +0.134 C 
ATOM     11  C   UNL     1      35.048  -7.500 -24.457  0.00  0.00    -0.001 C 
ATOM     12  C   UNL     1      32.930  -8.623 -23.031  0.00  0.00    +0.037 C 
ATOM     13  C   UNL     1      34.337  -6.727 -23.538  0.00  0.00    -0.000 C 
ATOM     14  C   UNL     1      33.277  -7.288 -22.829  0.00  0.00    +0.003 C 
ENDBRANCH   4   6
ENDBRANCH   1   4
BRANCH   1  15
ATOM     15  C   UNL     1      34.507 -14.298 -23.455  0.00  0.00    -0.053 C 
BRANCH  15  17
ATOM     16  N   UNL     1      34.074 -17.591 -25.233  0.00  0.00    -0.243 NA
ATOM     17  C   UNL     1      34.492 -15.781 -23.711  0.00  0.00    -0.025 C 
ATOM     18  C   UNL     1      34.861 -16.665 -22.716  0.00  0.00    -0.003 C 
ATOM     19  C   UNL     1      34.837 -18.029 -22.981  0.00  0.00    +0.019 C 
ATOM     20  C   UNL     1      34.110 -16.272 -24.938  0.00  0.00    +0.092 C 
ATOM     21  C   UNL     1      34.440 -18.438 -24.244  0.00  0.00    +0.099 C 
BRANCH  19  23
ATOM     22  F   UNL     1      36.290 -21.743 -19.084  0.00  0.00    -0.204 F 
ATOM     23  C   UNL     1      35.215 -18.991 -21.972  0.00  0.00    +0.002 C 
ATOM     24  C   UNL     1      34.263 -19.873 -21.455  0.00  0.00    +0.002 C 
ATOM     25  C   UNL     1      36.530 -19.043 -21.509  0.00  0.00    +0.002 C 
ATOM     26  C   UNL     1      34.626 -20.802 -20.480  0.00  0.00    +0.030 C 
ATOM     27  C   UNL     1      36.894 -19.972 -20.534  0.00  0.00    +0.030 C 
ATOM     28  C   UNL     1      35.941 -20.851 -20.020  0.00  0.00    +0.140 C 
ENDBRANCH  19  23
ENDBRANCH  15  17
ENDBRANCH   1  15
TORSDOF 5
ENDMDL
MODEL 3
REMARK VINA RESULT:     -11.4      3.705      9.997
REMARK  Name = 6918388
REMARK  5 active torsions:
REMARK  status: ('A' for Active; 'I' for Inactive)
REMARK    1  A    between atoms: N_1  and  C_4
REMARK    2  A    between atoms: N_1  and  C_15
REMARK    3  A    between atoms: C_4  and  C_6
REMARK    4  A    between atoms: C_15  and  C_17
REMARK    5  A    between atoms: C_19  and  C_23
REMARK                            x       y       z     vdW  Elec       q    Type
REMARK                         _______ _______ _______ _____ _____    ______ ____
ROOT
ATOM      1  N   UNL     1      35.419 -16.644 -23.374  0.00  0.00    +0.389 N 
ATOM      2  H   UNL     1      35.901 -16.298 -24.202  0.00  0.00    -0.084 HD
ATOM      3  H   UNL     1      36.090 -16.883 -22.644  0.00  0.00    -0.084 HD
ENDROOT
BRANCH   1   4
ATOM      4  C   UNL     1      34.668 -17.841 -23.724  0.00  0.00    -0.037 C 
BRANCH   4   6
ATOM      5  O   UNL     1      33.931 -19.395 -22.074  0.00  0.00    -0.482 OA
ATOM      6  C   UNL     1      35.079 -19.019 -22.850  0.00  0.00    +0.145 C 
ATOM      7  C   UNL     1      36.257 -18.644 -21.951  0.00  0.00    +0.046 C 
ATOM      8  C   UNL     1      36.670 -19.862 -21.134  0.00  0.00    +0.033 C 
ATOM      9  C   UNL     1      35.461 -20.540 -20.555  0.00  0.00    +0.012 C 
ATOM     10  C   UNL     1      34.180 -20.280 -21.058  0.00  0.00    +0.134 C 
ATOM     11  C   UNL     1      35.612 -21.466 -19.514  0.00  0.00    -0.001 C 
ATOM     12  C   UNL     1      33.063 -20.908 -20.499  0.00  0.00    +0.037 C 
ATOM     13  C   UNL     1      34.497 -22.102 -18.967  0.00  0.00    -0.000 C 
ATOM     14  C   UNL     1      33.224 -21.819 -19.457  0.00  0.00    +0.003 C 
ENDBRANCH   4   6
ENDBRANCH   1   4
BRANCH   1  15
ATOM     15  C   UNL     1      34.534 -15.603 -22.867  0.00  0.00    -0.053 C 
BRANCH  15  17
ATOM     16  N   UNL     1      33.379 -14.198 -26.166  0.00  0.00    -0.243 NA
ATOM     17  C   UNL     1      34.168 -14.608 -23.935  0.00  0.00    -0.025 C 
ATOM     18  C   UNL     1      34.274 -13.253 -23.693  0.00  0.00    -0.003 C 
ATOM     19  C   UNL     1      33.928 -12.357 -24.698  0.00  0.00    +0.019 C 
ATOM     20  C   UNL     1      33.724 -15.038 -25.165  0.00  0.00    +0.092 C 
ATOM     21  C   UNL     1      33.490 -12.876 -25.907  0.00  0.00    +0.099 C 
BRANCH  19  23
ATOM     22  F   UNL     1      34.286  -6.850 -23.903  0.00  0.00    -0.204 F 
ATOM     23  C   UNL     1      34.022 -10.931 -24.492  0.00  0.00    +0.002 C 
ATOM     24  C   UNL     1      33.054 -10.269 -23.735  0.00  0.00    +0.002 C 
ATOM     25  C   UNL     1      35.079 -10.210 -25.049  0.00  0.00    +0.002 C 
ATOM     26  C   UNL     1      33.143  -8.891 -23.536  0.00  0.00    +0.030 C 
ATOM     27  C   UNL     1      35.168  -8.832 -24.850  0.00  0.00    +0.030 C 
ATOM     28  C   UNL     1      34.200  -8.173 -24.094  0.00  0.00    +0.140 C 
ENDBRANCH  19  23
ENDBRANCH  15  17
ENDBRANCH   1  15
TORSDOF 5
ENDMDL
MODEL 4
REMARK VINA RESULT:     -11.4      2.654      4.712
REMARK  Name = 6918388
REMARK  5 active torsions:
REMARK  status: ('A' for Active; 'I' for Inactive)
REMARK    1  A    between atoms: N_1  and  C_4
REMARK    2  A    between atoms: N_1  and  C_15
REMARK    3  A    between atoms: C_4  and  C_6
REMARK    4  A    between atoms: C_15  and  C_17
REMARK    5  A    between atoms: C_19  and  C_23
REMARK                            x       y       z     vdW  Elec       q    Type
REMARK                         _______ _______ _______ _____ _____    ______ ____
ROOT
ATOM      1  N   UNL     1      34.748 -17.179 -24.277  0.00  0.00    +0.389 N 
ATOM      2  H   UNL     1      34.760 -16.626 -23.421  0.00  0.00    -0.084 HD
ATOM      3  H   UNL     1      35.656 -17.142 -24.739  0.00  0.00    -0.084 HD
ENDROOT
BRANCH   1   4
ATOM      4  C   UNL     1      33.745 -16.635 -25.182  0.00  0.00    -0.037 C 
BRANCH   4   6
ATOM      5  O   UNL     1      33.661 -14.418 -26.051  0.00  0.00    -0.482 OA
ATOM      6  C   UNL     1      33.446 -15.178 -24.853  0.00  0.00    +0.145 C 
ATOM      7  C   UNL     1      34.337 -14.684 -23.714  0.00  0.00    +0.046 C 
ATOM      8  C   UNL     1      33.969 -13.243 -23.381  0.00  0.00    +0.033 C 
ATOM      9  C   UNL     1      33.828 -12.433 -24.639  0.00  0.00    +0.012 C 
ATOM     10  C   UNL     1      33.673 -13.057 -25.883  0.00  0.00    +0.134 C 
ATOM     11  C   UNL     1      33.823 -11.034 -24.571  0.00  0.00    -0.001 C 
ATOM     12  C   UNL     1      33.556 -12.291 -27.046  0.00  0.00    +0.037 C 
ATOM     13  C   UNL     1      33.693 -10.270 -25.732  0.00  0.00    -0.000 C 
ATOM     14  C   UNL     1      33.564 -10.899 -26.968  0.00  0.00    +0.003 C 
ENDBRANCH   4   6
ENDBRANCH   1   4
BRANCH   1  15
ATOM     15  C   UNL     1      34.452 -18.566 -23.944  0.00  0.00    -0.053 C 
BRANCH  15  17
ATOM     16  N   UNL     1      37.254 -18.964 -21.457  0.00  0.00    -0.243 NA
ATOM     17  C   UNL     1      35.224 -19.031 -22.738  0.00  0.00    -0.025 C 
ATOM     18  C   UNL     1      34.652 -19.911 -21.840  0.00  0.00    -0.003 C 
ATOM     19  C   UNL     1      35.389 -20.322 -20.735  0.00  0.00    +0.019 C 
ATOM     20  C   UNL     1      36.507 -18.586 -22.518  0.00  0.00    +0.092 C 
ATOM     21  C   UNL     1      36.674 -19.824 -20.590  0.00  0.00    +0.099 C 
BRANCH  19  23
ATOM     22  F   UNL     1      33.248 -23.870 -17.004  0.00  0.00    -0.204 F 
ATOM     23  C   UNL     1      34.833 -21.240 -19.768  0.00  0.00    +0.002 C 
ATOM     24  C   UNL     1      35.662 -21.844 -18.821  0.00  0.00    +0.002 C 
ATOM     25  C   UNL     1      33.468 -21.529 -19.779  0.00  0.00    +0.002 C 
ATOM     26  C   UNL     1      35.127 -22.731 -17.887  0.00  0.00    +0.030 C 
ATOM     27  C   UNL     1      32.932 -22.417 -18.846  0.00  0.00    +0.030 C 
ATOM     28  C   UNL     1      33.762 -23.018 -17.900  0.00  0.00    +0.140 C 
ENDBRANCH  19  23
ENDBRANCH  15  17
ENDBRANCH   1  15
TORSDOF 5
ENDMDL
MODEL 5
REMARK VINA RESULT:     -11.3      1.362      2.292
REMARK  Name = 6918388
REMARK  5 active torsions:
REMARK  status: ('A' for Active; 'I' for Inactive)
REMARK    1  A    between atoms: N_1  and  C_4
REMARK    2  A    between atoms: N_1  and  C_15
REMARK    3  A    between atoms: C_4  and  C_6
REMARK    4  A    between atoms: C_15  and  C_17
REMARK    5  A    between atoms: C_19  and  C_23
REMARK                            x       y       z     vdW  Elec       q    Type
REMARK                         _______ _______ _______ _____ _____    ______ ____
ROOT
ATOM      1  N   UNL     1      32.881 -13.411 -23.579  0.00  0.00    +0.389 N 
ATOM      2  H   UNL     1      32.952 -12.471 -23.967  0.00  0.00    -0.084 HD
ATOM      3  H   UNL     1      32.445 -14.042 -24.251  0.00  0.00    -0.084 HD
ENDROOT
BRANCH   1   4
ATOM      4  C   UNL     1      32.057 -13.371 -22.379  0.00  0.00    -0.037 C 
BRANCH   4   6
ATOM      5  O   UNL     1      32.456 -11.063 -22.820  0.00  0.00    -0.482 OA
ATOM      6  C   UNL     1      31.607 -11.948 -22.073  0.00  0.00    +0.145 C 
ATOM      7  C   UNL     1      31.689 -11.662 -20.575  0.00  0.00    +0.046 C 
ATOM      8  C   UNL     1      31.181 -10.251 -20.307  0.00  0.00    +0.033 C 
ATOM      9  C   UNL     1      31.769  -9.285 -21.295  0.00  0.00    +0.012 C 
ATOM     10  C   UNL     1      32.354  -9.738 -22.484  0.00  0.00    +0.134 C 
ATOM     11  C   UNL     1      31.711  -7.907 -21.045  0.00  0.00    -0.001 C 
ATOM     12  C   UNL     1      32.910  -8.828 -23.388  0.00  0.00    +0.037 C 
ATOM     13  C   UNL     1      32.253  -7.000 -21.955  0.00  0.00    -0.000 C 
ATOM     14  C   UNL     1      32.856  -7.461 -23.123  0.00  0.00    +0.003 C 
ENDBRANCH   4   6
ENDBRANCH   1   4
BRANCH   1  15
ATOM     15  C   UNL     1      34.217 -13.906 -23.278  0.00  0.00    -0.053 C 
BRANCH  15  17
ATOM     16  N   UNL     1      34.271 -17.047 -25.358  0.00  0.00    -0.243 NA
ATOM     17  C   UNL     1      34.379 -15.354 -23.659  0.00  0.00    -0.025 C 
ATOM     18  C   UNL     1      34.765 -16.285 -22.715  0.00  0.00    -0.003 C 
ATOM     19  C   UNL     1      34.907 -17.614 -23.096  0.00  0.00    +0.019 C 
ATOM     20  C   UNL     1      34.144 -15.765 -24.951  0.00  0.00    +0.092 C 
ATOM     21  C   UNL     1      34.651 -17.941 -24.418  0.00  0.00    +0.099 C 
BRANCH  19  23
ATOM     22  F   UNL     1      36.462 -21.514 -19.426  0.00  0.00    -0.204 F 
ATOM     23  C   UNL     1      35.308 -18.624 -22.144  0.00  0.00    +0.002 C 
ATOM     24  C   UNL     1      36.623 -18.660 -21.676  0.00  0.00    +0.002 C 
ATOM     25  C   UNL     1      34.386 -19.568 -21.692  0.00  0.00    +0.002 C 
ATOM     26  C   UNL     1      37.013 -19.636 -20.758  0.00  0.00    +0.030 C 
ATOM     27  C   UNL     1      34.775 -20.544 -20.775  0.00  0.00    +0.030 C 
ATOM     28  C   UNL     1      36.088 -20.577 -20.308  0.00  0.00    +0.140 C 
ENDBRANCH  19  23
ENDBRANCH  15  17
ENDBRANCH   1  15
TORSDOF 5
ENDMDL
MODEL 6
REMARK VINA RESULT:     -11.3      3.914     10.112
REMARK  Name = 6918388
REMARK  5 active torsions:
REMARK  status: ('A' for Active; 'I' for Inactive)
REMARK    1  A    between atoms: N_1  and  C_4
REMARK    2  A    between atoms: N_1  and  C_15
REMARK    3  A    between atoms: C_4  and  C_6
REMARK    4  A    between atoms: C_15  and  C_17
REMARK    5  A    between atoms: C_19  and  C_23
REMARK                            x       y       z     vdW  Elec       q    Type
REMARK                         _______ _______ _______ _____ _____    ______ ____
ROOT
ATOM      1  N   UNL     1      35.759 -17.761 -23.292  0.00  0.00    +0.389 N 
ATOM      2  H   UNL     1      35.032 -18.273 -23.790  0.00  0.00    -0.084 HD
ATOM      3  H   UNL     1      36.482 -17.447 -23.940  0.00  0.00    -0.084 HD
ENDROOT
BRANCH   1   4
ATOM      4  C   UNL     1      36.371 -18.639 -22.306  0.00  0.00    -0.037 C 
BRANCH   4   6
ATOM      5  O   UNL     1      35.947 -20.275 -20.625  0.00  0.00    -0.482 OA
ATOM      6  C   UNL     1      35.323 -19.211 -21.359  0.00  0.00    +0.145 C 
ATOM      7  C   UNL     1      34.105 -19.710 -22.134  0.00  0.00    +0.046 C 
ATOM      8  C   UNL     1      33.062 -20.223 -21.150  0.00  0.00    +0.033 C 
ATOM      9  C   UNL     1      33.705 -21.093 -20.108  0.00  0.00    +0.012 C 
ATOM     10  C   UNL     1      35.090 -21.062 -19.900  0.00  0.00    +0.134 C 
ATOM     11  C   UNL     1      32.914 -21.930 -19.311  0.00  0.00    -0.001 C 
ATOM     12  C   UNL     1      35.677 -21.887 -18.937  0.00  0.00    +0.037 C 
ATOM     13  C   UNL     1      33.500 -22.743 -18.340  0.00  0.00    -0.000 C 
ATOM     14  C   UNL     1      34.880 -22.724 -18.157  0.00  0.00    +0.003 C 
ENDBRANCH   4   6
ENDBRANCH   1   4
BRANCH   1  15
ATOM     15  C   UNL     1      35.169 -16.592 -22.655  0.00  0.00    -0.053 C 
BRANCH  15  17
ATOM     16  N   UNL     1      33.632 -15.353 -25.864  0.00  0.00    -0.243 NA
ATOM     17  C   UNL     1      34.520 -15.673 -23.656  0.00  0.00    -0.025 C 
ATOM     18  C   UNL     1      34.226 -14.367 -23.318  0.00  0.00    -0.003 C 
ATOM     19  C   UNL     1      33.627 -13.543 -24.262  0.00  0.00    +0.019 C 
ATOM     20  C   UNL     1      34.214 -16.125 -24.919  0.00  0.00    +0.092 C 
ATOM     21  C   UNL     1      33.352 -14.079 -25.511  0.00  0.00    +0.099 C 
BRANCH  19  23
ATOM     22  F   UNL     1      32.371  -8.242 -23.073  0.00  0.00    -0.204 F 
ATOM     23  C   UNL     1      33.300 -12.170 -23.954  0.00  0.00    +0.002 C 
ATOM     24  C   UNL     1      33.831 -11.135 -24.726  0.00  0.00    +0.002 C 
ATOM     25  C   UNL     1      32.455 -11.873 -22.884  0.00  0.00    +0.002 C 
ATOM     26  C   UNL     1      33.517  -9.808 -24.428  0.00  0.00    +0.030 C 
ATOM     27  C   UNL     1      32.141 -10.547 -22.586  0.00  0.00    +0.030 C 
ATOM     28  C   UNL     1      32.672  -9.515 -23.359  0.00  0.00    +0.140 C 
ENDBRANCH  19  23
ENDBRANCH  15  17
ENDBRANCH   1  15
TORSDOF 5
ENDMDL
MODEL 7
REMARK VINA RESULT:     -11.3      6.863     13.142
REMARK  Name = 6918388
REMARK  5 active torsions:
REMARK  status: ('A' for Active; 'I' for Inactive)
REMARK    1  A    between atoms: N_1  and  C_4
REMARK    2  A    between atoms: N_1  and  C_15
REMARK    3  A    between atoms: C_4  and  C_6
REMARK    4  A    between atoms: C_15  and  C_17
REMARK    5  A    between atoms: C_19  and  C_23
REMARK                            x       y       z     vdW  Elec       q    Type
REMARK                         _______ _______ _______ _____ _____    ______ ____
ROOT
ATOM      1  N   UNL     1      33.523 -23.443 -18.248  0.00  0.00    +0.389 N 
ATOM      2  H   UNL     1      33.390 -24.310 -18.767  0.00  0.00    -0.084 HD
ATOM      3  H   UNL     1      34.511 -23.301 -18.037  0.00  0.00    -0.084 HD
ENDROOT
BRANCH   1   4
ATOM      4  C   UNL     1      32.787 -23.520 -16.994  0.00  0.00    -0.037 C 
BRANCH   4   6
ATOM      5  O   UNL     1      34.637 -24.714 -16.083  0.00  0.00    -0.482 OA
ATOM      6  C   UNL     1      33.738 -23.630 -15.809  0.00  0.00    +0.145 C 
ATOM      7  C   UNL     1      32.966 -23.864 -14.511  0.00  0.00    +0.046 C 
ATOM      8  C   UNL     1      33.947 -23.915 -13.347  0.00  0.00    +0.033 C 
ATOM      9  C   UNL     1      35.127 -24.777 -13.692  0.00  0.00    +0.012 C 
ATOM     10  C   UNL     1      35.408 -25.114 -15.023  0.00  0.00    +0.134 C 
ATOM     11  C   UNL     1      35.979 -25.234 -12.678  0.00  0.00    -0.001 C 
ATOM     12  C   UNL     1      36.501 -25.929 -15.327  0.00  0.00    +0.037 C 
ATOM     13  C   UNL     1      37.079 -26.036 -12.985  0.00  0.00    -0.000 C 
ATOM     14  C   UNL     1      37.336 -26.387 -14.309  0.00  0.00    +0.003 C 
ENDBRANCH   4   6
ENDBRANCH   1   4
BRANCH   1  15
ATOM     15  C   UNL     1      33.057 -22.326 -19.058  0.00  0.00    -0.053 C 
BRANCH  15  17
ATOM     16  N   UNL     1      36.546 -21.023 -19.625  0.00  0.00    -0.243 NA
ATOM     17  C   UNL     1      34.201 -21.538 -19.639  0.00  0.00    -0.025 C 
ATOM     18  C   UNL     1      33.981 -20.644 -20.668  0.00  0.00    -0.003 C 
ATOM     19  C   UNL     1      35.056 -19.930 -21.185  0.00  0.00    +0.019 C 
ATOM     20  C   UNL     1      35.477 -21.698 -19.149  0.00  0.00    +0.092 C 
ATOM     21  C   UNL     1      36.308 -20.154 -20.633  0.00  0.00    +0.099 C 
BRANCH  19  23
ATOM     22  F   UNL     1      34.358 -16.277 -25.339  0.00  0.00    -0.204 F 
ATOM     23  C   UNL     1      34.876 -18.985 -22.261  0.00  0.00    +0.002 C 
ATOM     24  C   UNL     1      35.261 -17.653 -22.095  0.00  0.00    +0.002 C 
ATOM     25  C   UNL     1      34.315 -19.398 -23.471  0.00  0.00    +0.002 C 
ATOM     26  C   UNL     1      35.086 -16.739 -23.134  0.00  0.00    +0.030 C 
ATOM     27  C   UNL     1      34.140 -18.484 -24.510  0.00  0.00    +0.030 C 
ATOM     28  C   UNL     1      34.526 -17.155 -24.341  0.00  0.00    +0.140 C 
ENDBRANCH  19  23
ENDBRANCH  15  17
ENDBRANCH   1  15
TORSDOF 5
ENDMDL
MODEL 8
REMARK VINA RESULT:     -11.2      6.777     12.229
REMARK  Name = 6918388
REMARK  5 active torsions:
REMARK  status: ('A' for Active; 'I' for Inactive)
REMARK    1  A    between atoms: N_1  and  C_4
REMARK    2  A    between atoms: N_1  and  C_15
REMARK    3  A    between atoms: C_4  and  C_6
REMARK    4  A    between atoms: C_15  and  C_17
REMARK    5  A    between atoms: C_19  and  C_23
REMARK                            x       y       z     vdW  Elec       q    Type
REMARK                         _______ _______ _______ _____ _____    ______ ____
ROOT
ATOM      1  N   UNL     1      36.320 -21.652 -17.307  0.00  0.00    +0.389 N 
ATOM      2  H   UNL     1      36.828 -20.785 -17.140  0.00  0.00    -0.084 HD
ATOM      3  H   UNL     1      35.336 -21.542 -17.064  0.00  0.00    -0.084 HD
ENDROOT
BRANCH   1   4
ATOM      4  C   UNL     1      36.888 -22.705 -16.477  0.00  0.00    -0.037 C 
BRANCH   4   6
ATOM      5  O   UNL     1      34.537 -23.070 -16.338  0.00  0.00    -0.482 OA
ATOM      6  C   UNL     1      35.791 -23.522 -15.806  0.00  0.00    +0.145 C 
ATOM      7  C   UNL     1      35.842 -23.358 -14.288  0.00  0.00    +0.046 C 
ATOM      8  C   UNL     1      34.766 -24.231 -13.655  0.00  0.00    +0.033 C 
ATOM      9  C   UNL     1      33.465 -24.077 -14.390  0.00  0.00    +0.012 C 
ATOM     10  C   UNL     1      33.426 -23.524 -15.676  0.00  0.00    +0.134 C 
ATOM     11  C   UNL     1      32.273 -24.516 -13.799  0.00  0.00    -0.001 C 
ATOM     12  C   UNL     1      32.207 -23.375 -16.342  0.00  0.00    +0.037 C 
ATOM     13  C   UNL     1      31.058 -24.379 -14.471  0.00  0.00    -0.000 C 
ATOM     14  C   UNL     1      31.025 -23.805 -15.740  0.00  0.00    +0.003 C 
ENDBRANCH   4   6
ENDBRANCH   1   4
BRANCH   1  15
ATOM     15  C   UNL     1      36.413 -21.994 -18.720  0.00  0.00    -0.053 C 
BRANCH  15  17
ATOM     16  N   UNL     1      32.885 -21.428 -19.915  0.00  0.00    -0.243 NA
ATOM     17  C   UNL     1      35.252 -21.449 -19.508  0.00  0.00    -0.025 C 
ATOM     18  C   UNL     1      35.460 -20.515 -20.503  0.00  0.00    -0.003 C 
ATOM     19  C   UNL     1      34.369 -20.029 -21.213  0.00  0.00    +0.019 C 
ATOM     20  C   UNL     1      33.970 -21.877 -19.246  0.00  0.00    +0.092 C 
ATOM     21  C   UNL     1      33.113 -20.513 -20.883  0.00  0.00    +0.099 C 
BRANCH  19  23
ATOM     22  F   UNL     1      35.015 -16.246 -25.258  0.00  0.00    -0.204 F 
ATOM     23  C   UNL     1      34.537 -19.050 -22.261  0.00  0.00    +0.002 C 
ATOM     24  C   UNL     1      35.130 -17.818 -21.980  0.00  0.00    +0.002 C 
ATOM     25  C   UNL     1      34.105 -19.331 -23.559  0.00  0.00    +0.002 C 
ATOM     26  C   UNL     1      35.291 -16.871 -22.992  0.00  0.00    +0.030 C 
ATOM     27  C   UNL     1      34.266 -18.384 -24.571  0.00  0.00    +0.030 C 
ATOM     28  C   UNL     1      34.859 -17.155 -24.287  0.00  0.00    +0.140 C 
ENDBRANCH  19  23
ENDBRANCH  15  17
ENDBRANCH   1  15
TORSDOF 5
ENDMDL
MODEL 9
REMARK VINA RESULT:     -11.1      0.989      1.949
REMARK  Name = 6918388
REMARK  5 active torsions:
REMARK  status: ('A' for Active; 'I' for Inactive)
REMARK    1  A    between atoms: N_1  and  C_4
REMARK    2  A    between atoms: N_1  and  C_15
REMARK    3  A    between atoms: C_4  and  C_6
REMARK    4  A    between atoms: C_15  and  C_17
REMARK    5  A    between atoms: C_19  and  C_23
REMARK                            x       y       z     vdW  Elec       q    Type
REMARK                         _______ _______ _______ _____ _____    ______ ____
ROOT
ATOM      1  N   UNL     1      33.588 -12.687 -24.554  0.00  0.00    +0.389 N 
ATOM      2  H   UNL     1      33.507 -13.237 -25.408  0.00  0.00    -0.084 HD
ATOM      3  H   UNL     1      32.668 -12.385 -24.235  0.00  0.00    -0.084 HD
ENDROOT
BRANCH   1   4
ATOM      4  C   UNL     1      34.396 -11.505 -24.823  0.00  0.00    -0.037 C 
BRANCH   4   6
ATOM      5  O   UNL     1      34.446  -9.124 -24.905  0.00  0.00    -0.482 OA
ATOM      6  C   UNL     1      33.559 -10.237 -24.719  0.00  0.00    +0.145 C 
ATOM      7  C   UNL     1      32.852 -10.162 -23.366  0.00  0.00    +0.046 C 
ATOM      8  C   UNL     1      31.986  -8.909 -23.324  0.00  0.00    +0.033 C 
ATOM      9  C   UNL     1      32.749  -7.725 -23.846  0.00  0.00    +0.012 C 
ATOM     10  C   UNL     1      33.913  -7.897 -24.606  0.00  0.00    +0.134 C 
ATOM     11  C   UNL     1      32.282  -6.428 -23.596  0.00  0.00    -0.001 C 
ATOM     12  C   UNL     1      34.620  -6.786 -25.073  0.00  0.00    +0.037 C 
ATOM     13  C   UNL     1      32.982  -5.320 -24.075  0.00  0.00    -0.000 C 
ATOM     14  C   UNL     1      34.153  -5.500 -24.809  0.00  0.00    +0.003 C 
ENDBRANCH   4   6
ENDBRANCH   1   4
BRANCH   1  15
ATOM     15  C   UNL     1      34.194 -13.507 -23.514  0.00  0.00    -0.053 C 
BRANCH  15  17
ATOM     16  N   UNL     1      33.788 -16.660 -25.537  0.00  0.00    -0.243 NA
ATOM     17  C   UNL     1      34.222 -14.964 -23.893  0.00  0.00    -0.025 C 
ATOM     18  C   UNL     1      34.680 -15.910 -22.997  0.00  0.00    -0.003 C 
ATOM     19  C   UNL     1      34.694 -17.247 -23.374  0.00  0.00    +0.019 C 
ATOM     20  C   UNL     1      33.790 -15.369 -25.135  0.00  0.00    +0.092 C 
ATOM     21  C   UNL     1      34.241 -17.568 -24.644  0.00  0.00    +0.099 C 
BRANCH  19  23
ATOM     22  F   UNL     1      36.507 -21.202 -19.886  0.00  0.00    -0.204 F 
ATOM     23  C   UNL     1      35.164 -18.272 -22.472  0.00  0.00    +0.002 C 
ATOM     24  C   UNL     1      34.279 -19.237 -21.986  0.00  0.00    +0.002 C 
ATOM     25  C   UNL     1      36.504 -18.300 -22.080  0.00  0.00    +0.002 C 
ATOM     26  C   UNL     1      34.733 -20.226 -21.113  0.00  0.00    +0.030 C 
ATOM     27  C   UNL     1      36.957 -19.289 -21.207  0.00  0.00    +0.030 C 
ATOM     28  C   UNL     1      36.072 -20.252 -20.724  0.00  0.00    +0.140 C 
ENDBRANCH  19  23
ENDBRANCH  15  17
ENDBRANCH   1  15
TORSDOF 5
ENDMDL
