MODEL 1
REMARK VINA RESULT:     -11.9      0.000      0.000
REMARK  Name = 60149
REMARK  5 active torsions:
REMARK  status: ('A' for Active; 'I' for Inactive)
REMARK    1  A    between atoms: N_2  and  C_12
REMARK    2  A    between atoms: C_3  and  C_19
REMARK    3  A    between atoms: N_18  and  C_25
REMARK    4  A    between atoms: C_25  and  C_26
REMARK    5  A    between atoms: C_26  and  N_28
REMARK                            x       y       z     vdW  Elec       q    Type
REMARK                         _______ _______ _______ _____ _____    ______ ____
ROOT
ATOM      1 CL   UNL     1      28.939 -22.984 -16.598  0.00  0.00    -0.082 Cl
ATOM      2  N   UNL     1      34.725 -23.603 -16.076  0.00  0.00    -0.265 N 
ATOM      3  C   UNL     1      34.052 -22.706 -17.986  0.00  0.00    -0.006 C 
ATOM      4  C   UNL     1      32.901 -22.980 -17.201  0.00  0.00    +0.012 C 
ATOM      5  C   UNL     1      35.157 -23.098 -17.273  0.00  0.00    +0.065 C 
ATOM      6  C   UNL     1      33.351 -23.543 -16.005  0.00  0.00    +0.055 C 
ATOM      7  C   UNL     1      31.516 -22.804 -17.389  0.00  0.00    +0.012 C 
ATOM      8  C   UNL     1      32.481 -23.940 -14.983  0.00  0.00    +0.016 C 
ATOM      9  C   UNL     1      30.634 -23.197 -16.376  0.00  0.00    +0.058 C 
ATOM     10  C   UNL     1      31.112 -23.757 -15.192  0.00  0.00    +0.013 C 
ENDROOT
BRANCH   2  12
ATOM     11  F   UNL     1      38.072 -25.561 -12.160  0.00  0.00    -0.204 F 
ATOM     12  C   UNL     1      35.574 -24.099 -15.083  0.00  0.00    +0.056 C 
ATOM     13  C   UNL     1      35.915 -25.444 -15.087  0.00  0.00    +0.017 C 
ATOM     14  C   UNL     1      36.061 -23.239 -14.110  0.00  0.00    +0.017 C 
ATOM     15  C   UNL     1      36.761 -25.940 -14.095  0.00  0.00    +0.031 C 
ATOM     16  C   UNL     1      36.908 -23.735 -13.118  0.00  0.00    +0.031 C 
ATOM     17  C   UNL     1      37.259 -25.086 -13.111  0.00  0.00    +0.140 C 
ENDBRANCH   2  12
BRANCH   3  19
ATOM     18  N   UNL     1      34.204 -19.822 -21.220  0.00  0.00    +0.388 N 
ATOM     19  C   UNL     1      34.068 -22.092 -19.368  0.00  0.00    +0.019 C 
ATOM     20  C   UNL     1      32.874 -21.156 -19.616  0.00  0.00    -0.018 C 
ATOM     21  C   UNL     1      35.381 -21.355 -19.675  0.00  0.00    -0.018 C 
ATOM     22  C   UNL     1      32.936 -20.535 -21.013  0.00  0.00    -0.077 C 
ATOM     23  C   UNL     1      35.352 -20.726 -21.070  0.00  0.00    -0.077 C 
ATOM     24  H   UNL     1      34.278 -19.098 -20.507  0.00  0.00    -0.080 HD
BRANCH  18  25
ATOM     25  C   UNL     1      34.223 -19.186 -22.539  0.00  0.00    -0.055 C 
BRANCH  25  26
ATOM     26  C   UNL     1      35.378 -18.200 -22.633  0.00  0.00    +0.077 C 
BRANCH  26  28
ATOM     27  O   UNL     1      34.637 -17.350 -25.419  0.00  0.00    -0.252 OA
ATOM     28  N   UNL     1      34.933 -16.922 -23.117  0.00  0.00    -0.243 N 
ATOM     29  N   UNL     1      34.186 -15.263 -24.460  0.00  0.00    -0.266 N 
ATOM     30  C   UNL     1      34.691 -15.796 -22.231  0.00  0.00    +0.085 C 
ATOM     31  C   UNL     1      34.303 -14.655 -23.158  0.00  0.00    +0.082 C 
ATOM     32  C   UNL     1      34.593 -16.606 -24.447  0.00  0.00    +0.311 C 
ATOM     33  H   UNL     1      33.860 -14.792 -25.261  0.00  0.00    +0.157 HD
ENDBRANCH  26  28
ENDBRANCH  25  26
ENDBRANCH  18  25
ENDBRANCH   3  19
TORSDOF 5
ENDMDL
MODEL 2
REMARK VINA RESULT:     -10.9      2.759      4.260
REMARK  Name = 60149
REMARK  5 active torsions:
REMARK  status: ('A' for Active; 'I' for Inactive)
REMARK    1  A    between atoms: N_2  and  C_12
REMARK    2  A    between atoms: C_3  and  C_19
REMARK    3  A    between atoms: N_18  and  C_25
REMARK    4  A    between atoms: C_25  and  C_26
REMARK    5  A    between atoms: C_26  and  N_28
REMARK                            x       y       z     vdW  Elec       q    Type
REMARK                         _______ _______ _______ _____ _____    ______ ____
ROOT
ATOM      1 CL   UNL     1      38.342 -23.527 -15.373  0.00  0.00    -0.082 Cl
ATOM      2  N   UNL     1      32.663 -23.502 -16.744  0.00  0.00    -0.265 N 
ATOM      3  C   UNL     1      33.991 -22.583 -18.259  0.00  0.00    -0.006 C 
ATOM      4  C   UNL     1      34.800 -23.031 -17.181  0.00  0.00    +0.012 C 
ATOM      5  C   UNL     1      32.685 -22.884 -17.966  0.00  0.00    +0.065 C 
ATOM      6  C   UNL     1      33.941 -23.605 -16.242  0.00  0.00    +0.055 C 
ATOM      7  C   UNL     1      36.182 -23.005 -16.909  0.00  0.00    +0.012 C 
ATOM      8  C   UNL     1      34.397 -24.158 -15.040  0.00  0.00    +0.016 C 
ATOM      9  C   UNL     1      36.652 -23.554 -15.711  0.00  0.00    +0.058 C 
ATOM     10  C   UNL     1      35.772 -24.120 -14.792  0.00  0.00    +0.013 C 
ENDROOT
BRANCH   2  12
ATOM     11  F   UNL     1      28.075 -25.296 -14.272  0.00  0.00    -0.204 F 
ATOM     12  C   UNL     1      31.500 -23.957 -16.118  0.00  0.00    +0.056 C 
ATOM     13  C   UNL     1      31.594 -24.901 -15.106  0.00  0.00    +0.017 C 
ATOM     14  C   UNL     1      30.269 -23.456 -16.518  0.00  0.00    +0.017 C 
ATOM     15  C   UNL     1      30.433 -25.356 -14.481  0.00  0.00    +0.031 C 
ATOM     16  C   UNL     1      29.108 -23.911 -15.893  0.00  0.00    +0.031 C 
ATOM     17  C   UNL     1      29.189 -24.860 -14.874  0.00  0.00    +0.140 C 
ENDBRANCH   2  12
BRANCH   3  19
ATOM     18  N   UNL     1      35.331 -19.538 -21.041  0.00  0.00    +0.388 N 
ATOM     19  C   UNL     1      34.475 -21.893 -19.515  0.00  0.00    +0.019 C 
ATOM     20  C   UNL     1      33.483 -20.839 -20.033  0.00  0.00    -0.018 C 
ATOM     21  C   UNL     1      35.865 -21.260 -19.346  0.00  0.00    -0.018 C 
ATOM     22  C   UNL     1      34.016 -20.145 -21.289  0.00  0.00    -0.077 C 
ATOM     23  C   UNL     1      36.312 -20.549 -20.626  0.00  0.00    -0.077 C 
ATOM     24  H   UNL     1      35.229 -18.867 -20.280  0.00  0.00    -0.080 HD
BRANCH  18  25
ATOM     25  C   UNL     1      35.800 -18.830 -22.233  0.00  0.00    -0.055 C 
BRANCH  25  26
ATOM     26  C   UNL     1      34.680 -18.724 -23.258  0.00  0.00    +0.077 C 
BRANCH  26  28
ATOM     27  O   UNL     1      33.170 -17.629 -25.614  0.00  0.00    -0.252 OA
ATOM     28  N   UNL     1      34.478 -17.361 -23.669  0.00  0.00    -0.243 N 
ATOM     29  N   UNL     1      33.783 -15.525 -24.791  0.00  0.00    -0.266 N 
ATOM     30  C   UNL     1      34.959 -16.235 -22.888  0.00  0.00    +0.085 C 
ATOM     31  C   UNL     1      34.587 -15.011 -23.712  0.00  0.00    +0.082 C 
ATOM     32  C   UNL     1      33.743 -16.928 -24.790  0.00  0.00    +0.311 C 
ATOM     33  H   UNL     1      33.318 -14.960 -25.449  0.00  0.00    +0.157 HD
ENDBRANCH  26  28
ENDBRANCH  25  26
ENDBRANCH  18  25
ENDBRANCH   3  19
TORSDOF 5
ENDMDL
MODEL 3
REMARK VINA RESULT:     -10.5      8.206     14.793
REMARK  Name = 60149
REMARK  5 active torsions:
REMARK  status: ('A' for Active; 'I' for Inactive)
REMARK    1  A    between atoms: N_2  and  C_12
REMARK    2  A    between atoms: C_3  and  C_19
REMARK    3  A    between atoms: N_18  and  C_25
REMARK    4  A    between atoms: C_25  and  C_26
REMARK    5  A    between atoms: C_26  and  N_28
REMARK                            x       y       z     vdW  Elec       q    Type
REMARK                         _______ _______ _______ _____ _____    ______ ____
ROOT
ATOM      1 CL   UNL     1      30.865 -10.108 -19.507  0.00  0.00    -0.082 Cl
ATOM      2  N   UNL     1      33.183  -8.143 -24.497  0.00  0.00    -0.265 N 
ATOM      3  C   UNL     1      33.381 -10.325 -24.173  0.00  0.00    -0.006 C 
ATOM      4  C   UNL     1      32.695  -9.776 -23.057  0.00  0.00    +0.012 C 
ATOM      5  C   UNL     1      33.668  -9.302 -25.041  0.00  0.00    +0.065 C 
ATOM      6  C   UNL     1      32.583  -8.403 -23.285  0.00  0.00    +0.055 C 
ATOM      7  C   UNL     1      32.156 -10.313 -21.870  0.00  0.00    +0.012 C 
ATOM      8  C   UNL     1      31.956  -7.537 -22.382  0.00  0.00    +0.016 C 
ATOM      9  C   UNL     1      31.527  -9.458 -20.959  0.00  0.00    +0.058 C 
ATOM     10  C   UNL     1      31.430  -8.091 -21.213  0.00  0.00    +0.013 C 
ENDROOT
BRANCH   2  12
ATOM     11  F   UNL     1      33.603  -3.195 -26.888  0.00  0.00    -0.204 F 
ATOM     12  C   UNL     1      33.290  -6.889 -25.103  0.00  0.00    +0.056 C 
ATOM     13  C   UNL     1      34.542  -6.318 -25.275  0.00  0.00    +0.017 C 
ATOM     14  C   UNL     1      32.140  -6.235 -25.523  0.00  0.00    +0.017 C 
ATOM     15  C   UNL     1      34.649  -5.065 -25.880  0.00  0.00    +0.031 C 
ATOM     16  C   UNL     1      32.247  -4.981 -26.127  0.00  0.00    +0.031 C 
ATOM     17  C   UNL     1      33.501  -4.397 -26.306  0.00  0.00    +0.140 C 
ENDBRANCH   2  12
BRANCH   3  19
ATOM     18  N   UNL     1      33.072 -14.587 -24.911  0.00  0.00    +0.388 N 
ATOM     19  C   UNL     1      33.738 -11.780 -24.378  0.00  0.00    +0.019 C 
ATOM     20  C   UNL     1      33.119 -12.699 -23.312  0.00  0.00    -0.018 C 
ATOM     21  C   UNL     1      33.371 -12.290 -25.781  0.00  0.00    -0.018 C 
ATOM     22  C   UNL     1      33.481 -14.165 -23.564  0.00  0.00    -0.077 C 
ATOM     23  C   UNL     1      33.723 -13.771 -25.944  0.00  0.00    -0.077 C 
ATOM     24  H   UNL     1      32.065 -14.451 -24.991  0.00  0.00    -0.080 HD
BRANCH  18  25
ATOM     25  C   UNL     1      33.373 -16.005 -25.115  0.00  0.00    -0.055 C 
BRANCH  25  26
ATOM     26  C   UNL     1      34.779 -16.321 -24.629  0.00  0.00    +0.077 C 
BRANCH  26  28
ATOM     27  O   UNL     1      34.010 -19.205 -24.986  0.00  0.00    -0.252 OA
ATOM     28  N   UNL     1      34.771 -17.396 -23.675  0.00  0.00    -0.243 N 
ATOM     29  N   UNL     1      34.572 -19.439 -22.726  0.00  0.00    -0.266 N 
ATOM     30  C   UNL     1      35.244 -17.230 -22.312  0.00  0.00    +0.085 C 
ATOM     31  C   UNL     1      34.997 -18.577 -21.652  0.00  0.00    +0.082 C 
ATOM     32  C   UNL     1      34.403 -18.732 -23.927  0.00  0.00    +0.311 C 
ATOM     33  H   UNL     1      34.419 -20.407 -22.628  0.00  0.00    +0.157 HD
ENDBRANCH  26  28
ENDBRANCH  25  26
ENDBRANCH  18  25
ENDBRANCH   3  19
TORSDOF 5
ENDMDL
MODEL 4
REMARK VINA RESULT:     -10.4      9.184     13.322
REMARK  Name = 60149
REMARK  5 active torsions:
REMARK  status: ('A' for Active; 'I' for Inactive)
REMARK    1  A    between atoms: N_2  and  C_12
REMARK    2  A    between atoms: C_3  and  C_19
REMARK    3  A    between atoms: N_18  and  C_25
REMARK    4  A    between atoms: C_25  and  C_26
REMARK    5  A    between atoms: C_26  and  N_28
REMARK                            x       y       z     vdW  Elec       q    Type
REMARK                         _______ _______ _______ _____ _____    ______ ____
ROOT
ATOM      1 CL   UNL     1      30.465 -10.196 -19.763  0.00  0.00    -0.082 Cl
ATOM      2  N   UNL     1      33.555 -13.205 -23.703  0.00  0.00    -0.265 N 
ATOM      3  C   UNL     1      33.436 -11.026 -24.080  0.00  0.00    -0.006 C 
ATOM      4  C   UNL     1      32.705 -11.307 -22.895  0.00  0.00    +0.012 C 
ATOM      5  C   UNL     1      33.947 -12.208 -24.555  0.00  0.00    +0.065 C 
ATOM      6  C   UNL     1      32.796 -12.684 -22.680  0.00  0.00    +0.055 C 
ATOM      7  C   UNL     1      31.973 -10.524 -21.980  0.00  0.00    +0.012 C 
ATOM      8  C   UNL     1      32.189 -13.319 -21.590  0.00  0.00    +0.016 C 
ATOM      9  C   UNL     1      31.360 -11.147 -20.887  0.00  0.00    +0.058 C 
ATOM     10  C   UNL     1      31.468 -12.523 -20.697  0.00  0.00    +0.013 C 
ENDROOT
BRANCH   2  12
ATOM     11  F   UNL     1      34.883 -18.515 -24.348  0.00  0.00    -0.204 F 
ATOM     12  C   UNL     1      33.892 -14.552 -23.867  0.00  0.00    +0.056 C 
ATOM     13  C   UNL     1      33.506 -15.216 -25.022  0.00  0.00    +0.017 C 
ATOM     14  C   UNL     1      34.607 -15.201 -22.871  0.00  0.00    +0.017 C 
ATOM     15  C   UNL     1      33.841 -16.561 -25.184  0.00  0.00    +0.031 C 
ATOM     16  C   UNL     1      34.942 -16.546 -23.034  0.00  0.00    +0.031 C 
ATOM     17  C   UNL     1      34.560 -17.226 -24.191  0.00  0.00    +0.140 C 
ENDBRANCH   2  12
BRANCH   3  19
ATOM     18  N   UNL     1      33.600  -6.734 -24.673  0.00  0.00    +0.388 N 
ATOM     19  C   UNL     1      33.623  -9.667 -24.715  0.00  0.00    +0.019 C 
ATOM     20  C   UNL     1      32.321  -8.850 -24.765  0.00  0.00    -0.018 C 
ATOM     21  C   UNL     1      34.729  -8.842 -24.038  0.00  0.00    -0.018 C 
ATOM     22  C   UNL     1      32.553  -7.473 -25.391  0.00  0.00    -0.077 C 
ATOM     23  C   UNL     1      34.873  -7.464 -24.690  0.00  0.00    -0.077 C 
ATOM     24  H   UNL     1      33.306  -6.637 -23.701  0.00  0.00    -0.080 HD
BRANCH  18  25
ATOM     25  C   UNL     1      33.768  -5.399 -25.248  0.00  0.00    -0.055 C 
BRANCH  25  26
ATOM     26  C   UNL     1      32.559  -5.032 -26.094  0.00  0.00    +0.077 C 
BRANCH  26  28
ATOM     27  O   UNL     1      30.608  -5.399 -23.837  0.00  0.00    -0.252 OA
ATOM     28  N   UNL     1      31.730  -4.065 -25.427  0.00  0.00    -0.243 N 
ATOM     29  N   UNL     1      30.269  -3.089 -24.003  0.00  0.00    -0.266 N 
ATOM     30  C   UNL     1      31.788  -2.646 -25.735  0.00  0.00    +0.085 C 
ATOM     31  C   UNL     1      30.720  -2.018 -24.855  0.00  0.00    +0.082 C 
ATOM     32  C   UNL     1      30.843  -4.319 -24.363  0.00  0.00    +0.311 C 
ATOM     33  H   UNL     1      29.635  -2.972 -23.259  0.00  0.00    +0.157 HD
ENDBRANCH  26  28
ENDBRANCH  25  26
ENDBRANCH  18  25
ENDBRANCH   3  19
TORSDOF 5
ENDMDL
MODEL 5
REMARK VINA RESULT:     -10.3      7.385     13.738
REMARK  Name = 60149
REMARK  5 active torsions:
REMARK  status: ('A' for Active; 'I' for Inactive)
REMARK    1  A    between atoms: N_2  and  C_12
REMARK    2  A    between atoms: C_3  and  C_19
REMARK    3  A    between atoms: N_18  and  C_25
REMARK    4  A    between atoms: C_25  and  C_26
REMARK    5  A    between atoms: C_26  and  N_28
REMARK                            x       y       z     vdW  Elec       q    Type
REMARK                         _______ _______ _______ _____ _____    ______ ____
ROOT
ATOM      1 CL   UNL     1      30.834 -10.698 -18.385  0.00  0.00    -0.082 Cl
ATOM      2  N   UNL     1      33.095  -9.327 -23.594  0.00  0.00    -0.265 N 
ATOM      3  C   UNL     1      32.944 -11.498 -23.186  0.00  0.00    -0.006 C 
ATOM      4  C   UNL     1      32.441 -10.804 -22.055  0.00  0.00    +0.012 C 
ATOM      5  C   UNL     1      33.339 -10.569 -24.116  0.00  0.00    +0.065 C 
ATOM      6  C   UNL     1      32.546  -9.440 -22.337  0.00  0.00    +0.055 C 
ATOM      7  C   UNL     1      31.904 -11.200 -20.814  0.00  0.00    +0.012 C 
ATOM      8  C   UNL     1      32.139  -8.449 -21.436  0.00  0.00    +0.016 C 
ATOM      9  C   UNL     1      31.493 -10.220 -19.904  0.00  0.00    +0.058 C 
ATOM     10  C   UNL     1      31.610  -8.866 -20.212  0.00  0.00    +0.013 C 
ENDROOT
BRANCH   2  12
ATOM     11  F   UNL     1      34.175  -4.607 -26.226  0.00  0.00    -0.204 F 
ATOM     12  C   UNL     1      33.369  -8.130 -24.262  0.00  0.00    +0.056 C 
ATOM     13  C   UNL     1      34.668  -7.644 -24.285  0.00  0.00    +0.017 C 
ATOM     14  C   UNL     1      32.337  -7.448 -24.890  0.00  0.00    +0.017 C 
ATOM     15  C   UNL     1      34.941  -6.448 -24.951  0.00  0.00    +0.031 C 
ATOM     16  C   UNL     1      32.610  -6.252 -25.555  0.00  0.00    +0.031 C 
ATOM     17  C   UNL     1      33.912  -5.753 -25.586  0.00  0.00    +0.140 C 
ENDBRANCH   2  12
BRANCH   3  19
ATOM     18  N   UNL     1      34.459 -15.477 -24.009  0.00  0.00    +0.388 N 
ATOM     19  C   UNL     1      33.035 -12.999 -23.348  0.00  0.00    +0.019 C 
ATOM     20  C   UNL     1      33.325 -13.424 -24.797  0.00  0.00    -0.018 C 
ATOM     21  C   UNL     1      34.067 -13.637 -22.403  0.00  0.00    -0.018 C 
ATOM     22  C   UNL     1      33.434 -14.946 -24.918  0.00  0.00    -0.077 C 
ATOM     23  C   UNL     1      34.150 -15.151 -22.611  0.00  0.00    -0.077 C 
ATOM     24  H   UNL     1      35.348 -15.037 -24.246  0.00  0.00    -0.080 HD
BRANCH  18  25
ATOM     25  C   UNL     1      34.591 -16.925 -24.179  0.00  0.00    -0.055 C 
BRANCH  25  26
ATOM     26  C   UNL     1      35.819 -17.434 -23.438  0.00  0.00    +0.077 C 
BRANCH  26  28
ATOM     27  O   UNL     1      37.466 -18.680 -21.255  0.00  0.00    -0.252 OA
ATOM     28  N   UNL     1      35.469 -18.457 -22.491  0.00  0.00    -0.243 N 
ATOM     29  N   UNL     1      35.547 -19.931 -20.779  0.00  0.00    -0.266 N 
ATOM     30  C   UNL     1      34.132 -19.019 -22.413  0.00  0.00    +0.085 C 
ATOM     31  C   UNL     1      34.228 -20.090 -21.338  0.00  0.00    +0.082 C 
ATOM     32  C   UNL     1      36.302 -18.983 -21.485  0.00  0.00    +0.311 C 
ATOM     33  H   UNL     1      35.877 -20.429 -19.996  0.00  0.00    +0.157 HD
ENDBRANCH  26  28
ENDBRANCH  25  26
ENDBRANCH  18  25
ENDBRANCH   3  19
TORSDOF 5
ENDMDL
MODEL 6
REMARK VINA RESULT:      -9.7      9.722     13.753
REMARK  Name = 60149
REMARK  5 active torsions:
REMARK  status: ('A' for Active; 'I' for Inactive)
REMARK    1  A    between atoms: N_2  and  C_12
REMARK    2  A    between atoms: C_3  and  C_19
REMARK    3  A    between atoms: N_18  and  C_25
REMARK    4  A    between atoms: C_25  and  C_26
REMARK    5  A    between atoms: C_26  and  N_28
REMARK                            x       y       z     vdW  Elec       q    Type
REMARK                         _______ _______ _______ _____ _____    ______ ____
ROOT
ATOM      1 CL   UNL     1      30.390  -9.984 -19.471  0.00  0.00    -0.082 Cl
ATOM      2  N   UNL     1      33.398 -12.652 -23.709  0.00  0.00    -0.265 N 
ATOM      3  C   UNL     1      33.240 -10.454 -23.921  0.00  0.00    -0.006 C 
ATOM      4  C   UNL     1      32.549 -10.831 -22.739  0.00  0.00    +0.012 C 
ATOM      5  C   UNL     1      33.751 -11.590 -24.497  0.00  0.00    +0.065 C 
ATOM      6  C   UNL     1      32.664 -12.218 -22.628  0.00  0.00    +0.055 C 
ATOM      7  C   UNL     1      31.835 -10.128 -21.749  0.00  0.00    +0.012 C 
ATOM      8  C   UNL     1      32.098 -12.940 -21.571  0.00  0.00    +0.016 C 
ATOM      9  C   UNL     1      31.263 -10.837 -20.687  0.00  0.00    +0.058 C 
ATOM     10  C   UNL     1      31.394 -12.222 -20.601  0.00  0.00    +0.013 C 
ENDROOT
BRANCH   2  12
ATOM     11  F   UNL     1      34.774 -17.881 -24.778  0.00  0.00    -0.204 F 
ATOM     12  C   UNL     1      33.747 -13.978 -23.980  0.00  0.00    +0.056 C 
ATOM     13  C   UNL     1      34.557 -14.666 -23.089  0.00  0.00    +0.017 C 
ATOM     14  C   UNL     1      33.278 -14.584 -25.136  0.00  0.00    +0.017 C 
ATOM     15  C   UNL     1      34.907 -15.990 -23.360  0.00  0.00    +0.031 C 
ATOM     16  C   UNL     1      33.627 -15.907 -25.407  0.00  0.00    +0.031 C 
ATOM     17  C   UNL     1      34.441 -16.611 -24.519  0.00  0.00    +0.140 C 
ENDBRANCH   2  12
BRANCH   3  19
ATOM     18  N   UNL     1      33.131  -6.133 -24.273  0.00  0.00    +0.388 N 
ATOM     19  C   UNL     1      33.390  -9.049 -24.461  0.00  0.00    +0.019 C 
ATOM     20  C   UNL     1      32.042  -8.327 -24.621  0.00  0.00    -0.018 C 
ATOM     21  C   UNL     1      34.344  -8.188 -23.619  0.00  0.00    -0.018 C 
ATOM     22  C   UNL     1      32.234  -6.902 -25.146  0.00  0.00    -0.077 C 
ATOM     23  C   UNL     1      34.452  -6.767 -24.179  0.00  0.00    -0.077 C 
ATOM     24  H   UNL     1      32.723  -6.115 -23.339  0.00  0.00    -0.080 HD
BRANCH  18  25
ATOM     25  C   UNL     1      33.258  -4.757 -24.756  0.00  0.00    -0.055 C 
BRANCH  25  26
ATOM     26  C   UNL     1      33.992  -4.732 -26.089  0.00  0.00    +0.077 C 
BRANCH  26  28
ATOM     27  O   UNL     1      34.807  -3.844 -28.843  0.00  0.00    -0.252 OA
ATOM     28  N   UNL     1      33.245  -4.007 -27.081  0.00  0.00    -0.243 N 
ATOM     29  N   UNL     1      32.639  -2.975 -28.999  0.00  0.00    -0.266 N 
ATOM     30  C   UNL     1      31.852  -3.641 -26.891  0.00  0.00    +0.085 C 
ATOM     31  C   UNL     1      31.491  -2.847 -28.137  0.00  0.00    +0.082 C 
ATOM     32  C   UNL     1      33.700  -3.635 -28.361  0.00  0.00    +0.311 C 
ATOM     33  H   UNL     1      32.674  -2.638 -29.924  0.00  0.00    +0.157 HD
ENDBRANCH  26  28
ENDBRANCH  25  26
ENDBRANCH  18  25
ENDBRANCH   3  19
TORSDOF 5
ENDMDL
MODEL 7
REMARK VINA RESULT:      -9.3      8.480     15.144
REMARK  Name = 60149
REMARK  5 active torsions:
REMARK  status: ('A' for Active; 'I' for Inactive)
REMARK    1  A    between atoms: N_2  and  C_12
REMARK    2  A    between atoms: C_3  and  C_19
REMARK    3  A    between atoms: N_18  and  C_25
REMARK    4  A    between atoms: C_25  and  C_26
REMARK    5  A    between atoms: C_26  and  N_28
REMARK                            x       y       z     vdW  Elec       q    Type
REMARK                         _______ _______ _______ _____ _____    ______ ____
ROOT
ATOM      1 CL   UNL     1      31.377  -8.901 -19.244  0.00  0.00    -0.082 Cl
ATOM      2  N   UNL     1      33.423  -7.735 -24.591  0.00  0.00    -0.265 N 
ATOM      3  C   UNL     1      32.978  -9.870 -24.209  0.00  0.00    -0.006 C 
ATOM      4  C   UNL     1      32.671  -9.140 -23.030  0.00  0.00    +0.012 C 
ATOM      5  C   UNL     1      33.437  -8.984 -25.151  0.00  0.00    +0.065 C 
ATOM      6  C   UNL     1      32.959  -7.800 -23.297  0.00  0.00    +0.055 C 
ATOM      7  C   UNL     1      32.174  -9.488 -21.758  0.00  0.00    +0.012 C 
ATOM      8  C   UNL     1      32.774  -6.786 -22.350  0.00  0.00    +0.016 C 
ATOM      9  C   UNL     1      31.985  -8.484 -20.802  0.00  0.00    +0.058 C 
ATOM     10  C   UNL     1      32.281  -7.154 -21.095  0.00  0.00    +0.013 C 
ENDROOT
BRANCH   2  12
ATOM     11  F   UNL     1      35.002  -3.155 -27.220  0.00  0.00    -0.204 F 
ATOM     12  C   UNL     1      33.823  -6.573 -25.258  0.00  0.00    +0.056 C 
ATOM     13  C   UNL     1      35.150  -6.427 -25.637  0.00  0.00    +0.017 C 
ATOM     14  C   UNL     1      32.887  -5.586 -25.529  0.00  0.00    +0.017 C 
ATOM     15  C   UNL     1      35.550  -5.267 -26.301  0.00  0.00    +0.031 C 
ATOM     16  C   UNL     1      33.287  -4.426 -26.193  0.00  0.00    +0.031 C 
ATOM     17  C   UNL     1      34.618  -4.267 -26.581  0.00  0.00    +0.140 C 
ENDBRANCH   2  12
BRANCH   3  19
ATOM     18  N   UNL     1      33.840 -14.116 -24.379  0.00  0.00    +0.388 N 
ATOM     19  C   UNL     1      32.830 -11.362 -24.402  0.00  0.00    +0.019 C 
ATOM     20  C   UNL     1      33.752 -11.913 -25.502  0.00  0.00    -0.018 C 
ATOM     21  C   UNL     1      33.041 -12.154 -23.102  0.00  0.00    -0.018 C 
ATOM     22  C   UNL     1      33.593 -13.428 -25.653  0.00  0.00    -0.077 C 
ATOM     23  C   UNL     1      32.908 -13.660 -23.340  0.00  0.00    -0.077 C 
ATOM     24  H   UNL     1      34.787 -13.887 -24.076  0.00  0.00    -0.080 HD
BRANCH  18  25
ATOM     25  C   UNL     1      33.741 -15.566 -24.553  0.00  0.00    -0.055 C 
BRANCH  25  26
ATOM     26  C   UNL     1      35.087 -16.223 -24.287  0.00  0.00    +0.077 C 
BRANCH  26  28
ATOM     27  O   UNL     1      35.064 -16.602 -21.306  0.00  0.00    -0.252 OA
ATOM     28  N   UNL     1      34.935 -17.426 -23.513  0.00  0.00    -0.243 N 
ATOM     29  N   UNL     1      34.722 -18.868 -21.785  0.00  0.00    -0.266 N 
ATOM     30  C   UNL     1      34.677 -18.717 -24.126  0.00  0.00    +0.085 C 
ATOM     31  C   UNL     1      34.652 -19.695 -22.962  0.00  0.00    +0.082 C 
ATOM     32  C   UNL     1      34.925 -17.517 -22.108  0.00  0.00    +0.311 C 
ATOM     33  H   UNL     1      34.638 -19.209 -20.865  0.00  0.00    +0.157 HD
ENDBRANCH  26  28
ENDBRANCH  25  26
ENDBRANCH  18  25
ENDBRANCH   3  19
TORSDOF 5
ENDMDL
MODEL 8
REMARK VINA RESULT:      -8.9      6.297     12.282
REMARK  Name = 60149
REMARK  5 active torsions:
REMARK  status: ('A' for Active; 'I' for Inactive)
REMARK    1  A    between atoms: N_2  and  C_12
REMARK    2  A    between atoms: C_3  and  C_19
REMARK    3  A    between atoms: N_18  and  C_25
REMARK    4  A    between atoms: C_25  and  C_26
REMARK    5  A    between atoms: C_26  and  N_28
REMARK                            x       y       z     vdW  Elec       q    Type
REMARK                         _______ _______ _______ _____ _____    ______ ____
ROOT
ATOM      1 CL   UNL     1      34.780 -11.389 -28.084  0.00  0.00    -0.082 Cl
ATOM      2  N   UNL     1      32.907 -11.817 -22.567  0.00  0.00    -0.265 N 
ATOM      3  C   UNL     1      33.910 -13.628 -23.353  0.00  0.00    -0.006 C 
ATOM      4  C   UNL     1      33.905 -12.648 -24.381  0.00  0.00    +0.012 C 
ATOM      5  C   UNL     1      33.292 -13.092 -22.252  0.00  0.00    +0.065 C 
ATOM      6  C   UNL     1      33.269 -11.519 -23.861  0.00  0.00    +0.055 C 
ATOM      7  C   UNL     1      34.380 -12.609 -25.708  0.00  0.00    +0.012 C 
ATOM      8  C   UNL     1      33.084 -10.347 -24.605  0.00  0.00    +0.016 C 
ATOM      9  C   UNL     1      34.201 -11.445 -26.462  0.00  0.00    +0.058 C 
ATOM     10  C   UNL     1      33.562 -10.332 -25.918  0.00  0.00    +0.013 C 
ENDROOT
BRANCH   2  12
ATOM     11  F   UNL     1      30.299  -8.428 -19.090  0.00  0.00    -0.204 F 
ATOM     12  C   UNL     1      32.246 -10.958 -21.685  0.00  0.00    +0.056 C 
ATOM     13  C   UNL     1      32.260  -9.591 -21.924  0.00  0.00    +0.017 C 
ATOM     14  C   UNL     1      31.586 -11.486 -20.585  0.00  0.00    +0.017 C 
ATOM     15  C   UNL     1      31.601  -8.733 -21.043  0.00  0.00    +0.031 C 
ATOM     16  C   UNL     1      30.927 -10.627 -19.704  0.00  0.00    +0.031 C 
ATOM     17  C   UNL     1      30.933  -9.251 -19.934  0.00  0.00    +0.140 C 
ENDBRANCH   2  12
BRANCH   3  19
ATOM     18  N   UNL     1      34.359 -17.936 -23.144  0.00  0.00    +0.388 N 
ATOM     19  C   UNL     1      34.491 -15.021 -23.447  0.00  0.00    +0.019 C 
ATOM     20  C   UNL     1      34.594 -15.715 -22.079  0.00  0.00    -0.018 C 
ATOM     21  C   UNL     1      33.723 -15.919 -24.430  0.00  0.00    -0.018 C 
ATOM     22  C   UNL     1      35.163 -17.129 -22.215  0.00  0.00    -0.077 C 
ATOM     23  C   UNL     1      34.322 -17.327 -24.480  0.00  0.00    -0.077 C 
ATOM     24  H   UNL     1      33.405 -17.970 -22.787  0.00  0.00    -0.080 HD
BRANCH  18  25
ATOM     25  C   UNL     1      34.882 -19.301 -23.219  0.00  0.00    -0.055 C 
BRANCH  25  26
ATOM     26  C   UNL     1      35.674 -19.632 -21.963  0.00  0.00    +0.077 C 
BRANCH  26  28
ATOM     27  O   UNL     1      36.556 -21.633 -19.900  0.00  0.00    -0.252 OA
ATOM     28  N   UNL     1      34.891 -20.414 -21.045  0.00  0.00    -0.243 N 
ATOM     29  N   UNL     1      34.279 -21.838 -19.399  0.00  0.00    -0.266 N 
ATOM     30  C   UNL     1      33.450 -20.271 -20.935  0.00  0.00    +0.085 C 
ATOM     31  C   UNL     1      33.038 -21.315 -19.909  0.00  0.00    +0.082 C 
ATOM     32  C   UNL     1      35.386 -21.329 -20.095  0.00  0.00    +0.311 C 
ATOM     33  H   UNL     1      34.343 -22.476 -18.651  0.00  0.00    +0.157 HD
ENDBRANCH  26  28
ENDBRANCH  25  26
ENDBRANCH  18  25
ENDBRANCH   3  19
TORSDOF 5
ENDMDL
