MODEL 1
REMARK VINA RESULT:     -13.2      0.000      0.000
REMARK  Name = 24767976
REMARK  5 active torsions:
REMARK  status: ('A' for Active; 'I' for Inactive)
REMARK    1  A    between atoms: C_1  and  N_9
REMARK    2  A    between atoms: C_2  and  O_19
REMARK    3  A    between atoms: C_10  and  C_14
REMARK    4  A    between atoms: O_19  and  C_27
REMARK    5  A    between atoms: C_31  and  C_33
REMARK                            x       y       z     vdW  Elec       q    Type
REMARK                         _______ _______ _______ _____ _____    ______ ____
ROOT
ATOM      1  C   UNL     1      34.965 -21.665 -19.168  0.00  0.00    +0.050 C 
ATOM      2  C   UNL     1      35.398 -20.151 -20.999  0.00  0.00    +0.148 C 
ATOM      3  C   UNL     1      33.598 -21.590 -19.428  0.00  0.00    -0.008 C 
ATOM      4  C   UNL     1      35.866 -20.945 -19.954  0.00  0.00    +0.052 C 
ATOM      5  C   UNL     1      33.129 -20.794 -20.475  0.00  0.00    +0.000 C 
ATOM      6  C   UNL     1      34.030 -20.075 -21.260  0.00  0.00    +0.037 C 
ATOM      7  C   UNL     1      32.610 -22.349 -18.602  0.00  0.00    +0.032 C 
ENDROOT
BRANCH   1   9
ATOM      8  O   UNL     1      36.926 -21.014 -16.995  0.00  0.00    -0.268 OA
ATOM      9  N   UNL     1      35.453 -22.456 -18.125  0.00  0.00    -0.279 N 
ATOM     10  C   UNL     1      36.374 -22.101 -17.132  0.00  0.00    +0.265 C 
ATOM     11  H   UNL     1      35.109 -23.378 -18.084  0.00  0.00    +0.155 HD
BRANCH  10  14
ATOM     12  N   UNL     1      35.826 -23.910 -15.444  0.00  0.00    -0.206 N 
ATOM     13  N   UNL     1      36.397 -24.826 -14.643  0.00  0.00    -0.182 NA
ATOM     14  C   UNL     1      36.721 -23.179 -16.170  0.00  0.00    +0.124 C 
ATOM     15  C   UNL     1      37.962 -23.650 -15.820  0.00  0.00    +0.037 C 
ATOM     16  C   UNL     1      37.701 -24.663 -14.877  0.00  0.00    +0.078 C 
ATOM     17  C   UNL     1      34.387 -23.786 -15.463  0.00  0.00    +0.140 C 
ATOM     18  C   UNL     1      38.682 -25.505 -14.172  0.00  0.00    +0.054 C 
ENDBRANCH  10  14
ENDBRANCH   1   9
BRANCH   2  19
ATOM     19  O   UNL     1      36.296 -19.432 -21.784  0.00  0.00    -0.435 OA
BRANCH  19  27
ATOM     20  N   UNL     1      33.592 -16.770 -25.533  0.00  0.00    -0.373 NA
ATOM     21  N   UNL     1      34.876 -16.895 -23.713  0.00  0.00    -0.173 N 
ATOM     22  N   UNL     1      35.607 -17.424 -22.693  0.00  0.00    -0.138 NA
ATOM     23  C   UNL     1      33.883 -15.511 -25.074  0.00  0.00    +0.187 C 
ATOM     24  C   UNL     1      34.674 -15.561 -23.951  0.00  0.00    +0.193 C 
ATOM     25  C   UNL     1      34.199 -17.592 -24.701  0.00  0.00    +0.204 C 
ATOM     26  C   UNL     1      34.265 -19.005 -24.657  0.00  0.00    +0.054 C 
ATOM     27  C   UNL     1      35.627 -18.717 -22.711  0.00  0.00    +0.245 C 
ATOM     28  C   UNL     1      34.963 -19.608 -23.686  0.00  0.00    +0.063 C 
ATOM     29  O   UNL     1      34.299 -12.612 -24.378  0.00  0.00    -0.275 OA
ATOM     30  N   UNL     1      33.423 -14.370 -25.687  0.00  0.00    -0.261 N 
ATOM     31  C   UNL     1      33.643 -13.025 -25.325  0.00  0.00    +0.227 C 
ATOM     32  H   UNL     1      32.865 -14.511 -26.485  0.00  0.00    +0.157 HD
BRANCH  31  33
ATOM     33  C   UNL     1      32.987 -12.024 -26.225  0.00  0.00    +0.077 C 
ATOM     34  C   UNL     1      33.685 -11.612 -27.488  0.00  0.00    +0.010 C 
ATOM     35  C   UNL     1      33.579 -10.650 -26.341  0.00  0.00    +0.010 C 
ENDBRANCH  31  33
ENDBRANCH  19  27
ENDBRANCH   2  19
TORSDOF 5
ENDMDL
MODEL 2
REMARK VINA RESULT:     -12.2      2.160      2.362
REMARK  Name = 24767976
REMARK  5 active torsions:
REMARK  status: ('A' for Active; 'I' for Inactive)
REMARK    1  A    between atoms: C_1  and  N_9
REMARK    2  A    between atoms: C_2  and  O_19
REMARK    3  A    between atoms: C_10  and  C_14
REMARK    4  A    between atoms: O_19  and  C_27
REMARK    5  A    between atoms: C_31  and  C_33
REMARK                            x       y       z     vdW  Elec       q    Type
REMARK                         _______ _______ _______ _____ _____    ______ ____
ROOT
ATOM      1  C   UNL     1      35.218 -21.291 -19.500  0.00  0.00    +0.050 C 
ATOM      2  C   UNL     1      35.539 -19.623 -21.217  0.00  0.00    +0.148 C 
ATOM      3  C   UNL     1      33.867 -21.374 -19.832  0.00  0.00    -0.008 C 
ATOM      4  C   UNL     1      36.054 -20.415 -20.192  0.00  0.00    +0.052 C 
ATOM      5  C   UNL     1      33.350 -20.582 -20.858  0.00  0.00    +0.000 C 
ATOM      6  C   UNL     1      34.187 -19.706 -21.551  0.00  0.00    +0.037 C 
ATOM      7  C   UNL     1      32.947 -22.303 -19.107  0.00  0.00    +0.032 C 
ENDROOT
BRANCH   1   9
ATOM      8  O   UNL     1      37.159 -20.584 -17.327  0.00  0.00    -0.268 OA
ATOM      9  N   UNL     1      35.754 -22.077 -18.476  0.00  0.00    -0.279 N 
ATOM     10  C   UNL     1      36.662 -21.694 -17.483  0.00  0.00    +0.265 C 
ATOM     11  H   UNL     1      35.456 -23.016 -18.452  0.00  0.00    +0.155 HD
BRANCH  10  14
ATOM     12  N   UNL     1      36.238 -23.438 -15.692  0.00  0.00    -0.206 N 
ATOM     13  N   UNL     1      36.856 -24.370 -14.947  0.00  0.00    -0.182 NA
ATOM     14  C   UNL     1      37.070 -22.773 -16.544  0.00  0.00    +0.124 C 
ATOM     15  C   UNL     1      38.319 -23.307 -16.342  0.00  0.00    +0.037 C 
ATOM     16  C   UNL     1      38.127 -24.285 -15.348  0.00  0.00    +0.078 C 
ATOM     17  C   UNL     1      34.817 -23.233 -15.532  0.00  0.00    +0.140 C 
ATOM     18  C   UNL     1      39.142 -25.169 -14.751  0.00  0.00    +0.054 C 
ENDBRANCH  10  14
ENDBRANCH   1   9
BRANCH   2  19
ATOM     19  O   UNL     1      36.373 -18.748 -21.909  0.00  0.00    -0.435 OA
BRANCH  19  27
ATOM     20  N   UNL     1      33.560 -14.738 -24.020  0.00  0.00    -0.373 NA
ATOM     21  N   UNL     1      34.430 -15.879 -22.312  0.00  0.00    -0.173 N 
ATOM     22  N   UNL     1      35.113 -16.835 -21.622  0.00  0.00    -0.138 NA
ATOM     23  C   UNL     1      33.231 -14.134 -22.833  0.00  0.00    +0.187 C 
ATOM     24  C   UNL     1      33.755 -14.820 -21.764  0.00  0.00    +0.193 C 
ATOM     25  C   UNL     1      34.283 -15.788 -23.686  0.00  0.00    +0.204 C 
ATOM     26  C   UNL     1      34.903 -16.789 -24.470  0.00  0.00    +0.054 C 
ATOM     27  C   UNL     1      35.654 -17.718 -22.397  0.00  0.00    +0.245 C 
ATOM     28  C   UNL     1      35.595 -17.768 -23.874  0.00  0.00    +0.063 C 
ATOM     29  O   UNL     1      32.311 -12.535 -20.455  0.00  0.00    -0.275 OA
ATOM     30  N   UNL     1      32.470 -12.991 -22.765  0.00  0.00    -0.261 N 
ATOM     31  C   UNL     1      32.061 -12.272 -21.623  0.00  0.00    +0.227 C 
ATOM     32  H   UNL     1      32.172 -12.626 -23.628  0.00  0.00    +0.157 HD
BRANCH  31  33
ATOM     33  C   UNL     1      31.234 -11.059 -21.917  0.00  0.00    +0.077 C 
ATOM     34  C   UNL     1      31.920  -9.795 -22.345  0.00  0.00    +0.010 C 
ATOM     35  C   UNL     1      31.300  -9.887 -20.982  0.00  0.00    +0.010 C 
ENDBRANCH  31  33
ENDBRANCH  19  27
ENDBRANCH   2  19
TORSDOF 5
ENDMDL
MODEL 3
REMARK VINA RESULT:     -11.9      3.683     12.635
REMARK  Name = 24767976
REMARK  5 active torsions:
REMARK  status: ('A' for Active; 'I' for Inactive)
REMARK    1  A    between atoms: C_1  and  N_9
REMARK    2  A    between atoms: C_2  and  O_19
REMARK    3  A    between atoms: C_10  and  C_14
REMARK    4  A    between atoms: O_19  and  C_27
REMARK    5  A    between atoms: C_31  and  C_33
REMARK                            x       y       z     vdW  Elec       q    Type
REMARK                         _______ _______ _______ _____ _____    ______ ____
ROOT
ATOM      1  C   UNL     1      32.682 -11.025 -23.214  0.00  0.00    +0.050 C 
ATOM      2  C   UNL     1      33.698 -13.129 -23.827  0.00  0.00    +0.148 C 
ATOM      3  C   UNL     1      31.937 -11.671 -22.229  0.00  0.00    -0.008 C 
ATOM      4  C   UNL     1      33.563 -11.754 -24.014  0.00  0.00    +0.052 C 
ATOM      5  C   UNL     1      32.073 -13.047 -22.042  0.00  0.00    +0.000 C 
ATOM      6  C   UNL     1      32.954 -13.776 -22.841  0.00  0.00    +0.037 C 
ATOM      7  C   UNL     1      30.986 -10.916 -21.358  0.00  0.00    +0.032 C 
ENDROOT
BRANCH   1   9
ATOM      8  O   UNL     1      32.824  -9.416 -25.741  0.00  0.00    -0.268 OA
ATOM      9  N   UNL     1      32.561  -9.648 -23.416  0.00  0.00    -0.279 N 
ATOM     10  C   UNL     1      32.636  -8.945 -24.624  0.00  0.00    +0.265 C 
ATOM     11  H   UNL     1      32.405  -9.105 -22.609  0.00  0.00    +0.155 HD
BRANCH  10  14
ATOM     12  N   UNL     1      33.509  -6.595 -24.245  0.00  0.00    -0.206 N 
ATOM     13  N   UNL     1      33.118  -5.310 -24.195  0.00  0.00    -0.182 NA
ATOM     14  C   UNL     1      32.495  -7.469 -24.511  0.00  0.00    +0.124 C 
ATOM     15  C   UNL     1      31.364  -6.702 -24.644  0.00  0.00    +0.037 C 
ATOM     16  C   UNL     1      31.807  -5.382 -24.440  0.00  0.00    +0.078 C 
ATOM     17  C   UNL     1      34.899  -6.921 -24.023  0.00  0.00    +0.140 C 
ATOM     18  C   UNL     1      31.001  -4.150 -24.472  0.00  0.00    +0.054 C 
ENDBRANCH  10  14
ENDBRANCH   1   9
BRANCH   2  19
ATOM     19  O   UNL     1      34.577 -13.857 -24.625  0.00  0.00    -0.435 OA
BRANCH  19  27
ATOM     20  N   UNL     1      34.236 -19.056 -23.479  0.00  0.00    -0.373 NA
ATOM     21  N   UNL     1      34.973 -16.981 -23.122  0.00  0.00    -0.173 N 
ATOM     22  N   UNL     1      35.162 -15.641 -23.281  0.00  0.00    -0.138 NA
ATOM     23  C   UNL     1      35.055 -19.029 -22.379  0.00  0.00    +0.187 C 
ATOM     24  C   UNL     1      35.523 -17.760 -22.138  0.00  0.00    +0.193 C 
ATOM     25  C   UNL     1      34.198 -17.812 -23.914  0.00  0.00    +0.204 C 
ATOM     26  C   UNL     1      33.525 -17.220 -25.009  0.00  0.00    +0.054 C 
ATOM     27  C   UNL     1      34.520 -15.164 -24.297  0.00  0.00    +0.245 C 
ATOM     28  C   UNL     1      33.656 -15.908 -25.238  0.00  0.00    +0.063 C 
ATOM     29  O   UNL     1      36.781 -19.369 -19.937  0.00  0.00    -0.275 OA
ATOM     30  N   UNL     1      35.345 -20.151 -21.640  0.00  0.00    -0.261 N 
ATOM     31  C   UNL     1      36.163 -20.265 -20.497  0.00  0.00    +0.227 C 
ATOM     32  H   UNL     1      34.926 -20.985 -21.949  0.00  0.00    +0.157 HD
BRANCH  31  33
ATOM     33  C   UNL     1      36.258 -21.651 -19.938  0.00  0.00    +0.077 C 
ATOM     34  C   UNL     1      35.112 -22.192 -19.132  0.00  0.00    +0.010 C 
ATOM     35  C   UNL     1      36.402 -21.830 -18.455  0.00  0.00    +0.010 C 
ENDBRANCH  31  33
ENDBRANCH  19  27
ENDBRANCH   2  19
TORSDOF 5
ENDMDL
MODEL 4
REMARK VINA RESULT:     -11.5      1.467      1.842
REMARK  Name = 24767976
REMARK  5 active torsions:
REMARK  status: ('A' for Active; 'I' for Inactive)
REMARK    1  A    between atoms: C_1  and  N_9
REMARK    2  A    between atoms: C_2  and  O_19
REMARK    3  A    between atoms: C_10  and  C_14
REMARK    4  A    between atoms: O_19  and  C_27
REMARK    5  A    between atoms: C_31  and  C_33
REMARK                            x       y       z     vdW  Elec       q    Type
REMARK                         _______ _______ _______ _____ _____    ______ ____
ROOT
ATOM      1  C   UNL     1      34.987 -22.277 -18.088  0.00  0.00    +0.050 C 
ATOM      2  C   UNL     1      35.598 -20.904 -19.978  0.00  0.00    +0.148 C 
ATOM      3  C   UNL     1      33.678 -22.351 -18.564  0.00  0.00    -0.008 C 
ATOM      4  C   UNL     1      35.947 -21.553 -18.794  0.00  0.00    +0.052 C 
ATOM      5  C   UNL     1      33.330 -21.702 -19.749  0.00  0.00    +0.000 C 
ATOM      6  C   UNL     1      34.290 -20.978 -20.456  0.00  0.00    +0.037 C 
ATOM      7  C   UNL     1      32.629 -23.119 -17.827  0.00  0.00    +0.032 C 
ENDROOT
BRANCH   1   9
ATOM      8  O   UNL     1      37.154 -21.626 -16.120  0.00  0.00    -0.268 OA
ATOM      9  N   UNL     1      35.355 -22.921 -16.904  0.00  0.00    -0.279 N 
ATOM     10  C   UNL     1      36.381 -22.573 -16.018  0.00  0.00    +0.265 C 
ATOM     11  H   UNL     1      34.829 -23.719 -16.664  0.00  0.00    +0.155 HD
BRANCH  10  14
ATOM     12  N   UNL     1      37.594 -24.331 -14.653  0.00  0.00    -0.206 N 
ATOM     13  N   UNL     1      37.507 -25.042 -13.515  0.00  0.00    -0.182 NA
ATOM     14  C   UNL     1      36.548 -23.478 -14.850  0.00  0.00    +0.124 C 
ATOM     15  C   UNL     1      35.720 -23.642 -13.766  0.00  0.00    +0.037 C 
ATOM     16  C   UNL     1      36.361 -24.616 -12.978  0.00  0.00    +0.078 C 
ATOM     17  C   UNL     1      38.731 -24.525 -15.522  0.00  0.00    +0.140 C 
ATOM     18  C   UNL     1      35.905 -25.172 -11.693  0.00  0.00    +0.054 C 
ENDBRANCH  10  14
ENDBRANCH   1   9
BRANCH   2  19
ATOM     19  O   UNL     1      36.557 -20.181 -20.684  0.00  0.00    -0.435 OA
BRANCH  19  27
ATOM     20  N   UNL     1      34.138 -17.162 -24.357  0.00  0.00    -0.373 NA
ATOM     21  N   UNL     1      35.216 -17.474 -22.430  0.00  0.00    -0.173 N 
ATOM     22  N   UNL     1      35.859 -18.101 -21.406  0.00  0.00    -0.138 NA
ATOM     23  C   UNL     1      34.304 -15.964 -23.710  0.00  0.00    +0.187 C 
ATOM     24  C   UNL     1      34.965 -16.129 -22.518  0.00  0.00    +0.193 C 
ATOM     25  C   UNL     1      34.695 -18.061 -23.571  0.00  0.00    +0.204 C 
ATOM     26  C   UNL     1      34.837 -19.463 -23.699  0.00  0.00    +0.054 C 
ATOM     27  C   UNL     1      35.955 -19.379 -21.585  0.00  0.00    +0.245 C 
ATOM     28  C   UNL     1      35.456 -20.159 -22.738  0.00  0.00    +0.063 C 
ATOM     29  O   UNL     1      34.472 -13.168 -22.607  0.00  0.00    -0.275 OA
ATOM     30  N   UNL     1      33.849 -14.772 -24.223  0.00  0.00    -0.261 N 
ATOM     31  C   UNL     1      33.950 -13.479 -23.670  0.00  0.00    +0.227 C 
ATOM     32  H   UNL     1      33.393 -14.829 -25.093  0.00  0.00    +0.157 HD
BRANCH  31  33
ATOM     33  C   UNL     1      33.341 -12.396 -24.506  0.00  0.00    +0.077 C 
ATOM     34  C   UNL     1      34.231 -11.570 -25.389  0.00  0.00    +0.010 C 
ATOM     35  C   UNL     1      33.620 -10.964 -24.159  0.00  0.00    +0.010 C 
ENDBRANCH  31  33
ENDBRANCH  19  27
ENDBRANCH   2  19
TORSDOF 5
ENDMDL
MODEL 5
REMARK VINA RESULT:     -11.4      2.053     11.609
REMARK  Name = 24767976
REMARK  5 active torsions:
REMARK  status: ('A' for Active; 'I' for Inactive)
REMARK    1  A    between atoms: C_1  and  N_9
REMARK    2  A    between atoms: C_2  and  O_19
REMARK    3  A    between atoms: C_10  and  C_14
REMARK    4  A    between atoms: O_19  and  C_27
REMARK    5  A    between atoms: C_31  and  C_33
REMARK                            x       y       z     vdW  Elec       q    Type
REMARK                         _______ _______ _______ _____ _____    ______ ____
ROOT
ATOM      1  C   UNL     1      34.791 -19.267 -21.376  0.00  0.00    +0.050 C 
ATOM      2  C   UNL     1      33.967 -21.250 -20.272  0.00  0.00    +0.148 C 
ATOM      3  C   UNL     1      36.100 -19.650 -21.088  0.00  0.00    -0.008 C 
ATOM      4  C   UNL     1      33.724 -20.067 -20.968  0.00  0.00    +0.052 C 
ATOM      5  C   UNL     1      36.343 -20.834 -20.391  0.00  0.00    +0.000 C 
ATOM      6  C   UNL     1      35.276 -21.634 -19.983  0.00  0.00    +0.037 C 
ATOM      7  C   UNL     1      37.263 -18.812 -21.513  0.00  0.00    +0.032 C 
ENDROOT
BRANCH   1   9
ATOM      8  O   UNL     1      34.754 -18.724 -24.325  0.00  0.00    -0.268 OA
ATOM      9  N   UNL     1      34.528 -18.085 -22.074  0.00  0.00    -0.279 N 
ATOM     10  C   UNL     1      34.524 -17.886 -23.459  0.00  0.00    +0.265 C 
ATOM     11  H   UNL     1      34.321 -17.295 -21.523  0.00  0.00    +0.155 HD
BRANCH  10  14
ATOM     12  N   UNL     1      34.268 -15.389 -23.107  0.00  0.00    -0.206 N 
ATOM     13  N   UNL     1      33.963 -14.249 -23.750  0.00  0.00    -0.182 NA
ATOM     14  C   UNL     1      34.233 -16.497 -23.902  0.00  0.00    +0.124 C 
ATOM     15  C   UNL     1      33.880 -16.051 -25.152  0.00  0.00    +0.037 C 
ATOM     16  C   UNL     1      33.727 -14.659 -24.999  0.00  0.00    +0.078 C 
ATOM     17  C   UNL     1      34.589 -15.341 -21.699  0.00  0.00    +0.140 C 
ATOM     18  C   UNL     1      33.354 -13.679 -26.033  0.00  0.00    +0.054 C 
ENDBRANCH  10  14
ENDBRANCH   1   9
BRANCH   2  19
ATOM     19  O   UNL     1      32.901 -22.049 -19.863  0.00  0.00    -0.435 OA
BRANCH  19  27
ATOM     20  N   UNL     1      33.566 -23.834 -14.881  0.00  0.00    -0.373 NA
ATOM     21  N   UNL     1      34.313 -23.135 -16.863  0.00  0.00    -0.173 N 
ATOM     22  N   UNL     1      34.312 -22.677 -18.146  0.00  0.00    -0.138 NA
ATOM     23  C   UNL     1      34.938 -23.844 -14.899  0.00  0.00    +0.187 C 
ATOM     24  C   UNL     1      35.423 -23.418 -16.112  0.00  0.00    +0.193 C 
ATOM     25  C   UNL     1      33.207 -23.404 -16.074  0.00  0.00    +0.204 C 
ATOM     26  C   UNL     1      31.933 -23.184 -16.649  0.00  0.00    +0.054 C 
ATOM     27  C   UNL     1      33.118 -22.498 -18.611  0.00  0.00    +0.245 C 
ATOM     28  C   UNL     1      31.840 -22.734 -17.906  0.00  0.00    +0.063 C 
ATOM     29  O   UNL     1      37.924 -24.003 -14.555  0.00  0.00    -0.275 OA
ATOM     30  N   UNL     1      35.693 -24.239 -13.820  0.00  0.00    -0.261 N 
ATOM     31  C   UNL     1      37.097 -24.298 -13.702  0.00  0.00    +0.227 C 
ATOM     32  H   UNL     1      35.187 -24.516 -13.024  0.00  0.00    +0.157 HD
BRANCH  31  33
ATOM     33  C   UNL     1      37.589 -24.776 -12.371  0.00  0.00    +0.077 C 
ATOM     34  C   UNL     1      37.403 -26.219 -12.001  0.00  0.00    +0.010 C 
ATOM     35  C   UNL     1      36.590 -25.158 -11.319  0.00  0.00    +0.010 C 
ENDBRANCH  31  33
ENDBRANCH  19  27
ENDBRANCH   2  19
TORSDOF 5
ENDMDL
MODEL 6
REMARK VINA RESULT:     -11.3      5.118      9.567
REMARK  Name = 24767976
REMARK  5 active torsions:
REMARK  status: ('A' for Active; 'I' for Inactive)
REMARK    1  A    between atoms: C_1  and  N_9
REMARK    2  A    between atoms: C_2  and  O_19
REMARK    3  A    between atoms: C_10  and  C_14
REMARK    4  A    between atoms: O_19  and  C_27
REMARK    5  A    between atoms: C_31  and  C_33
REMARK                            x       y       z     vdW  Elec       q    Type
REMARK                         _______ _______ _______ _____ _____    ______ ____
ROOT
ATOM      1  C   UNL     1      33.258 -13.818 -22.690  0.00  0.00    +0.050 C 
ATOM      2  C   UNL     1      33.250 -11.829 -24.060  0.00  0.00    +0.148 C 
ATOM      3  C   UNL     1      32.449 -13.177 -21.753  0.00  0.00    -0.008 C 
ATOM      4  C   UNL     1      33.659 -13.144 -23.844  0.00  0.00    +0.052 C 
ATOM      5  C   UNL     1      32.041 -11.860 -21.969  0.00  0.00    +0.000 C 
ATOM      6  C   UNL     1      32.442 -11.186 -23.123  0.00  0.00    +0.037 C 
ATOM      7  C   UNL     1      32.005 -13.874 -20.508  0.00  0.00    +0.032 C 
ENDROOT
BRANCH   1   9
ATOM      8  O   UNL     1      35.302 -15.445 -24.162  0.00  0.00    -0.268 OA
ATOM      9  N   UNL     1      33.676 -15.137 -22.492  0.00  0.00    -0.279 N 
ATOM     10  C   UNL     1      34.640 -15.851 -23.213  0.00  0.00    +0.265 C 
ATOM     11  H   UNL     1      33.239 -15.623 -21.756  0.00  0.00    +0.155 HD
BRANCH  10  14
ATOM     12  N   UNL     1      34.509 -18.367 -23.498  0.00  0.00    -0.206 N 
ATOM     13  N   UNL     1      34.800 -19.524 -22.880  0.00  0.00    -0.182 NA
ATOM     14  C   UNL     1      34.847 -17.258 -22.778  0.00  0.00    +0.124 C 
ATOM     15  C   UNL     1      35.397 -17.723 -21.608  0.00  0.00    +0.037 C 
ATOM     16  C   UNL     1      35.343 -19.125 -21.727  0.00  0.00    +0.078 C 
ATOM     17  C   UNL     1      33.894 -18.398 -24.804  0.00  0.00    +0.140 C 
ATOM     18  C   UNL     1      35.804 -20.125 -20.750  0.00  0.00    +0.054 C 
ENDBRANCH  10  14
ENDBRANCH   1   9
BRANCH   2  19
ATOM     19  O   UNL     1      33.650 -11.155 -25.212  0.00  0.00    -0.435 OA
BRANCH  19  27
ATOM     20  N   UNL     1      34.336  -5.970 -24.165  0.00  0.00    -0.373 NA
ATOM     21  N   UNL     1      33.099  -7.750 -24.691  0.00  0.00    -0.173 N 
ATOM     22  N   UNL     1      32.760  -9.037 -24.979  0.00  0.00    -0.138 NA
ATOM     23  C   UNL     1      33.023  -5.603 -24.318  0.00  0.00    +0.187 C 
ATOM     24  C   UNL     1      32.240  -6.684 -24.644  0.00  0.00    +0.193 C 
ATOM     25  C   UNL     1      34.363  -7.268 -24.393  0.00  0.00    +0.204 C 
ATOM     26  C   UNL     1      35.425  -8.202 -24.384  0.00  0.00    +0.054 C 
ATOM     27  C   UNL     1      33.776  -9.838 -24.953  0.00  0.00    +0.245 C 
ATOM     28  C   UNL     1      35.181  -9.490 -24.656  0.00  0.00    +0.063 C 
ATOM     29  O   UNL     1      30.267  -4.420 -24.566  0.00  0.00    -0.275 OA
ATOM     30  N   UNL     1      32.589  -4.309 -24.159  0.00  0.00    -0.261 N 
ATOM     31  C   UNL     1      31.281  -3.796 -24.285  0.00  0.00    +0.227 C 
ATOM     32  H   UNL     1      33.283  -3.652 -23.924  0.00  0.00    +0.157 HD
BRANCH  31  33
ATOM     33  C   UNL     1      31.165  -2.324 -24.038  0.00  0.00    +0.077 C 
ATOM     34  C   UNL     1      31.486  -1.786 -22.674  0.00  0.00    +0.010 C 
ATOM     35  C   UNL     1      30.064  -1.819 -23.153  0.00  0.00    +0.010 C 
ENDBRANCH  31  33
ENDBRANCH  19  27
ENDBRANCH   2  19
TORSDOF 5
ENDMDL
MODEL 7
REMARK VINA RESULT:     -11.2      2.291      3.665
REMARK  Name = 24767976
REMARK  5 active torsions:
REMARK  status: ('A' for Active; 'I' for Inactive)
REMARK    1  A    between atoms: C_1  and  N_9
REMARK    2  A    between atoms: C_2  and  O_19
REMARK    3  A    between atoms: C_10  and  C_14
REMARK    4  A    between atoms: O_19  and  C_27
REMARK    5  A    between atoms: C_31  and  C_33
REMARK                            x       y       z     vdW  Elec       q    Type
REMARK                         _______ _______ _______ _____ _____    ______ ____
ROOT
ATOM      1  C   UNL     1      34.628 -20.913 -19.992  0.00  0.00    +0.050 C 
ATOM      2  C   UNL     1      34.857 -19.800 -22.123  0.00  0.00    +0.148 C 
ATOM      3  C   UNL     1      36.015 -20.953 -19.863  0.00  0.00    -0.008 C 
ATOM      4  C   UNL     1      34.048 -20.337 -21.122  0.00  0.00    +0.052 C 
ATOM      5  C   UNL     1      36.825 -20.416 -20.864  0.00  0.00    +0.000 C 
ATOM      6  C   UNL     1      36.245 -19.840 -21.995  0.00  0.00    +0.037 C 
ATOM      7  C   UNL     1      36.664 -21.565 -18.663  0.00  0.00    +0.032 C 
ENDROOT
BRANCH   1   9
ATOM      8  O   UNL     1      33.753 -23.740 -19.506  0.00  0.00    -0.268 OA
ATOM      9  N   UNL     1      33.801 -21.445 -18.999  0.00  0.00    -0.279 N 
ATOM     10  C   UNL     1      33.422 -22.780 -18.818  0.00  0.00    +0.265 C 
ATOM     11  H   UNL     1      33.438 -20.801 -18.348  0.00  0.00    +0.155 HD
BRANCH  10  14
ATOM     12  N   UNL     1      32.853 -23.596 -16.487  0.00  0.00    -0.206 N 
ATOM     13  N   UNL     1      31.832 -23.714 -15.621  0.00  0.00    -0.182 NA
ATOM     14  C   UNL     1      32.501 -23.032 -17.678  0.00  0.00    +0.124 C 
ATOM     15  C   UNL     1      31.158 -22.763 -17.585  0.00  0.00    +0.037 C 
ATOM     16  C   UNL     1      30.799 -23.204 -16.297  0.00  0.00    +0.078 C 
ATOM     17  C   UNL     1      34.166 -24.054 -16.097  0.00  0.00    +0.140 C 
ATOM     18  C   UNL     1      29.468 -23.153 -15.670  0.00  0.00    +0.054 C 
ENDBRANCH  10  14
ENDBRANCH   1   9
BRANCH   2  19
ATOM     19  O   UNL     1      34.279 -19.224 -23.252  0.00  0.00    -0.435 OA
BRANCH  19  27
ATOM     20  N   UNL     1      34.557 -13.924 -22.715  0.00  0.00    -0.373 NA
ATOM     21  N   UNL     1      34.228 -15.794 -23.886  0.00  0.00    -0.173 N 
ATOM     22  N   UNL     1      34.119 -17.118 -24.185  0.00  0.00    -0.138 NA
ATOM     23  C   UNL     1      34.259 -13.618 -24.018  0.00  0.00    +0.187 C 
ATOM     24  C   UNL     1      34.052 -14.755 -24.762  0.00  0.00    +0.193 C 
ATOM     25  C   UNL     1      34.534 -15.241 -22.654  0.00  0.00    +0.204 C 
ATOM     26  C   UNL     1      34.761 -16.136 -21.582  0.00  0.00    +0.054 C 
ATOM     27  C   UNL     1      34.338 -17.880 -23.163  0.00  0.00    +0.245 C 
ATOM     28  C   UNL     1      34.674 -17.456 -21.788  0.00  0.00    +0.063 C 
ATOM     29  O   UNL     1      33.642 -12.556 -26.766  0.00  0.00    -0.275 OA
ATOM     30  N   UNL     1      34.188 -12.325 -24.481  0.00  0.00    -0.261 N 
ATOM     31  C   UNL     1      33.894 -11.871 -25.783  0.00  0.00    +0.227 C 
ATOM     32  H   UNL     1      34.364 -11.624 -23.815  0.00  0.00    +0.157 HD
BRANCH  31  33
ATOM     33  C   UNL     1      33.898 -10.382 -25.937  0.00  0.00    +0.077 C 
ATOM     34  C   UNL     1      35.161  -9.697 -26.371  0.00  0.00    +0.010 C 
ATOM     35  C   UNL     1      34.676  -9.550 -24.959  0.00  0.00    +0.010 C 
ENDBRANCH  31  33
ENDBRANCH  19  27
ENDBRANCH   2  19
TORSDOF 5
ENDMDL
MODEL 8
REMARK VINA RESULT:     -10.3      6.626     15.648
REMARK  Name = 24767976
REMARK  5 active torsions:
REMARK  status: ('A' for Active; 'I' for Inactive)
REMARK    1  A    between atoms: C_1  and  N_9
REMARK    2  A    between atoms: C_2  and  O_19
REMARK    3  A    between atoms: C_10  and  C_14
REMARK    4  A    between atoms: O_19  and  C_27
REMARK    5  A    between atoms: C_31  and  C_33
REMARK                            x       y       z     vdW  Elec       q    Type
REMARK                         _______ _______ _______ _____ _____    ______ ____
ROOT
ATOM      1  C   UNL     1      32.567  -6.430 -24.704  0.00  0.00    +0.050 C 
ATOM      2  C   UNL     1      32.072  -8.142 -23.074  0.00  0.00    +0.148 C 
ATOM      3  C   UNL     1      33.932  -6.629 -24.499  0.00  0.00    -0.008 C 
ATOM      4  C   UNL     1      31.637  -7.186 -23.991  0.00  0.00    +0.052 C 
ATOM      5  C   UNL     1      34.367  -7.586 -23.581  0.00  0.00    +0.000 C 
ATOM      6  C   UNL     1      33.437  -8.342 -22.869  0.00  0.00    +0.037 C 
ATOM      7  C   UNL     1      34.951  -5.833 -25.249  0.00  0.00    +0.032 C 
ENDROOT
BRANCH   1   9
ATOM      8  O   UNL     1      32.369  -3.448 -24.462  0.00  0.00    -0.268 OA
ATOM      9  N   UNL     1      32.112  -5.477 -25.619  0.00  0.00    -0.279 N 
ATOM     10  C   UNL     1      32.040  -4.089 -25.454  0.00  0.00    +0.265 C 
ATOM     11  H   UNL     1      31.802  -5.826 -26.487  0.00  0.00    +0.155 HD
BRANCH  10  14
ATOM     12  N   UNL     1      30.438  -2.459 -26.549  0.00  0.00    -0.206 N 
ATOM     13  N   UNL     1      30.122  -1.913 -27.735  0.00  0.00    -0.182 NA
ATOM     14  C   UNL     1      31.479  -3.339 -26.608  0.00  0.00    +0.124 C 
ATOM     15  C   UNL     1      31.871  -3.369 -27.924  0.00  0.00    +0.037 C 
ATOM     16  C   UNL     1      31.000  -2.472 -28.571  0.00  0.00    +0.078 C 
ATOM     17  C   UNL     1      29.683  -2.086 -25.375  0.00  0.00    +0.140 C 
ATOM     18  C   UNL     1      30.977  -2.118 -30.000  0.00  0.00    +0.054 C 
ENDBRANCH  10  14
ENDBRANCH   1   9
BRANCH   2  19
ATOM     19  O   UNL     1      31.144  -8.897 -22.362  0.00  0.00    -0.435 OA
BRANCH  19  27
ATOM     20  N   UNL     1      32.857 -13.896 -21.632  0.00  0.00    -0.373 NA
ATOM     21  N   UNL     1      32.469 -12.084 -22.874  0.00  0.00    -0.173 N 
ATOM     22  N   UNL     1      32.077 -10.826 -23.221  0.00  0.00    -0.138 NA
ATOM     23  C   UNL     1      33.249 -14.119 -22.928  0.00  0.00    +0.187 C 
ATOM     24  C   UNL     1      33.019 -13.016 -23.714  0.00  0.00    +0.193 C 
ATOM     25  C   UNL     1      32.389 -12.664 -21.619  0.00  0.00    +0.204 C 
ATOM     26  C   UNL     1      31.844 -11.877 -20.576  0.00  0.00    +0.054 C 
ATOM     27  C   UNL     1      31.589 -10.162 -22.224  0.00  0.00    +0.245 C 
ATOM     28  C   UNL     1      31.433 -10.629 -20.830  0.00  0.00    +0.063 C 
ATOM     29  O   UNL     1      34.220 -14.979 -25.644  0.00  0.00    -0.275 OA
ATOM     30  N   UNL     1      33.797 -15.309 -23.345  0.00  0.00    -0.261 N 
ATOM     31  C   UNL     1      34.239 -15.670 -24.634  0.00  0.00    +0.227 C 
ATOM     32  H   UNL     1      33.893 -16.000 -22.652  0.00  0.00    +0.157 HD
BRANCH  31  33
ATOM     33  C   UNL     1      34.789 -17.059 -24.734  0.00  0.00    +0.077 C 
ATOM     34  C   UNL     1      33.837 -18.218 -24.803  0.00  0.00    +0.010 C 
ATOM     35  C   UNL     1      34.649 -17.986 -23.562  0.00  0.00    +0.010 C 
ENDBRANCH  31  33
ENDBRANCH  19  27
ENDBRANCH   2  19
TORSDOF 5
ENDMDL
MODEL 9
REMARK VINA RESULT:     -10.3      3.046     12.249
REMARK  Name = 24767976
REMARK  5 active torsions:
REMARK  status: ('A' for Active; 'I' for Inactive)
REMARK    1  A    between atoms: C_1  and  N_9
REMARK    2  A    between atoms: C_2  and  O_19
REMARK    3  A    between atoms: C_10  and  C_14
REMARK    4  A    between atoms: O_19  and  C_27
REMARK    5  A    between atoms: C_31  and  C_33
REMARK                            x       y       z     vdW  Elec       q    Type
REMARK                         _______ _______ _______ _____ _____    ______ ____
ROOT
ATOM      1  C   UNL     1      33.204 -12.144 -23.131  0.00  0.00    +0.050 C 
ATOM      2  C   UNL     1      34.194 -14.325 -23.445  0.00  0.00    +0.148 C 
ATOM      3  C   UNL     1      32.511 -12.619 -22.018  0.00  0.00    -0.008 C 
ATOM      4  C   UNL     1      34.046 -12.997 -23.844  0.00  0.00    +0.052 C 
ATOM      5  C   UNL     1      32.659 -13.947 -21.618  0.00  0.00    +0.000 C 
ATOM      6  C   UNL     1      33.501 -14.800 -22.332  0.00  0.00    +0.037 C 
ATOM      7  C   UNL     1      31.602 -11.727 -21.235  0.00  0.00    +0.032 C 
ENDROOT
BRANCH   1   9
ATOM      8  O   UNL     1      33.630 -10.905 -25.828  0.00  0.00    -0.268 OA
ATOM      9  N   UNL     1      33.070 -10.817 -23.546  0.00  0.00    -0.279 N 
ATOM     10  C   UNL     1      33.283 -10.289 -24.825  0.00  0.00    +0.265 C 
ATOM     11  H   UNL     1      32.792 -10.173 -22.854  0.00  0.00    +0.155 HD
BRANCH  10  14
ATOM     12  N   UNL     1      34.025  -7.870 -24.682  0.00  0.00    -0.206 N 
ATOM     13  N   UNL     1      33.594  -6.612 -24.872  0.00  0.00    -0.182 NA
ATOM     14  C   UNL     1      33.084  -8.821 -24.949  0.00  0.00    +0.124 C 
ATOM     15  C   UNL     1      31.960  -8.137 -25.341  0.00  0.00    +0.037 C 
ATOM     16  C   UNL     1      32.332  -6.781 -25.275  0.00  0.00    +0.078 C 
ATOM     17  C   UNL     1      35.380  -8.092 -24.232  0.00  0.00    +0.140 C 
ATOM     18  C   UNL     1      31.502  -5.607 -25.593  0.00  0.00    +0.054 C 
ENDBRANCH  10  14
ENDBRANCH   1   9
BRANCH   2  19
ATOM     19  O   UNL     1      35.034 -15.177 -24.157  0.00  0.00    -0.435 OA
BRANCH  19  27
ATOM     20  N   UNL     1      34.719 -20.140 -22.226  0.00  0.00    -0.373 NA
ATOM     21  N   UNL     1      35.421 -18.023 -22.176  0.00  0.00    -0.173 N 
ATOM     22  N   UNL     1      35.599 -16.722 -22.536  0.00  0.00    -0.138 NA
ATOM     23  C   UNL     1      35.505 -19.929 -21.121  0.00  0.00    +0.187 C 
ATOM     24  C   UNL     1      35.951 -18.631 -21.068  0.00  0.00    +0.193 C 
ATOM     25  C   UNL     1      34.680 -18.980 -22.850  0.00  0.00    +0.204 C 
ATOM     26  C   UNL     1      34.033 -18.575 -24.041  0.00  0.00    +0.054 C 
ATOM     27  C   UNL     1      34.983 -16.418 -23.631  0.00  0.00    +0.245 C 
ATOM     28  C   UNL     1      34.155 -17.312 -24.468  0.00  0.00    +0.063 C 
ATOM     29  O   UNL     1      37.161 -19.859 -18.609  0.00  0.00    -0.275 OA
ATOM     30  N   UNL     1      35.786 -20.918 -20.209  0.00  0.00    -0.261 N 
ATOM     31  C   UNL     1      36.571 -20.841 -19.040  0.00  0.00    +0.227 C 
ATOM     32  H   UNL     1      35.385 -21.797 -20.396  0.00  0.00    +0.157 HD
BRANCH  31  33
ATOM     33  C   UNL     1      36.665 -22.122 -18.269  0.00  0.00    +0.077 C 
ATOM     34  C   UNL     1      35.629 -22.421 -17.224  0.00  0.00    +0.010 C 
ATOM     35  C   UNL     1      37.030 -22.072 -16.815  0.00  0.00    +0.010 C 
ENDBRANCH  31  33
ENDBRANCH  19  27
ENDBRANCH   2  19
TORSDOF 5
ENDMDL
