MODEL 1
REMARK VINA RESULT:     -11.6      0.000      0.000
REMARK  Name = 17754438
REMARK  6 active torsions:
REMARK  status: ('A' for Active; 'I' for Inactive)
REMARK    1  A    between atoms: N_1  and  C_19
REMARK    2  A    between atoms: C_7  and  C_12
REMARK    3  A    between atoms: N_10  and  C_15
REMARK    4  A    between atoms: C_15  and  C_16
REMARK    5  A    between atoms: C_16  and  O_17
REMARK    6  A    between atoms: C_19  and  C_21
REMARK                            x       y       z     vdW  Elec       q    Type
REMARK                         _______ _______ _______ _____ _____    ______ ____
ROOT
ATOM      1  N   UNL     1      34.366 -20.538 -20.641  0.00  0.00    -0.163 N 
ATOM      2  N   UNL     1      35.354 -21.691 -18.727  0.00  0.00    -0.378 NA
ATOM      3  N   UNL     1      33.141 -20.455 -21.198  0.00  0.00    -0.033 NA
ATOM      4  N   UNL     1      32.617 -22.608 -18.490  0.00  0.00    -0.208 NA
ATOM      5  N   UNL     1      32.314 -21.214 -20.479  0.00  0.00    -0.086 NA
ATOM      6  C   UNL     1      34.353 -21.351 -19.552  0.00  0.00    +0.267 C 
ATOM      7  C   UNL     1      34.919 -22.529 -17.757  0.00  0.00    +0.140 C 
ATOM      8  C   UNL     1      33.039 -21.769 -19.466  0.00  0.00    +0.098 C 
ATOM      9  C   UNL     1      33.608 -22.968 -17.643  0.00  0.00    +0.195 C 
ENDROOT
BRANCH   7  12
ATOM     10  N   UNL     1      36.871 -24.019 -15.163  0.00  0.00    -0.208 N 
ATOM     11  N   UNL     1      37.850 -23.226 -15.634  0.00  0.00    -0.176 NA
ATOM     12  C   UNL     1      35.912 -22.959 -16.815  0.00  0.00    +0.064 C 
ATOM     13  C   UNL     1      35.691 -23.897 -15.835  0.00  0.00    +0.088 C 
ATOM     14  C   UNL     1      37.257 -22.581 -16.643  0.00  0.00    +0.121 C 
BRANCH  10  15
ATOM     15  C   UNL     1      37.134 -24.892 -14.045  0.00  0.00    +0.148 C 
BRANCH  15  16
ATOM     16  C   UNL     1      37.490 -26.308 -14.480  0.00  0.00    +0.161 C 
BRANCH  16  17
ATOM     17  O   UNL     1      38.388 -26.258 -15.581  0.00  0.00    -0.380 OA
ATOM     18  H   UNL     1      37.926 -25.913 -16.360  0.00  0.00    +0.211 HD
ENDBRANCH  16  17
ENDBRANCH  15  16
ENDBRANCH  10  15
ENDBRANCH   7  12
BRANCH   1  19
ATOM     19  C   UNL     1      35.500 -19.805 -21.215  0.00  0.00    +0.145 C 
BRANCH  19  21
ATOM     20  N   UNL     1      33.882 -16.455 -25.480  0.00  0.00    -0.244 NA
ATOM     21  C   UNL     1      35.076 -18.914 -22.333  0.00  0.00    -0.000 C 
ATOM     22  C   UNL     1      35.027 -17.535 -22.150  0.00  0.00    -0.001 C 
ATOM     23  C   UNL     1      34.627 -16.692 -23.201  0.00  0.00    +0.017 C 
ATOM     24  C   UNL     1      34.725 -19.456 -23.564  0.00  0.00    -0.001 C 
ATOM     25  C   UNL     1      34.270 -17.235 -24.452  0.00  0.00    +0.081 C 
ATOM     26  C   UNL     1      34.328 -18.617 -24.608  0.00  0.00    +0.019 C 
ATOM     27  C   UNL     1      34.570 -15.301 -23.043  0.00  0.00    +0.003 C 
ATOM     28  C   UNL     1      34.171 -14.495 -24.100  0.00  0.00    +0.021 C 
ATOM     29  C   UNL     1      33.840 -15.117 -25.287  0.00  0.00    +0.099 C 
ENDBRANCH  19  21
ENDBRANCH   1  19
TORSDOF 6
ENDMDL
MODEL 2
REMARK VINA RESULT:     -11.5      2.682      4.299
REMARK  Name = 17754438
REMARK  6 active torsions:
REMARK  status: ('A' for Active; 'I' for Inactive)
REMARK    1  A    between atoms: N_1  and  C_19
REMARK    2  A    between atoms: C_7  and  C_12
REMARK    3  A    between atoms: N_10  and  C_15
REMARK    4  A    between atoms: C_15  and  C_16
REMARK    5  A    between atoms: C_16  and  O_17
REMARK    6  A    between atoms: C_19  and  C_21
REMARK                            x       y       z     vdW  Elec       q    Type
REMARK                         _______ _______ _______ _____ _____    ______ ____
ROOT
ATOM      1  N   UNL     1      33.050 -23.524 -17.584  0.00  0.00    -0.163 N 
ATOM      2  N   UNL     1      34.617 -24.251 -15.856  0.00  0.00    -0.378 NA
ATOM      3  N   UNL     1      31.786 -23.057 -17.614  0.00  0.00    -0.033 NA
ATOM      4  N   UNL     1      32.344 -23.565 -14.197  0.00  0.00    -0.208 NA
ATOM      5  N   UNL     1      31.341 -23.005 -16.359  0.00  0.00    -0.086 NA
ATOM      6  C   UNL     1      33.446 -23.782 -16.310  0.00  0.00    +0.267 C 
ATOM      7  C   UNL     1      34.604 -24.366 -14.508  0.00  0.00    +0.140 C 
ATOM      8  C   UNL     1      32.344 -23.445 -15.546  0.00  0.00    +0.098 C 
ATOM      9  C   UNL     1      33.516 -24.037 -13.713  0.00  0.00    +0.195 C 
ENDROOT
BRANCH   7  12
ATOM     10  N   UNL     1      37.891 -25.487 -13.671  0.00  0.00    -0.208 N 
ATOM     11  N   UNL     1      37.359 -25.697 -12.455  0.00  0.00    -0.176 NA
ATOM     12  C   UNL     1      35.812 -24.861 -13.913  0.00  0.00    +0.064 C 
ATOM     13  C   UNL     1      37.006 -24.987 -14.581  0.00  0.00    +0.088 C 
ATOM     14  C   UNL     1      36.089 -25.313 -12.609  0.00  0.00    +0.121 C 
BRANCH  10  15
ATOM     15  C   UNL     1      39.283 -25.788 -13.906  0.00  0.00    +0.148 C 
BRANCH  15  16
ATOM     16  C   UNL     1      39.813 -25.141 -15.179  0.00  0.00    +0.161 C 
BRANCH  16  17
ATOM     17  O   UNL     1      40.192 -26.149 -16.107  0.00  0.00    -0.380 OA
ATOM     18  H   UNL     1      41.131 -26.049 -16.327  0.00  0.00    +0.211 HD
ENDBRANCH  16  17
ENDBRANCH  15  16
ENDBRANCH  10  15
ENDBRANCH   7  12
BRANCH   1  19
ATOM     19  C   UNL     1      33.815 -23.694 -18.825  0.00  0.00    +0.145 C 
BRANCH  19  21
ATOM     20  N   UNL     1      34.544 -18.769 -21.515  0.00  0.00    -0.244 NA
ATOM     21  C   UNL     1      34.017 -22.398 -19.534  0.00  0.00    -0.000 C 
ATOM     22  C   UNL     1      35.302 -21.903 -19.735  0.00  0.00    -0.001 C 
ATOM     23  C   UNL     1      35.497 -20.681 -20.402  0.00  0.00    +0.017 C 
ATOM     24  C   UNL     1      32.923 -21.675 -19.995  0.00  0.00    -0.001 C 
ATOM     25  C   UNL     1      34.392 -19.943 -20.873  0.00  0.00    +0.081 C 
ATOM     26  C   UNL     1      33.118 -20.461 -20.658  0.00  0.00    +0.019 C 
ATOM     27  C   UNL     1      36.780 -20.161 -20.618  0.00  0.00    +0.003 C 
ATOM     28  C   UNL     1      36.940 -18.951 -21.280  0.00  0.00    +0.021 C 
ATOM     29  C   UNL     1      35.799 -18.301 -21.704  0.00  0.00    +0.099 C 
ENDBRANCH  19  21
ENDBRANCH   1  19
TORSDOF 6
ENDMDL
MODEL 3
REMARK VINA RESULT:     -11.0      4.420      6.912
REMARK  Name = 17754438
REMARK  6 active torsions:
REMARK  status: ('A' for Active; 'I' for Inactive)
REMARK    1  A    between atoms: N_1  and  C_19
REMARK    2  A    between atoms: C_7  and  C_12
REMARK    3  A    between atoms: N_10  and  C_15
REMARK    4  A    between atoms: C_15  and  C_16
REMARK    5  A    between atoms: C_16  and  O_17
REMARK    6  A    between atoms: C_19  and  C_21
REMARK                            x       y       z     vdW  Elec       q    Type
REMARK                         _______ _______ _______ _____ _____    ______ ____
ROOT
ATOM      1  N   UNL     1      34.001 -23.404 -17.433  0.00  0.00    -0.163 N 
ATOM      2  N   UNL     1      31.602 -23.448 -16.971  0.00  0.00    -0.378 NA
ATOM      3  N   UNL     1      35.127 -23.267 -16.706  0.00  0.00    -0.033 NA
ATOM      4  N   UNL     1      32.610 -23.070 -14.282  0.00  0.00    -0.208 NA
ATOM      5  N   UNL     1      34.773 -23.122 -15.429  0.00  0.00    -0.086 NA
ATOM      6  C   UNL     1      32.898 -23.351 -16.641  0.00  0.00    +0.267 C 
ATOM      7  C   UNL     1      30.814 -23.344 -15.876  0.00  0.00    +0.140 C 
ATOM      8  C   UNL     1      33.411 -23.172 -15.370  0.00  0.00    +0.098 C 
ATOM      9  C   UNL     1      31.296 -23.164 -14.588  0.00  0.00    +0.195 C 
ENDROOT
BRANCH   7  12
ATOM     10  N   UNL     1      27.316 -22.858 -16.415  0.00  0.00    -0.208 N 
ATOM     11  N   UNL     1      27.287 -24.198 -16.518  0.00  0.00    -0.176 NA
ATOM     12  C   UNL     1      29.402 -23.434 -16.115  0.00  0.00    +0.064 C 
ATOM     13  C   UNL     1      28.559 -22.351 -16.174  0.00  0.00    +0.088 C 
ATOM     14  C   UNL     1      28.564 -24.544 -16.334  0.00  0.00    +0.121 C 
BRANCH  10  15
ATOM     15  C   UNL     1      26.096 -22.101 -16.563  0.00  0.00    +0.148 C 
BRANCH  15  16
ATOM     16  C   UNL     1      25.872 -21.629 -17.993  0.00  0.00    +0.161 C 
BRANCH  16  17
ATOM     17  O   UNL     1      25.799 -20.209 -18.023  0.00  0.00    -0.380 OA
ATOM     18  H   UNL     1      26.470 -19.838 -17.429  0.00  0.00    +0.211 HD
ENDBRANCH  16  17
ENDBRANCH  15  16
ENDBRANCH  10  15
ENDBRANCH   7  12
BRANCH   1  19
ATOM     19  C   UNL     1      34.067 -23.583 -18.888  0.00  0.00    +0.145 C 
BRANCH  19  21
ATOM     20  N   UNL     1      34.502 -18.634 -21.597  0.00  0.00    -0.244 NA
ATOM     21  C   UNL     1      34.192 -22.280 -19.602  0.00  0.00    -0.000 C 
ATOM     22  C   UNL     1      35.449 -21.747 -19.873  0.00  0.00    -0.001 C 
ATOM     23  C   UNL     1      35.571 -20.519 -20.545  0.00  0.00    +0.017 C 
ATOM     24  C   UNL     1      33.054 -21.589 -20.000  0.00  0.00    -0.001 C 
ATOM     25  C   UNL     1      34.421 -19.813 -20.952  0.00  0.00    +0.081 C 
ATOM     26  C   UNL     1      33.176 -20.368 -20.668  0.00  0.00    +0.019 C 
ATOM     27  C   UNL     1      36.825 -19.961 -20.830  0.00  0.00    +0.003 C 
ATOM     28  C   UNL     1      36.912 -18.746 -21.495  0.00  0.00    +0.021 C 
ATOM     29  C   UNL     1      35.731 -18.129 -21.854  0.00  0.00    +0.099 C 
ENDBRANCH  19  21
ENDBRANCH   1  19
TORSDOF 6
ENDMDL
MODEL 4
REMARK VINA RESULT:     -10.6      4.662     10.504
REMARK  Name = 17754438
REMARK  6 active torsions:
REMARK  status: ('A' for Active; 'I' for Inactive)
REMARK    1  A    between atoms: N_1  and  C_19
REMARK    2  A    between atoms: C_7  and  C_12
REMARK    3  A    between atoms: N_10  and  C_15
REMARK    4  A    between atoms: C_15  and  C_16
REMARK    5  A    between atoms: C_16  and  O_17
REMARK    6  A    between atoms: C_19  and  C_21
REMARK                            x       y       z     vdW  Elec       q    Type
REMARK                         _______ _______ _______ _____ _____    ______ ____
ROOT
ATOM      1  N   UNL     1      35.283 -17.473 -23.306  0.00  0.00    -0.163 N 
ATOM      2  N   UNL     1      34.333 -15.222 -23.303  0.00  0.00    -0.378 NA
ATOM      3  N   UNL     1      35.283 -18.526 -24.148  0.00  0.00    -0.033 NA
ATOM      4  N   UNL     1      33.369 -16.156 -25.870  0.00  0.00    -0.208 NA
ATOM      5  N   UNL     1      34.571 -18.188 -25.223  0.00  0.00    -0.086 NA
ATOM      6  C   UNL     1      34.572 -16.436 -23.821  0.00  0.00    +0.267 C 
ATOM      7  C   UNL     1      33.575 -14.478 -24.141  0.00  0.00    +0.140 C 
ATOM      8  C   UNL     1      34.128 -16.911 -25.040  0.00  0.00    +0.098 C 
ATOM      9  C   UNL     1      33.113 -14.925 -25.371  0.00  0.00    +0.195 C 
ENDROOT
BRANCH   7  12
ATOM     10  N   UNL     1      33.196 -10.976 -23.548  0.00  0.00    -0.208 N 
ATOM     11  N   UNL     1      32.419 -11.374 -22.526  0.00  0.00    -0.176 NA
ATOM     12  C   UNL     1      33.258 -13.155 -23.686  0.00  0.00    +0.064 C 
ATOM     13  C   UNL     1      33.723 -12.004 -24.274  0.00  0.00    +0.088 C 
ATOM     14  C   UNL     1      32.461 -12.706 -22.615  0.00  0.00    +0.121 C 
BRANCH  10  15
ATOM     15  C   UNL     1      33.399  -9.567 -23.787  0.00  0.00    +0.148 C 
BRANCH  15  16
ATOM     16  C   UNL     1      34.443  -9.301 -24.863  0.00  0.00    +0.161 C 
BRANCH  16  17
ATOM     17  O   UNL     1      35.727  -9.183 -24.266  0.00  0.00    -0.380 OA
ATOM     18  H   UNL     1      35.723  -9.620 -23.400  0.00  0.00    +0.211 HD
ENDBRANCH  16  17
ENDBRANCH  15  16
ENDBRANCH  10  15
ENDBRANCH   7  12
BRANCH   1  19
ATOM     19  C   UNL     1      35.991 -17.542 -22.023  0.00  0.00    +0.145 C 
BRANCH  19  21
ATOM     20  N   UNL     1      35.048 -22.424 -19.322  0.00  0.00    -0.244 NA
ATOM     21  C   UNL     1      35.733 -18.828 -21.314  0.00  0.00    -0.000 C 
ATOM     22  C   UNL     1      34.427 -19.265 -21.111  0.00  0.00    -0.001 C 
ATOM     23  C   UNL     1      34.179 -20.476 -20.442  0.00  0.00    +0.017 C 
ATOM     24  C   UNL     1      36.794 -19.595 -20.848  0.00  0.00    -0.001 C 
ATOM     25  C   UNL     1      35.251 -21.260 -19.968  0.00  0.00    +0.081 C 
ATOM     26  C   UNL     1      36.547 -20.798 -20.183  0.00  0.00    +0.019 C 
ATOM     27  C   UNL     1      32.875 -20.940 -20.226  0.00  0.00    +0.003 C 
ATOM     28  C   UNL     1      32.662 -22.140 -19.561  0.00  0.00    +0.021 C 
ATOM     29  C   UNL     1      33.774 -22.837 -19.134  0.00  0.00    +0.099 C 
ENDBRANCH  19  21
ENDBRANCH   1  19
TORSDOF 6
ENDMDL
MODEL 5
REMARK VINA RESULT:     -10.3      2.180      2.962
REMARK  Name = 17754438
REMARK  6 active torsions:
REMARK  status: ('A' for Active; 'I' for Inactive)
REMARK    1  A    between atoms: N_1  and  C_19
REMARK    2  A    between atoms: C_7  and  C_12
REMARK    3  A    between atoms: N_10  and  C_15
REMARK    4  A    between atoms: C_15  and  C_16
REMARK    5  A    between atoms: C_16  and  O_17
REMARK    6  A    between atoms: C_19  and  C_21
REMARK                            x       y       z     vdW  Elec       q    Type
REMARK                         _______ _______ _______ _____ _____    ______ ____
ROOT
ATOM      1  N   UNL     1      34.455 -21.954 -19.305  0.00  0.00    -0.163 N 
ATOM      2  N   UNL     1      34.963 -23.237 -17.288  0.00  0.00    -0.378 NA
ATOM      3  N   UNL     1      33.339 -21.501 -19.912  0.00  0.00    -0.033 NA
ATOM      4  N   UNL     1      32.073 -23.157 -17.101  0.00  0.00    -0.208 NA
ATOM      5  N   UNL     1      32.293 -21.883 -19.180  0.00  0.00    -0.086 NA
ATOM      6  C   UNL     1      34.150 -22.636 -18.170  0.00  0.00    +0.267 C 
ATOM      7  C   UNL     1      34.255 -23.809 -16.287  0.00  0.00    +0.140 C 
ATOM      8  C   UNL     1      32.770 -22.580 -18.109  0.00  0.00    +0.098 C 
ATOM      9  C   UNL     1      32.871 -23.771 -16.197  0.00  0.00    +0.195 C 
ENDROOT
BRANCH   7  12
ATOM     10  N   UNL     1      35.922 -24.986 -13.355  0.00  0.00    -0.208 N 
ATOM     11  N   UNL     1      36.406 -25.932 -14.179  0.00  0.00    -0.176 NA
ATOM     12  C   UNL     1      35.028 -24.483 -15.284  0.00  0.00    +0.064 C 
ATOM     13  C   UNL     1      35.092 -24.094 -13.968  0.00  0.00    +0.088 C 
ATOM     14  C   UNL     1      35.856 -25.619 -15.356  0.00  0.00    +0.121 C 
BRANCH  10  15
ATOM     15  C   UNL     1      36.296 -24.990 -11.961  0.00  0.00    +0.148 C 
BRANCH  15  16
ATOM     16  C   UNL     1      35.363 -24.146 -11.104  0.00  0.00    +0.161 C 
BRANCH  16  17
ATOM     17  O   UNL     1      35.245 -24.725  -9.811  0.00  0.00    -0.380 OA
ATOM     18  H   UNL     1      35.711 -25.575  -9.794  0.00  0.00    +0.211 HD
ENDBRANCH  16  17
ENDBRANCH  15  16
ENDBRANCH  10  15
ENDBRANCH   7  12
BRANCH   1  19
ATOM     19  C   UNL     1      35.778 -21.688 -19.878  0.00  0.00    +0.145 C 
BRANCH  19  21
ATOM     20  N   UNL     1      35.736 -17.235 -23.371  0.00  0.00    -0.244 NA
ATOM     21  C   UNL     1      35.758 -20.518 -20.802  0.00  0.00    -0.000 C 
ATOM     22  C   UNL     1      34.823 -20.455 -21.831  0.00  0.00    -0.001 C 
ATOM     23  C   UNL     1      34.802 -19.354 -22.706  0.00  0.00    +0.017 C 
ATOM     24  C   UNL     1      36.675 -19.486 -20.643  0.00  0.00    -0.001 C 
ATOM     25  C   UNL     1      35.729 -18.303 -22.550  0.00  0.00    +0.081 C 
ATOM     26  C   UNL     1      36.653 -18.392 -21.513  0.00  0.00    +0.019 C 
ATOM     27  C   UNL     1      33.871 -19.265 -23.749  0.00  0.00    +0.003 C 
ATOM     28  C   UNL     1      33.876 -18.166 -24.596  0.00  0.00    +0.021 C 
ATOM     29  C   UNL     1      34.821 -17.187 -24.365  0.00  0.00    +0.099 C 
ENDBRANCH  19  21
ENDBRANCH   1  19
TORSDOF 6
ENDMDL
MODEL 6
REMARK VINA RESULT:     -10.3      3.665      7.179
REMARK  Name = 17754438
REMARK  6 active torsions:
REMARK  status: ('A' for Active; 'I' for Inactive)
REMARK    1  A    between atoms: N_1  and  C_19
REMARK    2  A    between atoms: C_7  and  C_12
REMARK    3  A    between atoms: N_10  and  C_15
REMARK    4  A    between atoms: C_15  and  C_16
REMARK    5  A    between atoms: C_16  and  O_17
REMARK    6  A    between atoms: C_19  and  C_21
REMARK                            x       y       z     vdW  Elec       q    Type
REMARK                         _______ _______ _______ _____ _____    ______ ____
ROOT
ATOM      1  N   UNL     1      33.839 -14.691 -23.912  0.00  0.00    -0.163 N 
ATOM      2  N   UNL     1      34.680 -16.689 -22.785  0.00  0.00    -0.378 NA
ATOM      3  N   UNL     1      33.375 -14.393 -25.142  0.00  0.00    -0.033 NA
ATOM      4  N   UNL     1      34.119 -17.803 -25.400  0.00  0.00    -0.208 NA
ATOM      5  N   UNL     1      33.413 -15.507 -25.873  0.00  0.00    -0.086 NA
ATOM      6  C   UNL     1      34.184 -16.002 -23.825  0.00  0.00    +0.267 C 
ATOM      7  C   UNL     1      34.889 -17.985 -23.115  0.00  0.00    +0.140 C 
ATOM      8  C   UNL     1      33.906 -16.503 -25.082  0.00  0.00    +0.098 C 
ATOM      9  C   UNL     1      34.620 -18.519 -24.367  0.00  0.00    +0.195 C 
ENDROOT
BRANCH   7  12
ATOM     10  N   UNL     1      35.611 -20.423 -20.606  0.00  0.00    -0.208 N 
ATOM     11  N   UNL     1      36.746 -19.719 -20.446  0.00  0.00    -0.176 NA
ATOM     12  C   UNL     1      35.420 -18.815 -22.073  0.00  0.00    +0.064 C 
ATOM     13  C   UNL     1      34.783 -19.923 -21.568  0.00  0.00    +0.088 C 
ATOM     14  C   UNL     1      36.623 -18.738 -21.345  0.00  0.00    +0.121 C 
BRANCH  10  15
ATOM     15  C   UNL     1      35.373 -21.591 -19.793  0.00  0.00    +0.148 C 
BRANCH  15  16
ATOM     16  C   UNL     1      33.890 -21.897 -19.631  0.00  0.00    +0.161 C 
BRANCH  16  17
ATOM     17  O   UNL     1      33.701 -23.300 -19.500  0.00  0.00    -0.380 OA
ATOM     18  H   UNL     1      33.640 -23.702 -20.381  0.00  0.00    +0.211 HD
ENDBRANCH  16  17
ENDBRANCH  15  16
ENDBRANCH  10  15
ENDBRANCH   7  12
BRANCH   1  19
ATOM     19  C   UNL     1      33.919 -13.659 -22.872  0.00  0.00    +0.145 C 
BRANCH  19  21
ATOM     20  N   UNL     1      32.697  -8.532 -24.933  0.00  0.00    -0.244 NA
ATOM     21  C   UNL     1      33.591 -12.306 -23.407  0.00  0.00    -0.000 C 
ATOM     22  C   UNL     1      32.637 -11.515 -22.773  0.00  0.00    -0.001 C 
ATOM     23  C   UNL     1      32.324 -10.240 -23.275  0.00  0.00    +0.017 C 
ATOM     24  C   UNL     1      34.234 -11.829 -24.542  0.00  0.00    -0.001 C 
ATOM     25  C   UNL     1      32.974  -9.749 -24.426  0.00  0.00    +0.081 C 
ATOM     26  C   UNL     1      33.923 -10.561 -25.040  0.00  0.00    +0.019 C 
ATOM     27  C   UNL     1      31.369  -9.423 -22.656  0.00  0.00    +0.003 C 
ATOM     28  C   UNL     1      31.082  -8.168 -23.176  0.00  0.00    +0.021 C 
ATOM     29  C   UNL     1      31.768  -7.774 -24.306  0.00  0.00    +0.099 C 
ENDBRANCH  19  21
ENDBRANCH   1  19
TORSDOF 6
ENDMDL
MODEL 7
REMARK VINA RESULT:     -10.3      6.758     12.411
REMARK  Name = 17754438
REMARK  6 active torsions:
REMARK  status: ('A' for Active; 'I' for Inactive)
REMARK    1  A    between atoms: N_1  and  C_19
REMARK    2  A    between atoms: C_7  and  C_12
REMARK    3  A    between atoms: N_10  and  C_15
REMARK    4  A    between atoms: C_15  and  C_16
REMARK    5  A    between atoms: C_16  and  O_17
REMARK    6  A    between atoms: C_19  and  C_21
REMARK                            x       y       z     vdW  Elec       q    Type
REMARK                         _______ _______ _______ _____ _____    ______ ____
ROOT
ATOM      1  N   UNL     1      33.721 -12.504 -26.517  0.00  0.00    -0.163 N 
ATOM      2  N   UNL     1      33.543 -10.640 -24.947  0.00  0.00    -0.378 NA
ATOM      3  N   UNL     1      34.417 -12.762 -27.642  0.00  0.00    -0.033 NA
ATOM      4  N   UNL     1      35.485  -9.539 -26.794  0.00  0.00    -0.208 NA
ATOM      5  N   UNL     1      35.173 -11.697 -27.907  0.00  0.00    -0.086 NA
ATOM      6  C   UNL     1      34.014 -11.268 -26.034  0.00  0.00    +0.267 C 
ATOM      7  C   UNL     1      34.094  -9.411 -24.820  0.00  0.00    +0.140 C 
ATOM      8  C   UNL     1      34.940 -10.772 -26.933  0.00  0.00    +0.098 C 
ATOM      9  C   UNL     1      35.025  -8.883 -25.704  0.00  0.00    +0.195 C 
ENDROOT
BRANCH   7  12
ATOM     10  N   UNL     1      32.564  -8.053 -21.892  0.00  0.00    -0.208 N 
ATOM     11  N   UNL     1      33.409  -7.028 -22.094  0.00  0.00    -0.176 NA
ATOM     12  C   UNL     1      33.659  -8.647 -23.686  0.00  0.00    +0.064 C 
ATOM     13  C   UNL     1      32.673  -9.049 -22.817  0.00  0.00    +0.088 C 
ATOM     14  C   UNL     1      34.075  -7.396 -23.192  0.00  0.00    +0.121 C 
BRANCH  10  15
ATOM     15  C   UNL     1      31.657  -8.023 -20.769  0.00  0.00    +0.148 C 
BRANCH  15  16
ATOM     16  C   UNL     1      31.534  -9.377 -20.082  0.00  0.00    +0.161 C 
BRANCH  16  17
ATOM     17  O   UNL     1      32.618  -9.557 -19.180  0.00  0.00    -0.380 OA
ATOM     18  H   UNL     1      32.540  -8.923 -18.450  0.00  0.00    +0.211 HD
ENDBRANCH  16  17
ENDBRANCH  15  16
ENDBRANCH  10  15
ENDBRANCH   7  12
BRANCH   1  19
ATOM     19  C   UNL     1      32.793 -13.498 -25.967  0.00  0.00    +0.145 C 
BRANCH  19  21
ATOM     20  N   UNL     1      35.262 -16.720 -22.024  0.00  0.00    -0.244 NA
ATOM     21  C   UNL     1      33.445 -14.355 -24.935  0.00  0.00    -0.000 C 
ATOM     22  C   UNL     1      33.730 -15.689 -25.211  0.00  0.00    -0.001 C 
ATOM     23  C   UNL     1      34.343 -16.500 -24.240  0.00  0.00    +0.017 C 
ATOM     24  C   UNL     1      33.768 -13.827 -23.691  0.00  0.00    -0.001 C 
ATOM     25  C   UNL     1      34.675 -15.970 -22.976  0.00  0.00    +0.081 C 
ATOM     26  C   UNL     1      34.378 -14.633 -22.727  0.00  0.00    +0.019 C 
ATOM     27  C   UNL     1      34.642 -17.845 -24.492  0.00  0.00    +0.003 C 
ATOM     28  C   UNL     1      35.247 -18.621 -23.513  0.00  0.00    +0.021 C 
ATOM     29  C   UNL     1      35.534 -18.015 -22.307  0.00  0.00    +0.099 C 
ENDBRANCH  19  21
ENDBRANCH   1  19
TORSDOF 6
ENDMDL
MODEL 8
REMARK VINA RESULT:     -10.3      1.553      2.467
REMARK  Name = 17754438
REMARK  6 active torsions:
REMARK  status: ('A' for Active; 'I' for Inactive)
REMARK    1  A    between atoms: N_1  and  C_19
REMARK    2  A    between atoms: C_7  and  C_12
REMARK    3  A    between atoms: N_10  and  C_15
REMARK    4  A    between atoms: C_15  and  C_16
REMARK    5  A    between atoms: C_16  and  O_17
REMARK    6  A    between atoms: C_19  and  C_21
REMARK                            x       y       z     vdW  Elec       q    Type
REMARK                         _______ _______ _______ _____ _____    ______ ____
ROOT
ATOM      1  N   UNL     1      34.566 -21.902 -19.413  0.00  0.00    -0.163 N 
ATOM      2  N   UNL     1      35.214 -23.030 -17.344  0.00  0.00    -0.378 NA
ATOM      3  N   UNL     1      33.407 -21.579 -20.021  0.00  0.00    -0.033 NA
ATOM      4  N   UNL     1      32.331 -23.188 -17.105  0.00  0.00    -0.208 NA
ATOM      5  N   UNL     1      32.409 -22.011 -19.251  0.00  0.00    -0.086 NA
ATOM      6  C   UNL     1      34.339 -22.548 -18.239  0.00  0.00    +0.267 C 
ATOM      7  C   UNL     1      34.573 -23.607 -16.302  0.00  0.00    +0.140 C 
ATOM      8  C   UNL     1      32.960 -22.607 -18.155  0.00  0.00    +0.098 C 
ATOM      9  C   UNL     1      33.192 -23.683 -16.187  0.00  0.00    +0.195 C 
ENDROOT
BRANCH   7  12
ATOM     10  N   UNL     1      37.185 -24.919 -14.249  0.00  0.00    -0.208 N 
ATOM     11  N   UNL     1      36.213 -25.033 -13.326  0.00  0.00    -0.176 NA
ATOM     12  C   UNL     1      35.416 -24.159 -15.281  0.00  0.00    +0.064 C 
ATOM     13  C   UNL     1      36.759 -24.401 -15.437  0.00  0.00    +0.088 C 
ATOM     14  C   UNL     1      35.135 -24.567 -13.963  0.00  0.00    +0.121 C 
BRANCH  10  15
ATOM     15  C   UNL     1      38.530 -25.329 -13.926  0.00  0.00    +0.148 C 
BRANCH  15  16
ATOM     16  C   UNL     1      39.476 -25.219 -15.115  0.00  0.00    +0.161 C 
BRANCH  16  17
ATOM     17  O   UNL     1      40.272 -26.393 -15.205  0.00  0.00    -0.380 OA
ATOM     18  H   UNL     1      40.775 -26.506 -14.383  0.00  0.00    +0.211 HD
ENDBRANCH  16  17
ENDBRANCH  15  16
ENDBRANCH  10  15
ENDBRANCH   7  12
BRANCH   1  19
ATOM     19  C   UNL     1      35.853 -21.554 -20.025  0.00  0.00    +0.145 C 
BRANCH  19  21
ATOM     20  N   UNL     1      35.443 -17.065 -23.445  0.00  0.00    -0.244 NA
ATOM     21  C   UNL     1      35.737 -20.376 -20.931  0.00  0.00    -0.000 C 
ATOM     22  C   UNL     1      34.848 -20.400 -22.001  0.00  0.00    -0.001 C 
ATOM     23  C   UNL     1      34.736 -19.291 -22.858  0.00  0.00    +0.017 C 
ATOM     24  C   UNL     1      36.518 -19.247 -20.713  0.00  0.00    -0.001 C 
ATOM     25  C   UNL     1      35.525 -18.143 -22.643  0.00  0.00    +0.081 C 
ATOM     26  C   UNL     1      36.407 -18.146 -21.565  0.00  0.00    +0.019 C 
ATOM     27  C   UNL     1      33.848 -19.290 -23.942  0.00  0.00    +0.003 C 
ATOM     28  C   UNL     1      33.762 -18.180 -24.771  0.00  0.00    +0.021 C 
ATOM     29  C   UNL     1      34.574 -17.103 -24.481  0.00  0.00    +0.099 C 
ENDBRANCH  19  21
ENDBRANCH   1  19
TORSDOF 6
ENDMDL
MODEL 9
REMARK VINA RESULT:     -10.1      3.379      9.900
REMARK  Name = 17754438
REMARK  6 active torsions:
REMARK  status: ('A' for Active; 'I' for Inactive)
REMARK    1  A    between atoms: N_1  and  C_19
REMARK    2  A    between atoms: C_7  and  C_12
REMARK    3  A    between atoms: N_10  and  C_15
REMARK    4  A    between atoms: C_15  and  C_16
REMARK    5  A    between atoms: C_16  and  O_17
REMARK    6  A    between atoms: C_19  and  C_21
REMARK                            x       y       z     vdW  Elec       q    Type
REMARK                         _______ _______ _______ _____ _____    ______ ____
ROOT
ATOM      1  N   UNL     1      35.492 -22.395 -17.829  0.00  0.00    -0.163 N 
ATOM      2  N   UNL     1      35.315 -20.855 -19.717  0.00  0.00    -0.378 NA
ATOM      3  N   UNL     1      34.690 -23.305 -17.240  0.00  0.00    -0.033 NA
ATOM      4  N   UNL     1      32.688 -22.070 -19.832  0.00  0.00    -0.208 NA
ATOM      5  N   UNL     1      33.532 -23.315 -17.900  0.00  0.00    -0.086 NA
ATOM      6  C   UNL     1      34.867 -21.801 -18.879  0.00  0.00    +0.267 C 
ATOM      7  C   UNL     1      34.374 -20.534 -20.635  0.00  0.00    +0.140 C 
ATOM      8  C   UNL     1      33.622 -22.401 -18.907  0.00  0.00    +0.098 C 
ATOM      9  C   UNL     1      33.116 -21.116 -20.690  0.00  0.00    +0.195 C 
ENDROOT
BRANCH   7  12
ATOM     10  N   UNL     1      34.788 -18.310 -23.399  0.00  0.00    -0.208 N 
ATOM     11  N   UNL     1      35.767 -17.778 -22.646  0.00  0.00    -0.176 NA
ATOM     12  C   UNL     1      34.749 -19.527 -21.586  0.00  0.00    +0.064 C 
ATOM     13  C   UNL     1      34.147 -19.360 -22.809  0.00  0.00    +0.088 C 
ATOM     14  C   UNL     1      35.738 -18.527 -21.540  0.00  0.00    +0.121 C 
BRANCH  10  15
ATOM     15  C   UNL     1      34.505 -17.755 -24.701  0.00  0.00    +0.148 C 
BRANCH  15  16
ATOM     16  C   UNL     1      34.444 -16.233 -24.686  0.00  0.00    +0.161 C 
BRANCH  16  17
ATOM     17  O   UNL     1      33.712 -15.772 -25.815  0.00  0.00    -0.380 OA
ATOM     18  H   UNL     1      33.038 -16.427 -26.052  0.00  0.00    +0.211 HD
ENDBRANCH  16  17
ENDBRANCH  15  16
ENDBRANCH  10  15
ENDBRANCH   7  12
BRANCH   1  19
ATOM     19  C   UNL     1      36.847 -22.154 -17.322  0.00  0.00    +0.145 C 
BRANCH  19  21
ATOM     20  N   UNL     1      37.962 -25.196 -12.683  0.00  0.00    -0.244 NA
ATOM     21  C   UNL     1      37.132 -22.953 -16.096  0.00  0.00    -0.000 C 
ATOM     22  C   UNL     1      36.309 -22.839 -14.979  0.00  0.00    -0.001 C 
ATOM     23  C   UNL     1      36.575 -23.589 -13.821  0.00  0.00    +0.017 C 
ATOM     24  C   UNL     1      38.223 -23.813 -16.059  0.00  0.00    -0.001 C 
ATOM     25  C   UNL     1      37.679 -24.464 -13.777  0.00  0.00    +0.081 C 
ATOM     26  C   UNL     1      38.487 -24.558 -14.908  0.00  0.00    +0.019 C 
ATOM     27  C   UNL     1      35.761 -23.494 -12.684  0.00  0.00    +0.003 C 
ATOM     28  C   UNL     1      36.050 -24.248 -11.554  0.00  0.00    +0.021 C 
ATOM     29  C   UNL     1      37.153 -25.076 -11.606  0.00  0.00    +0.099 C 
ENDBRANCH  19  21
ENDBRANCH   1  19
TORSDOF 6
ENDMDL
