MODEL 1
REMARK VINA RESULT:     -11.5      0.000      0.000
REMARK  Name = 448841
REMARK  3 active torsions:
REMARK  status: ('A' for Active; 'I' for Inactive)
REMARK    1  A    between atoms: C_1  and  C_17
REMARK    2  A    between atoms: C_9  and  C_13
REMARK    3  A    between atoms: C_18  and  C_20
REMARK                            x       y       z     vdW  Elec       q    Type
REMARK                         _______ _______ _______ _____ _____    ______ ____
ROOT
ATOM      1  C   UNL     1      35.427 -21.122 -20.021  0.00  0.00    -0.022 C 
ATOM      2  C   UNL     1      36.371 -21.351 -19.020  0.00  0.00    -0.004 C 
ATOM      3  C   UNL     1      34.139 -21.635 -19.895  0.00  0.00    -0.004 C 
ATOM      4  C   UNL     1      36.038 -22.098 -17.878  0.00  0.00    -0.000 C 
ATOM      5  C   UNL     1      33.791 -22.380 -18.767  0.00  0.00    -0.000 C 
ATOM      6  C   UNL     1      34.729 -22.620 -17.749  0.00  0.00    +0.000 C 
ATOM      7  C   UNL     1      36.976 -22.339 -16.861  0.00  0.00    +0.000 C 
ATOM      8  C   UNL     1      34.396 -23.367 -16.609  0.00  0.00    +0.003 C 
ATOM      9  C   UNL     1      35.340 -23.597 -15.607  0.00  0.00    +0.031 C 
ATOM     10  C   UNL     1      36.627 -23.083 -15.733  0.00  0.00    +0.003 C 
ENDROOT
BRANCH   9  13
ATOM     11  N   UNL     1      34.425 -23.765 -13.304  0.00  0.00    -0.343 N 
ATOM     12  N   UNL     1      35.179 -25.678 -14.416  0.00  0.00    -0.285 NA
ATOM     13  C   UNL     1      34.979 -24.372 -14.431  0.00  0.00    +0.117 C 
ATOM     14  H   UNL     1      34.189 -24.310 -12.519  0.00  0.00    +0.144 HD
ATOM     15  H   UNL     1      34.271 -22.793 -13.294  0.00  0.00    +0.144 HD
ATOM     16  H   UNL     1      34.935 -26.204 -13.620  0.00  0.00    +0.188 HD
ENDBRANCH   9  13
BRANCH   1  17
ATOM     17  C   UNL     1      35.797 -20.328 -21.225  0.00  0.00    +0.027 C 
ATOM     18  C   UNL     1      35.415 -18.882 -21.294  0.00  0.00    +0.027 C 
ATOM     19  C   UNL     1      36.853 -19.272 -21.108  0.00  0.00    +0.009 C 
BRANCH  18  20
ATOM     20  C   UNL     1      34.980 -18.307 -22.592  0.00  0.00    -0.022 C 
ATOM     21  C   UNL     1      35.183 -16.951 -22.864  0.00  0.00    -0.004 C 
ATOM     22  C   UNL     1      34.362 -19.117 -23.549  0.00  0.00    -0.004 C 
ATOM     23  C   UNL     1      34.771 -16.410 -24.082  0.00  0.00    -0.000 C 
ATOM     24  C   UNL     1      33.950 -18.577 -24.767  0.00  0.00    -0.000 C 
ATOM     25  C   UNL     1      34.155 -17.223 -25.033  0.00  0.00    -0.000 C 
ENDBRANCH  18  20
ENDBRANCH   1  17
TORSDOF 3
ENDMDL
MODEL 2
REMARK VINA RESULT:     -11.3      6.085     10.309
REMARK  Name = 448841
REMARK  3 active torsions:
REMARK  status: ('A' for Active; 'I' for Inactive)
REMARK    1  A    between atoms: C_1  and  C_17
REMARK    2  A    between atoms: C_9  and  C_13
REMARK    3  A    between atoms: C_18  and  C_20
REMARK                            x       y       z     vdW  Elec       q    Type
REMARK                         _______ _______ _______ _____ _____    ______ ____
ROOT
ATOM      1  C   UNL     1      34.741 -16.833 -22.856  0.00  0.00    -0.022 C 
ATOM      2  C   UNL     1      34.624 -15.474 -22.565  0.00  0.00    -0.004 C 
ATOM      3  C   UNL     1      34.521 -17.290 -24.153  0.00  0.00    -0.004 C 
ATOM      4  C   UNL     1      34.284 -14.552 -23.569  0.00  0.00    -0.000 C 
ATOM      5  C   UNL     1      34.183 -16.387 -25.163  0.00  0.00    -0.000 C 
ATOM      6  C   UNL     1      34.060 -15.016 -24.888  0.00  0.00    +0.000 C 
ATOM      7  C   UNL     1      34.160 -13.181 -23.294  0.00  0.00    +0.000 C 
ATOM      8  C   UNL     1      33.721 -14.095 -25.891  0.00  0.00    +0.003 C 
ATOM      9  C   UNL     1      33.603 -12.735 -25.600  0.00  0.00    +0.031 C 
ATOM     10  C   UNL     1      33.823 -12.280 -24.304  0.00  0.00    +0.003 C 
ENDROOT
BRANCH   9  13
ATOM     11  N   UNL     1      33.447 -10.423 -26.493  0.00  0.00    -0.343 N 
ATOM     12  N   UNL     1      32.729 -12.235 -27.783  0.00  0.00    -0.285 NA
ATOM     13  C   UNL     1      33.251 -11.795 -26.651  0.00  0.00    +0.117 C 
ATOM     14  H   UNL     1      33.201  -9.804 -27.217  0.00  0.00    +0.144 HD
ATOM     15  H   UNL     1      33.831 -10.075 -25.656  0.00  0.00    +0.144 HD
ATOM     16  H   UNL     1      32.491 -11.599 -28.495  0.00  0.00    +0.188 HD
ENDBRANCH   9  13
BRANCH   1  17
ATOM     17  C   UNL     1      35.102 -17.797 -21.779  0.00  0.00    +0.027 C 
ATOM     18  C   UNL     1      35.148 -19.260 -22.092  0.00  0.00    +0.027 C 
ATOM     19  C   UNL     1      36.420 -18.504 -21.843  0.00  0.00    +0.009 C 
BRANCH  18  20
ATOM     20  C   UNL     1      34.671 -20.234 -21.079  0.00  0.00    -0.022 C 
ATOM     21  C   UNL     1      35.585 -21.039 -20.392  0.00  0.00    -0.004 C 
ATOM     22  C   UNL     1      33.305 -20.355 -20.807  0.00  0.00    -0.004 C 
ATOM     23  C   UNL     1      35.137 -21.957 -19.442  0.00  0.00    -0.000 C 
ATOM     24  C   UNL     1      32.857 -21.273 -19.857  0.00  0.00    -0.000 C 
ATOM     25  C   UNL     1      33.773 -22.074 -19.175  0.00  0.00    -0.000 C 
ENDBRANCH  18  20
ENDBRANCH   1  17
TORSDOF 3
ENDMDL
MODEL 3
REMARK VINA RESULT:     -11.2      1.272      2.661
REMARK  Name = 448841
REMARK  3 active torsions:
REMARK  status: ('A' for Active; 'I' for Inactive)
REMARK    1  A    between atoms: C_1  and  C_17
REMARK    2  A    between atoms: C_9  and  C_13
REMARK    3  A    between atoms: C_18  and  C_20
REMARK                            x       y       z     vdW  Elec       q    Type
REMARK                         _______ _______ _______ _____ _____    ______ ____
ROOT
ATOM      1  C   UNL     1      34.454 -20.242 -21.191  0.00  0.00    -0.022 C 
ATOM      2  C   UNL     1      33.395 -20.841 -20.510  0.00  0.00    -0.004 C 
ATOM      3  C   UNL     1      35.763 -20.439 -20.758  0.00  0.00    -0.004 C 
ATOM      4  C   UNL     1      33.631 -21.648 -19.385  0.00  0.00    -0.000 C 
ATOM      5  C   UNL     1      36.015 -21.237 -19.641  0.00  0.00    -0.000 C 
ATOM      6  C   UNL     1      34.961 -21.849 -18.943  0.00  0.00    +0.000 C 
ATOM      7  C   UNL     1      32.577 -22.259 -18.687  0.00  0.00    +0.000 C 
ATOM      8  C   UNL     1      35.198 -22.654 -17.819  0.00  0.00    +0.003 C 
ATOM      9  C   UNL     1      34.138 -23.255 -17.137  0.00  0.00    +0.031 C 
ATOM     10  C   UNL     1      32.830 -23.057 -17.571  0.00  0.00    +0.003 C 
ENDROOT
BRANCH   9  13
ATOM     11  N   UNL     1      33.515 -24.127 -14.897  0.00  0.00    -0.343 N 
ATOM     12  N   UNL     1      35.497 -24.821 -15.923  0.00  0.00    -0.285 NA
ATOM     13  C   UNL     1      34.400 -24.087 -15.974  0.00  0.00    +0.117 C 
ATOM     14  H   UNL     1      33.712 -24.697 -14.119  0.00  0.00    +0.144 HD
ATOM     15  H   UNL     1      32.694 -23.584 -14.915  0.00  0.00    +0.144 HD
ATOM     16  H   UNL     1      35.675 -25.386 -15.136  0.00  0.00    +0.188 HD
ENDBRANCH   9  13
BRANCH   1  17
ATOM     17  C   UNL     1      34.186 -19.389 -22.383  0.00  0.00    +0.027 C 
ATOM     18  C   UNL     1      35.217 -18.395 -22.819  0.00  0.00    +0.027 C 
ATOM     19  C   UNL     1      34.964 -19.626 -23.641  0.00  0.00    +0.009 C 
BRANCH  18  20
ATOM     20  C   UNL     1      34.779 -17.074 -23.334  0.00  0.00    -0.022 C 
ATOM     21  C   UNL     1      34.411 -16.929 -24.675  0.00  0.00    -0.004 C 
ATOM     22  C   UNL     1      34.734 -15.966 -22.483  0.00  0.00    -0.004 C 
ATOM     23  C   UNL     1      34.002 -15.686 -25.161  0.00  0.00    -0.000 C 
ATOM     24  C   UNL     1      34.326 -14.724 -22.968  0.00  0.00    -0.000 C 
ATOM     25  C   UNL     1      33.960 -14.584 -24.307  0.00  0.00    -0.000 C 
ENDBRANCH  18  20
ENDBRANCH   1  17
TORSDOF 3
ENDMDL
MODEL 4
REMARK VINA RESULT:     -11.1      0.996      2.183
REMARK  Name = 448841
REMARK  3 active torsions:
REMARK  status: ('A' for Active; 'I' for Inactive)
REMARK    1  A    between atoms: C_1  and  C_17
REMARK    2  A    between atoms: C_9  and  C_13
REMARK    3  A    between atoms: C_18  and  C_20
REMARK                            x       y       z     vdW  Elec       q    Type
REMARK                         _______ _______ _______ _____ _____    ______ ____
ROOT
ATOM      1  C   UNL     1      35.604 -21.161 -19.860  0.00  0.00    -0.022 C 
ATOM      2  C   UNL     1      34.316 -21.642 -19.627  0.00  0.00    -0.004 C 
ATOM      3  C   UNL     1      36.606 -21.364 -18.915  0.00  0.00    -0.004 C 
ATOM      4  C   UNL     1      34.012 -22.334 -18.443  0.00  0.00    -0.000 C 
ATOM      5  C   UNL     1      36.321 -22.050 -17.733  0.00  0.00    -0.000 C 
ATOM      6  C   UNL     1      35.030 -22.541 -17.481  0.00  0.00    +0.000 C 
ATOM      7  C   UNL     1      32.720 -22.824 -18.191  0.00  0.00    +0.000 C 
ATOM      8  C   UNL     1      34.727 -23.232 -16.298  0.00  0.00    +0.003 C 
ATOM      9  C   UNL     1      33.438 -23.714 -16.064  0.00  0.00    +0.031 C 
ATOM     10  C   UNL     1      32.437 -23.510 -17.010  0.00  0.00    +0.003 C 
ENDROOT
BRANCH   9  13
ATOM     11  N   UNL     1      31.839 -24.513 -14.341  0.00  0.00    -0.343 N 
ATOM     12  N   UNL     1      34.116 -25.009 -14.157  0.00  0.00    -0.285 NA
ATOM     13  C   UNL     1      33.141 -24.428 -14.834  0.00  0.00    +0.117 C 
ATOM     14  H   UNL     1      31.660 -25.002 -13.506  0.00  0.00    +0.144 HD
ATOM     15  H   UNL     1      31.099 -24.085 -14.829  0.00  0.00    +0.144 HD
ATOM     16  H   UNL     1      33.915 -25.494 -13.324  0.00  0.00    +0.188 HD
ENDBRANCH   9  13
BRANCH   1  17
ATOM     17  C   UNL     1      35.908 -20.429 -21.121  0.00  0.00    +0.027 C 
ATOM     18  C   UNL     1      35.545 -18.981 -21.233  0.00  0.00    +0.027 C 
ATOM     19  C   UNL     1      36.985 -19.388 -21.120  0.00  0.00    +0.009 C 
BRANCH  18  20
ATOM     20  C   UNL     1      35.036 -18.458 -22.526  0.00  0.00    -0.022 C 
ATOM     21  C   UNL     1      34.423 -19.319 -23.441  0.00  0.00    -0.004 C 
ATOM     22  C   UNL     1      35.168 -17.102 -22.838  0.00  0.00    -0.004 C 
ATOM     23  C   UNL     1      33.947 -18.829 -24.658  0.00  0.00    -0.000 C 
ATOM     24  C   UNL     1      34.693 -16.611 -24.053  0.00  0.00    -0.000 C 
ATOM     25  C   UNL     1      34.083 -17.475 -24.963  0.00  0.00    -0.000 C 
ENDBRANCH  18  20
ENDBRANCH   1  17
TORSDOF 3
ENDMDL
MODEL 5
REMARK VINA RESULT:     -11.0      5.853     10.159
REMARK  Name = 448841
REMARK  3 active torsions:
REMARK  status: ('A' for Active; 'I' for Inactive)
REMARK    1  A    between atoms: C_1  and  C_17
REMARK    2  A    between atoms: C_9  and  C_13
REMARK    3  A    between atoms: C_18  and  C_20
REMARK                            x       y       z     vdW  Elec       q    Type
REMARK                         _______ _______ _______ _____ _____    ______ ____
ROOT
ATOM      1  C   UNL     1      34.752 -16.957 -22.690  0.00  0.00    -0.022 C 
ATOM      2  C   UNL     1      34.440 -16.564 -23.991  0.00  0.00    -0.004 C 
ATOM      3  C   UNL     1      34.812 -16.010 -21.671  0.00  0.00    -0.004 C 
ATOM      4  C   UNL     1      34.184 -15.216 -24.291  0.00  0.00    -0.000 C 
ATOM      5  C   UNL     1      34.560 -14.666 -21.952  0.00  0.00    -0.000 C 
ATOM      6  C   UNL     1      34.244 -14.253 -23.256  0.00  0.00    +0.000 C 
ATOM      7  C   UNL     1      33.869 -14.802 -25.596  0.00  0.00    +0.000 C 
ATOM      8  C   UNL     1      33.989 -12.905 -23.555  0.00  0.00    +0.003 C 
ATOM      9  C   UNL     1      33.676 -12.512 -24.857  0.00  0.00    +0.031 C 
ATOM     10  C   UNL     1      33.617 -13.459 -25.875  0.00  0.00    +0.003 C 
ENDROOT
BRANCH   9  13
ATOM     11  N   UNL     1      33.107 -10.204 -24.139  0.00  0.00    -0.343 N 
ATOM     12  N   UNL     1      33.459 -10.682 -26.399  0.00  0.00    -0.285 NA
ATOM     13  C   UNL     1      33.413 -11.113 -25.151  0.00  0.00    +0.117 C 
ATOM     14  H   UNL     1      32.932  -9.261 -24.360  0.00  0.00    +0.144 HD
ATOM     15  H   UNL     1      33.065 -10.506 -23.203  0.00  0.00    +0.144 HD
ATOM     16  H   UNL     1      33.281  -9.734 -26.600  0.00  0.00    +0.188 HD
ENDBRANCH   9  13
BRANCH   1  17
ATOM     17  C   UNL     1      35.021 -18.391 -22.389  0.00  0.00    +0.027 C 
ATOM     18  C   UNL     1      33.883 -19.285 -22.007  0.00  0.00    +0.027 C 
ATOM     19  C   UNL     1      34.544 -19.440 -23.345  0.00  0.00    +0.009 C 
BRANCH  18  20
ATOM     20  C   UNL     1      34.094 -20.324 -20.968  0.00  0.00    -0.022 C 
ATOM     21  C   UNL     1      35.389 -20.685 -20.586  0.00  0.00    -0.004 C 
ATOM     22  C   UNL     1      32.998 -20.949 -20.365  0.00  0.00    -0.004 C 
ATOM     23  C   UNL     1      35.587 -21.663 -19.610  0.00  0.00    -0.000 C 
ATOM     24  C   UNL     1      33.195 -21.926 -19.390  0.00  0.00    -0.000 C 
ATOM     25  C   UNL     1      34.490 -22.283 -19.013  0.00  0.00    -0.000 C 
ENDBRANCH  18  20
ENDBRANCH   1  17
TORSDOF 3
ENDMDL
MODEL 6
REMARK VINA RESULT:     -10.7      3.861      8.571
REMARK  Name = 448841
REMARK  3 active torsions:
REMARK  status: ('A' for Active; 'I' for Inactive)
REMARK    1  A    between atoms: C_1  and  C_17
REMARK    2  A    between atoms: C_9  and  C_13
REMARK    3  A    between atoms: C_18  and  C_20
REMARK                            x       y       z     vdW  Elec       q    Type
REMARK                         _______ _______ _______ _____ _____    ______ ____
ROOT
ATOM      1  C   UNL     1      34.268 -22.652 -18.160  0.00  0.00    -0.022 C 
ATOM      2  C   UNL     1      35.404 -22.046 -18.696  0.00  0.00    -0.004 C 
ATOM      3  C   UNL     1      33.013 -22.379 -18.697  0.00  0.00    -0.004 C 
ATOM      4  C   UNL     1      35.300 -21.156 -19.778  0.00  0.00    -0.000 C 
ATOM      5  C   UNL     1      32.891 -21.497 -19.772  0.00  0.00    -0.000 C 
ATOM      6  C   UNL     1      34.024 -20.878 -20.325  0.00  0.00    +0.000 C 
ATOM      7  C   UNL     1      36.432 -20.536 -20.329  0.00  0.00    +0.000 C 
ATOM      8  C   UNL     1      33.918 -19.989 -21.406  0.00  0.00    +0.003 C 
ATOM      9  C   UNL     1      35.055 -19.382 -21.942  0.00  0.00    +0.031 C 
ATOM     10  C   UNL     1      36.309 -19.656 -21.405  0.00  0.00    +0.003 C 
ENDROOT
BRANCH   9  13
ATOM     11  N   UNL     1      34.028 -18.704 -24.099  0.00  0.00    -0.343 N 
ATOM     12  N   UNL     1      35.682 -17.379 -23.113  0.00  0.00    -0.285 NA
ATOM     13  C   UNL     1      34.929 -18.464 -23.062  0.00  0.00    +0.117 C 
ATOM     14  H   UNL     1      33.960 -18.069 -24.848  0.00  0.00    +0.144 HD
ATOM     15  H   UNL     1      33.461 -19.508 -24.082  0.00  0.00    +0.144 HD
ATOM     16  H   UNL     1      35.598 -16.757 -23.871  0.00  0.00    +0.188 HD
ENDBRANCH   9  13
BRANCH   1  17
ATOM     17  C   UNL     1      34.397 -23.593 -17.012  0.00  0.00    +0.027 C 
ATOM     18  C   UNL     1      35.243 -23.204 -15.839  0.00  0.00    +0.027 C 
ATOM     19  C   UNL     1      33.748 -23.247 -15.708  0.00  0.00    +0.009 C 
BRANCH  18  20
ATOM     20  C   UNL     1      36.062 -24.239 -15.161  0.00  0.00    -0.022 C 
ATOM     21  C   UNL     1      37.046 -23.866 -14.240  0.00  0.00    -0.004 C 
ATOM     22  C   UNL     1      35.857 -25.594 -15.438  0.00  0.00    -0.004 C 
ATOM     23  C   UNL     1      37.818 -24.838 -13.604  0.00  0.00    -0.000 C 
ATOM     24  C   UNL     1      36.629 -26.566 -14.803  0.00  0.00    -0.000 C 
ATOM     25  C   UNL     1      37.609 -26.188 -13.886  0.00  0.00    -0.000 C 
ENDBRANCH  18  20
ENDBRANCH   1  17
TORSDOF 3
ENDMDL
MODEL 7
REMARK VINA RESULT:     -10.5      4.107      8.548
REMARK  Name = 448841
REMARK  3 active torsions:
REMARK  status: ('A' for Active; 'I' for Inactive)
REMARK    1  A    between atoms: C_1  and  C_17
REMARK    2  A    between atoms: C_9  and  C_13
REMARK    3  A    between atoms: C_18  and  C_20
REMARK                            x       y       z     vdW  Elec       q    Type
REMARK                         _______ _______ _______ _____ _____    ______ ____
ROOT
ATOM      1  C   UNL     1      34.306 -21.930 -19.256  0.00  0.00    -0.022 C 
ATOM      2  C   UNL     1      35.443 -21.313 -19.776  0.00  0.00    -0.004 C 
ATOM      3  C   UNL     1      33.044 -21.582 -19.731  0.00  0.00    -0.004 C 
ATOM      4  C   UNL     1      35.333 -20.336 -20.780  0.00  0.00    -0.000 C 
ATOM      5  C   UNL     1      32.917 -20.613 -20.728  0.00  0.00    -0.000 C 
ATOM      6  C   UNL     1      34.051 -19.981 -21.263  0.00  0.00    +0.000 C 
ATOM      7  C   UNL     1      36.467 -19.704 -21.314  0.00  0.00    +0.000 C 
ATOM      8  C   UNL     1      33.941 -19.005 -22.266  0.00  0.00    +0.003 C 
ATOM      9  C   UNL     1      35.079 -18.387 -22.787  0.00  0.00    +0.031 C 
ATOM     10  C   UNL     1      36.339 -18.737 -22.311  0.00  0.00    +0.003 C 
ENDROOT
BRANCH   9  13
ATOM     11  N   UNL     1      35.413 -16.078 -23.637  0.00  0.00    -0.343 N 
ATOM     12  N   UNL     1      34.374 -17.688 -24.975  0.00  0.00    -0.285 NA
ATOM     13  C   UNL     1      34.948 -17.379 -23.825  0.00  0.00    +0.117 C 
ATOM     14  H   UNL     1      35.314 -15.411 -24.354  0.00  0.00    +0.144 HD
ATOM     15  H   UNL     1      35.840 -15.827 -22.786  0.00  0.00    +0.144 HD
ATOM     16  H   UNL     1      34.285 -17.006 -25.680  0.00  0.00    +0.188 HD
ENDBRANCH   9  13
BRANCH   1  17
ATOM     17  C   UNL     1      34.440 -22.963 -18.191  0.00  0.00    +0.027 C 
ATOM     18  C   UNL     1      33.555 -22.892 -16.986  0.00  0.00    +0.027 C 
ATOM     19  C   UNL     1      33.347 -23.970 -18.009  0.00  0.00    +0.009 C 
BRANCH  18  20
ATOM     20  C   UNL     1      34.110 -23.248 -15.656  0.00  0.00    -0.022 C 
ATOM     21  C   UNL     1      35.447 -22.973 -15.355  0.00  0.00    -0.004 C 
ATOM     22  C   UNL     1      33.300 -23.861 -14.696  0.00  0.00    -0.004 C 
ATOM     23  C   UNL     1      35.970 -23.309 -14.106  0.00  0.00    -0.000 C 
ATOM     24  C   UNL     1      33.822 -24.198 -13.448  0.00  0.00    -0.000 C 
ATOM     25  C   UNL     1      35.157 -23.922 -13.153  0.00  0.00    -0.000 C 
ENDBRANCH  18  20
ENDBRANCH   1  17
TORSDOF 3
ENDMDL
MODEL 8
REMARK VINA RESULT:     -10.4      5.898      9.745
REMARK  Name = 448841
REMARK  3 active torsions:
REMARK  status: ('A' for Active; 'I' for Inactive)
REMARK    1  A    between atoms: C_1  and  C_17
REMARK    2  A    between atoms: C_9  and  C_13
REMARK    3  A    between atoms: C_18  and  C_20
REMARK                            x       y       z     vdW  Elec       q    Type
REMARK                         _______ _______ _______ _____ _____    ______ ____
ROOT
ATOM      1  C   UNL     1      34.757 -16.372 -22.095  0.00  0.00    -0.022 C 
ATOM      2  C   UNL     1      33.982 -15.656 -21.183  0.00  0.00    -0.004 C 
ATOM      3  C   UNL     1      34.991 -15.856 -23.367  0.00  0.00    -0.004 C 
ATOM      4  C   UNL     1      33.429 -14.413 -21.531  0.00  0.00    -0.000 C 
ATOM      5  C   UNL     1      34.450 -14.621 -23.729  0.00  0.00    -0.000 C 
ATOM      6  C   UNL     1      33.667 -13.887 -22.824  0.00  0.00    +0.000 C 
ATOM      7  C   UNL     1      32.646 -13.679 -20.626  0.00  0.00    +0.000 C 
ATOM      8  C   UNL     1      33.115 -12.645 -23.173  0.00  0.00    +0.003 C 
ATOM      9  C   UNL     1      32.339 -11.928 -22.260  0.00  0.00    +0.031 C 
ATOM     10  C   UNL     1      32.106 -12.445 -20.989  0.00  0.00    +0.003 C 
ENDROOT
BRANCH   9  13
ATOM     11  N   UNL     1      32.467  -9.762 -23.468  0.00  0.00    -0.343 N 
ATOM     12  N   UNL     1      30.585 -10.288 -22.185  0.00  0.00    -0.285 NA
ATOM     13  C   UNL     1      31.775 -10.643 -22.637  0.00  0.00    +0.117 C 
ATOM     14  H   UNL     1      32.066  -8.897 -23.710  0.00  0.00    +0.144 HD
ATOM     15  H   UNL     1      33.356 -10.007 -23.812  0.00  0.00    +0.144 HD
ATOM     16  H   UNL     1      30.202  -9.417 -22.440  0.00  0.00    +0.188 HD
ENDBRANCH   9  13
BRANCH   1  17
ATOM     17  C   UNL     1      35.335 -17.689 -21.709  0.00  0.00    +0.027 C 
ATOM     18  C   UNL     1      34.579 -18.942 -22.027  0.00  0.00    +0.027 C 
ATOM     19  C   UNL     1      35.834 -18.610 -22.779  0.00  0.00    +0.009 C 
BRANCH  18  20
ATOM     20  C   UNL     1      34.589 -20.062 -21.054  0.00  0.00    -0.022 C 
ATOM     21  C   UNL     1      33.385 -20.612 -20.601  0.00  0.00    -0.004 C 
ATOM     22  C   UNL     1      35.801 -20.575 -20.582  0.00  0.00    -0.004 C 
ATOM     23  C   UNL     1      33.394 -21.664 -19.685  0.00  0.00    -0.000 C 
ATOM     24  C   UNL     1      35.810 -21.626 -19.666  0.00  0.00    -0.000 C 
ATOM     25  C   UNL     1      34.607 -22.171 -19.217  0.00  0.00    -0.000 C 
ENDBRANCH  18  20
ENDBRANCH   1  17
TORSDOF 3
ENDMDL
MODEL 9
REMARK VINA RESULT:     -10.1      3.757      8.945
REMARK  Name = 448841
REMARK  3 active torsions:
REMARK  status: ('A' for Active; 'I' for Inactive)
REMARK    1  A    between atoms: C_1  and  C_17
REMARK    2  A    between atoms: C_9  and  C_13
REMARK    3  A    between atoms: C_18  and  C_20
REMARK                            x       y       z     vdW  Elec       q    Type
REMARK                         _______ _______ _______ _____ _____    ______ ____
ROOT
ATOM      1  C   UNL     1      34.846 -22.700 -17.781  0.00  0.00    -0.022 C 
ATOM      2  C   UNL     1      33.759 -22.269 -18.540  0.00  0.00    -0.004 C 
ATOM      3  C   UNL     1      36.133 -22.279 -18.105  0.00  0.00    -0.004 C 
ATOM      4  C   UNL     1      33.944 -21.410 -19.636  0.00  0.00    -0.000 C 
ATOM      5  C   UNL     1      36.336 -21.425 -19.191  0.00  0.00    -0.000 C 
ATOM      6  C   UNL     1      35.253 -20.981 -19.966  0.00  0.00    +0.000 C 
ATOM      7  C   UNL     1      32.861 -20.967 -20.411  0.00  0.00    +0.000 C 
ATOM      8  C   UNL     1      35.439 -20.123 -21.060  0.00  0.00    +0.003 C 
ATOM      9  C   UNL     1      34.351 -19.691 -21.821  0.00  0.00    +0.031 C 
ATOM     10  C   UNL     1      33.064 -20.113 -21.496  0.00  0.00    +0.003 C 
ENDROOT
BRANCH   9  13
ATOM     11  N   UNL     1      35.004 -17.493 -22.771  0.00  0.00    -0.343 N 
ATOM     12  N   UNL     1      34.324 -19.230 -24.179  0.00  0.00    -0.285 NA
ATOM     13  C   UNL     1      34.560 -18.802 -22.951  0.00  0.00    +0.117 C 
ATOM     14  H   UNL     1      35.139 -16.907 -23.551  0.00  0.00    +0.144 HD
ATOM     15  H   UNL     1      35.183 -17.154 -21.864  0.00  0.00    +0.144 HD
ATOM     16  H   UNL     1      34.465 -18.628 -24.945  0.00  0.00    +0.188 HD
ENDBRANCH   9  13
BRANCH   1  17
ATOM     17  C   UNL     1      34.631 -23.611 -16.623  0.00  0.00    +0.027 C 
ATOM     18  C   UNL     1      35.069 -23.177 -15.258  0.00  0.00    +0.027 C 
ATOM     19  C   UNL     1      33.607 -23.253 -15.591  0.00  0.00    +0.009 C 
BRANCH  18  20
ATOM     20  C   UNL     1      35.657 -24.177 -14.332  0.00  0.00    -0.022 C 
ATOM     21  C   UNL     1      36.359 -25.275 -14.836  0.00  0.00    -0.004 C 
ATOM     22  C   UNL     1      35.510 -24.027 -12.950  0.00  0.00    -0.004 C 
ATOM     23  C   UNL     1      36.910 -26.216 -13.965  0.00  0.00    -0.000 C 
ATOM     24  C   UNL     1      36.060 -24.968 -12.079  0.00  0.00    -0.000 C 
ATOM     25  C   UNL     1      36.760 -26.062 -12.587  0.00  0.00    -0.000 C 
ENDBRANCH  18  20
ENDBRANCH   1  17
TORSDOF 3
ENDMDL
