MODEL 1
REMARK VINA RESULT:     -12.0      0.000      0.000
REMARK  Name = 6918314
REMARK  8 active torsions:
REMARK  status: ('A' for Active; 'I' for Inactive)
REMARK    1  A    between atoms: N_1  and  C_22
REMARK    2  A    between atoms: N_2  and  C_9
REMARK    3  A    between atoms: C_16  and  C_19
REMARK    4  A    between atoms: C_22  and  C_23
REMARK    5  A    between atoms: C_23  and  C_24
REMARK    6  A    between atoms: C_24  and  C_25
REMARK    7  A    between atoms: C_25  and  C_27
REMARK    8  A    between atoms: C_33  and  C_37
REMARK                            x       y       z     vdW  Elec       q    Type
REMARK                         _______ _______ _______ _____ _____    ______ ____
ROOT
ATOM      1  N   UNL     1      35.930 -20.783 -19.545  0.00  0.00    +0.389 N 
ATOM      2  N   UNL     1      35.180 -19.178 -21.784  0.00  0.00    -0.312 N 
ATOM      3  C   UNL     1      36.957 -20.191 -20.410  0.00  0.00    -0.055 C 
ATOM      4  C   UNL     1      34.744 -21.123 -20.337  0.00  0.00    -0.055 C 
ATOM      5  C   UNL     1      36.441 -18.915 -21.081  0.00  0.00    +0.068 C 
ATOM      6  C   UNL     1      34.154 -19.880 -21.007  0.00  0.00    +0.068 C 
ATOM      7  H   UNL     1      35.666 -20.101 -18.833  0.00  0.00    -0.080 HD
ENDROOT
BRANCH   2   9
ATOM      8  O   UNL     1      33.702 -15.574 -25.705  0.00  0.00    -0.449 OA
ATOM      9  C   UNL     1      34.798 -18.294 -22.801  0.00  0.00    +0.048 C 
ATOM     10  C   UNL     1      34.843 -16.894 -22.591  0.00  0.00    +0.018 C 
ATOM     11  C   UNL     1      34.359 -18.783 -24.052  0.00  0.00    +0.018 C 
ATOM     12  C   UNL     1      34.456 -16.020 -23.623  0.00  0.00    +0.039 C 
ATOM     13  C   UNL     1      34.035 -16.565 -24.831  0.00  0.00    +0.146 C 
ATOM     14  C   UNL     1      33.970 -17.933 -25.092  0.00  0.00    +0.039 C 
ATOM     15  C   UNL     1      34.370 -14.613 -23.783  0.00  0.00    +0.045 C 
ATOM     16  C   UNL     1      33.909 -14.395 -25.061  0.00  0.00    +0.198 C 
BRANCH  16  19
ATOM     17  O   UNL     1      33.117 -13.137 -26.915  0.00  0.00    -0.267 OA
ATOM     18  N   UNL     1      33.970 -11.971 -25.165  0.00  0.00    -0.323 N 
ATOM     19  C   UNL     1      33.631 -13.193 -25.769  0.00  0.00    +0.277 C 
ATOM     20  H   UNL     1      33.789 -11.123 -25.633  0.00  0.00    +0.145 HD
ATOM     21  H   UNL     1      34.390 -11.961 -24.275  0.00  0.00    +0.145 HD
ENDBRANCH  16  19
ENDBRANCH   2   9
BRANCH   1  22
ATOM     22  C   UNL     1      36.453 -21.969 -18.867  0.00  0.00    -0.077 C 
BRANCH  22  23
ATOM     23  C   UNL     1      36.811 -21.639 -17.419  0.00  0.00    -0.022 C 
BRANCH  23  24
ATOM     24  C   UNL     1      36.167 -22.632 -16.450  0.00  0.00    +0.003 C 
BRANCH  24  25
ATOM     25  C   UNL     1      34.735 -22.974 -16.871  0.00  0.00    +0.028 C 
BRANCH  25  27
ATOM     26  N   UNL     1      33.537 -24.932 -14.032  0.00  0.00    -0.312 N 
ATOM     27  C   UNL     1      33.982 -23.698 -15.795  0.00  0.00    -0.006 C 
ATOM     28  C   UNL     1      32.580 -23.718 -15.641  0.00  0.00    +0.011 C 
ATOM     29  C   UNL     1      34.553 -24.442 -14.807  0.00  0.00    +0.058 C 
ATOM     30  C   UNL     1      32.320 -24.506 -14.517  0.00  0.00    +0.048 C 
ATOM     31  C   UNL     1      31.494 -23.150 -16.336  0.00  0.00    +0.011 C 
ATOM     32  C   UNL     1      31.024 -24.756 -14.054  0.00  0.00    +0.015 C 
ATOM     33  C   UNL     1      30.192 -23.391 -15.884  0.00  0.00    +0.069 C 
ATOM     34  C   UNL     1      29.963 -24.181 -14.760  0.00  0.00    +0.012 C 
ATOM     35  H   UNL     1      33.657 -25.507 -13.241  0.00  0.00    +0.152 HD
BRANCH  33  37
ATOM     36  N   UNL     1      28.187 -22.354 -17.156  0.00  0.00    -0.191 NA
ATOM     37  C   UNL     1      29.085 -22.818 -16.586  0.00  0.00    +0.100 C 
ENDBRANCH  33  37
ENDBRANCH  25  27
ENDBRANCH  24  25
ENDBRANCH  23  24
ENDBRANCH  22  23
ENDBRANCH   1  22
TORSDOF 8
ENDMDL
MODEL 2
REMARK VINA RESULT:     -11.6      1.180      1.617
REMARK  Name = 6918314
REMARK  8 active torsions:
REMARK  status: ('A' for Active; 'I' for Inactive)
REMARK    1  A    between atoms: N_1  and  C_22
REMARK    2  A    between atoms: N_2  and  C_9
REMARK    3  A    between atoms: C_16  and  C_19
REMARK    4  A    between atoms: C_22  and  C_23
REMARK    5  A    between atoms: C_23  and  C_24
REMARK    6  A    between atoms: C_24  and  C_25
REMARK    7  A    between atoms: C_25  and  C_27
REMARK    8  A    between atoms: C_33  and  C_37
REMARK                            x       y       z     vdW  Elec       q    Type
REMARK                         _______ _______ _______ _____ _____    ______ ____
ROOT
ATOM      1  N   UNL     1      35.481 -21.044 -20.494  0.00  0.00    +0.389 N 
ATOM      2  N   UNL     1      35.039 -18.585 -21.877  0.00  0.00    -0.312 N 
ATOM      3  C   UNL     1      34.120 -20.524 -20.664  0.00  0.00    -0.055 C 
ATOM      4  C   UNL     1      36.427 -19.932 -20.352  0.00  0.00    -0.055 C 
ATOM      5  C   UNL     1      34.021 -19.642 -21.911  0.00  0.00    +0.068 C 
ATOM      6  C   UNL     1      36.406 -19.030 -21.588  0.00  0.00    +0.068 C 
ATOM      7  H   UNL     1      35.733 -21.587 -21.321  0.00  0.00    -0.080 HD
ENDROOT
BRANCH   2   9
ATOM      8  O   UNL     1      34.208 -14.003 -24.853  0.00  0.00    -0.449 OA
ATOM      9  C   UNL     1      34.831 -17.446 -22.663  0.00  0.00    +0.048 C 
ATOM     10  C   UNL     1      34.649 -16.178 -22.057  0.00  0.00    +0.018 C 
ATOM     11  C   UNL     1      34.796 -17.540 -24.072  0.00  0.00    +0.018 C 
ATOM     12  C   UNL     1      34.441 -15.043 -22.861  0.00  0.00    +0.039 C 
ATOM     13  C   UNL     1      34.419 -15.203 -24.242  0.00  0.00    +0.146 C 
ATOM     14  C   UNL     1      34.592 -16.425 -24.891  0.00  0.00    +0.039 C 
ATOM     15  C   UNL     1      34.229 -13.659 -22.629  0.00  0.00    +0.045 C 
ATOM     16  C   UNL     1      34.094 -13.074 -23.867  0.00  0.00    +0.198 C 
BRANCH  16  19
ATOM     17  O   UNL     1      32.947 -10.994 -23.794  0.00  0.00    -0.267 OA
ATOM     18  N   UNL     1      34.706 -11.154 -25.220  0.00  0.00    -0.323 N 
ATOM     19  C   UNL     1      33.866 -11.723 -24.249  0.00  0.00    +0.277 C 
ATOM     20  H   UNL     1      34.570 -10.221 -25.503  0.00  0.00    +0.145 HD
ATOM     21  H   UNL     1      35.431 -11.688 -25.618  0.00  0.00    +0.145 HD
ENDBRANCH  16  19
ENDBRANCH   2   9
BRANCH   1  22
ATOM     22  C   UNL     1      35.550 -21.928 -19.331  0.00  0.00    -0.077 C 
BRANCH  22  23
ATOM     23  C   UNL     1      34.144 -22.304 -18.865  0.00  0.00    -0.022 C 
BRANCH  23  24
ATOM     24  C   UNL     1      34.178 -23.505 -17.917  0.00  0.00    +0.003 C 
BRANCH  24  25
ATOM     25  C   UNL     1      34.444 -23.068 -16.474  0.00  0.00    +0.028 C 
BRANCH  25  27
ATOM     26  N   UNL     1      33.001 -25.108 -13.811  0.00  0.00    -0.312 N 
ATOM     27  C   UNL     1      33.599 -23.818 -15.487  0.00  0.00    -0.006 C 
ATOM     28  C   UNL     1      32.190 -23.820 -15.443  0.00  0.00    +0.011 C 
ATOM     29  C   UNL     1      34.082 -24.607 -14.486  0.00  0.00    +0.058 C 
ATOM     30  C   UNL     1      31.833 -24.644 -14.373  0.00  0.00    +0.048 C 
ATOM     31  C   UNL     1      31.170 -23.209 -16.198  0.00  0.00    +0.011 C 
ATOM     32  C   UNL     1      30.501 -24.889 -14.021  0.00  0.00    +0.015 C 
ATOM     33  C   UNL     1      29.833 -23.444 -15.857  0.00  0.00    +0.069 C 
ATOM     34  C   UNL     1      29.506 -24.271 -14.785  0.00  0.00    +0.012 C 
ATOM     35  H   UNL     1      33.051 -25.713 -13.036  0.00  0.00    +0.152 HD
BRANCH  33  37
ATOM     36  N   UNL     1      27.948 -22.328 -17.240  0.00  0.00    -0.191 NA
ATOM     37  C   UNL     1      28.792 -22.828 -16.620  0.00  0.00    +0.100 C 
ENDBRANCH  33  37
ENDBRANCH  25  27
ENDBRANCH  24  25
ENDBRANCH  23  24
ENDBRANCH  22  23
ENDBRANCH   1  22
TORSDOF 8
ENDMDL
MODEL 3
REMARK VINA RESULT:     -11.5      4.133     12.494
REMARK  Name = 6918314
REMARK  8 active torsions:
REMARK  status: ('A' for Active; 'I' for Inactive)
REMARK    1  A    between atoms: N_1  and  C_22
REMARK    2  A    between atoms: N_2  and  C_9
REMARK    3  A    between atoms: C_16  and  C_19
REMARK    4  A    between atoms: C_22  and  C_23
REMARK    5  A    between atoms: C_23  and  C_24
REMARK    6  A    between atoms: C_24  and  C_25
REMARK    7  A    between atoms: C_25  and  C_27
REMARK    8  A    between atoms: C_33  and  C_37
REMARK                            x       y       z     vdW  Elec       q    Type
REMARK                         _______ _______ _______ _____ _____    ______ ____
ROOT
ATOM      1  N   UNL     1      34.736 -16.655 -24.490  0.00  0.00    +0.389 N 
ATOM      2  N   UNL     1      34.709 -18.647 -22.444  0.00  0.00    -0.312 N 
ATOM      3  C   UNL     1      34.719 -16.266 -23.076  0.00  0.00    -0.055 C 
ATOM      4  C   UNL     1      33.980 -17.899 -24.675  0.00  0.00    -0.055 C 
ATOM      5  C   UNL     1      35.350 -17.350 -22.200  0.00  0.00    +0.068 C 
ATOM      6  C   UNL     1      34.585 -19.038 -23.852  0.00  0.00    +0.068 C 
ATOM      7  H   UNL     1      35.702 -16.812 -24.778  0.00  0.00    -0.080 HD
ENDROOT
BRANCH   2   9
ATOM      8  O   UNL     1      35.001 -22.545 -18.537  0.00  0.00    -0.449 OA
ATOM      9  C   UNL     1      34.822 -19.633 -21.457  0.00  0.00    +0.048 C 
ATOM     10  C   UNL     1      33.663 -20.196 -20.868  0.00  0.00    +0.018 C 
ATOM     11  C   UNL     1      36.091 -20.082 -21.029  0.00  0.00    +0.018 C 
ATOM     12  C   UNL     1      33.793 -21.185 -19.877  0.00  0.00    +0.039 C 
ATOM     13  C   UNL     1      35.071 -21.585 -19.502  0.00  0.00    +0.146 C 
ATOM     14  C   UNL     1      36.245 -21.066 -20.046  0.00  0.00    +0.039 C 
ATOM     15  C   UNL     1      32.900 -21.955 -19.087  0.00  0.00    +0.045 C 
ATOM     16  C   UNL     1      33.682 -22.762 -18.293  0.00  0.00    +0.198 C 
BRANCH  16  19
ATOM     17  O   UNL     1      34.126 -24.598 -16.851  0.00  0.00    -0.267 OA
ATOM     18  N   UNL     1      32.020 -23.753 -16.827  0.00  0.00    -0.323 N 
ATOM     19  C   UNL     1      33.338 -23.733 -17.311  0.00  0.00    +0.277 C 
ATOM     20  H   UNL     1      31.755 -24.415 -16.147  0.00  0.00    +0.145 HD
ATOM     21  H   UNL     1      31.361 -23.107 -17.167  0.00  0.00    +0.145 HD
ENDBRANCH  16  19
ENDBRANCH   2   9
BRANCH   1  22
ATOM     22  C   UNL     1      34.180 -15.589 -25.323  0.00  0.00    -0.077 C 
BRANCH  22  23
ATOM     23  C   UNL     1      33.328 -14.644 -24.477  0.00  0.00    -0.022 C 
BRANCH  23  24
ATOM     24  C   UNL     1      33.958 -13.253 -24.398  0.00  0.00    +0.003 C 
BRANCH  24  25
ATOM     25  C   UNL     1      33.526 -12.377 -25.578  0.00  0.00    +0.028 C 
BRANCH  25  27
ATOM     26  N   UNL     1      35.666  -9.489 -26.224  0.00  0.00    -0.312 N 
ATOM     27  C   UNL     1      34.266 -11.073 -25.621  0.00  0.00    -0.006 C 
ATOM     28  C   UNL     1      34.062  -9.981 -24.753  0.00  0.00    +0.011 C 
ATOM     29  C   UNL     1      35.247 -10.760 -26.514  0.00  0.00    +0.058 C 
ATOM     30  C   UNL     1      34.959  -8.988 -25.154  0.00  0.00    +0.048 C 
ATOM     31  C   UNL     1      33.207  -9.722 -23.663  0.00  0.00    +0.011 C 
ATOM     32  C   UNL     1      35.046  -7.747 -24.515  0.00  0.00    +0.015 C 
ATOM     33  C   UNL     1      33.283  -8.484 -23.015  0.00  0.00    +0.069 C 
ATOM     34  C   UNL     1      34.188  -7.512 -23.436  0.00  0.00    +0.012 C 
ATOM     35  H   UNL     1      36.370  -9.003 -26.711  0.00  0.00    +0.152 HD
BRANCH  33  37
ATOM     36  N   UNL     1      31.718  -7.998 -21.007  0.00  0.00    -0.191 NA
ATOM     37  C   UNL     1      32.419  -8.215 -21.907  0.00  0.00    +0.100 C 
ENDBRANCH  33  37
ENDBRANCH  25  27
ENDBRANCH  24  25
ENDBRANCH  23  24
ENDBRANCH  22  23
ENDBRANCH   1  22
TORSDOF 8
ENDMDL
MODEL 4
REMARK VINA RESULT:     -11.3      2.347      4.350
REMARK  Name = 6918314
REMARK  8 active torsions:
REMARK  status: ('A' for Active; 'I' for Inactive)
REMARK    1  A    between atoms: N_1  and  C_22
REMARK    2  A    between atoms: N_2  and  C_9
REMARK    3  A    between atoms: C_16  and  C_19
REMARK    4  A    between atoms: C_22  and  C_23
REMARK    5  A    between atoms: C_23  and  C_24
REMARK    6  A    between atoms: C_24  and  C_25
REMARK    7  A    between atoms: C_25  and  C_27
REMARK    8  A    between atoms: C_33  and  C_37
REMARK                            x       y       z     vdW  Elec       q    Type
REMARK                         _______ _______ _______ _____ _____    ______ ____
ROOT
ATOM      1  N   UNL     1      35.426 -21.136 -20.338  0.00  0.00    +0.389 N 
ATOM      2  N   UNL     1      35.050 -18.677 -21.741  0.00  0.00    -0.312 N 
ATOM      3  C   UNL     1      34.081 -20.573 -20.500  0.00  0.00    -0.055 C 
ATOM      4  C   UNL     1      36.410 -20.054 -20.217  0.00  0.00    -0.055 C 
ATOM      5  C   UNL     1      33.998 -19.701 -21.755  0.00  0.00    +0.068 C 
ATOM      6  C   UNL     1      36.405 -19.164 -21.461  0.00  0.00    +0.068 C 
ATOM      7  H   UNL     1      35.651 -21.694 -21.162  0.00  0.00    -0.080 HD
ENDROOT
BRANCH   2   9
ATOM      8  O   UNL     1      34.323 -14.101 -24.753  0.00  0.00    -0.449 OA
ATOM      9  C   UNL     1      34.872 -17.539 -22.536  0.00  0.00    +0.048 C 
ATOM     10  C   UNL     1      34.605 -16.281 -21.941  0.00  0.00    +0.018 C 
ATOM     11  C   UNL     1      34.952 -17.625 -23.944  0.00  0.00    +0.018 C 
ATOM     12  C   UNL     1      34.428 -15.147 -22.753  0.00  0.00    +0.039 C 
ATOM     13  C   UNL     1      34.521 -15.299 -24.133  0.00  0.00    +0.146 C 
ATOM     14  C   UNL     1      34.780 -16.510 -24.772  0.00  0.00    +0.039 C 
ATOM     15  C   UNL     1      34.158 -13.772 -22.533  0.00  0.00    +0.045 C 
ATOM     16  C   UNL     1      34.105 -13.183 -23.775  0.00  0.00    +0.198 C 
BRANCH  16  19
ATOM     17  O   UNL     1      33.009 -11.078 -23.650  0.00  0.00    -0.267 OA
ATOM     18  N   UNL     1      34.625 -11.308 -25.226  0.00  0.00    -0.323 N 
ATOM     19  C   UNL     1      33.868 -11.836 -24.168  0.00  0.00    +0.277 C 
ATOM     20  H   UNL     1      34.482 -10.379 -25.519  0.00  0.00    +0.145 HD
ATOM     21  H   UNL     1      35.300 -11.866 -25.676  0.00  0.00    +0.145 HD
ENDBRANCH  16  19
ENDBRANCH   2   9
BRANCH   1  22
ATOM     22  C   UNL     1      35.478 -22.011 -19.167  0.00  0.00    -0.077 C 
BRANCH  22  23
ATOM     23  C   UNL     1      34.117 -22.663 -18.931  0.00  0.00    -0.022 C 
BRANCH  23  24
ATOM     24  C   UNL     1      33.940 -23.058 -17.463  0.00  0.00    +0.003 C 
BRANCH  24  25
ATOM     25  C   UNL     1      35.265 -22.972 -16.699  0.00  0.00    +0.028 C 
BRANCH  25  27
ATOM     26  N   UNL     1      34.432 -24.250 -13.381  0.00  0.00    -0.312 N 
ATOM     27  C   UNL     1      35.185 -23.615 -15.346  0.00  0.00    -0.006 C 
ATOM     28  C   UNL     1      36.194 -24.393 -14.743  0.00  0.00    +0.011 C 
ATOM     29  C   UNL     1      34.115 -23.536 -14.506  0.00  0.00    +0.058 C 
ATOM     30  C   UNL     1      35.695 -24.785 -13.499  0.00  0.00    +0.048 C 
ATOM     31  C   UNL     1      37.486 -24.811 -15.118  0.00  0.00    +0.011 C 
ATOM     32  C   UNL     1      36.428 -25.577 -12.608  0.00  0.00    +0.015 C 
ATOM     33  C   UNL     1      38.230 -25.604 -14.237  0.00  0.00    +0.069 C 
ATOM     34  C   UNL     1      37.707 -25.981 -13.001  0.00  0.00    +0.012 C 
ATOM     35  H   UNL     1      33.842 -24.365 -12.601  0.00  0.00    +0.152 HD
BRANCH  33  37
ATOM     36  N   UNL     1      40.608 -26.378 -14.915  0.00  0.00    -0.191 NA
ATOM     37  C   UNL     1      39.542 -26.032 -14.611  0.00  0.00    +0.100 C 
ENDBRANCH  33  37
ENDBRANCH  25  27
ENDBRANCH  24  25
ENDBRANCH  23  24
ENDBRANCH  22  23
ENDBRANCH   1  22
TORSDOF 8
ENDMDL
MODEL 5
REMARK VINA RESULT:     -11.1      5.138     11.614
REMARK  Name = 6918314
REMARK  8 active torsions:
REMARK  status: ('A' for Active; 'I' for Inactive)
REMARK    1  A    between atoms: N_1  and  C_22
REMARK    2  A    between atoms: N_2  and  C_9
REMARK    3  A    between atoms: C_16  and  C_19
REMARK    4  A    between atoms: C_22  and  C_23
REMARK    5  A    between atoms: C_23  and  C_24
REMARK    6  A    between atoms: C_24  and  C_25
REMARK    7  A    between atoms: C_25  and  C_27
REMARK    8  A    between atoms: C_33  and  C_37
REMARK                            x       y       z     vdW  Elec       q    Type
REMARK                         _______ _______ _______ _____ _____    ______ ____
ROOT
ATOM      1  N   UNL     1      33.465 -11.720 -25.702  0.00  0.00    +0.389 N 
ATOM      2  N   UNL     1      34.047 -14.356 -24.769  0.00  0.00    -0.312 N 
ATOM      3  C   UNL     1      33.730 -12.803 -26.656  0.00  0.00    -0.055 C 
ATOM      4  C   UNL     1      34.264 -11.918 -24.487  0.00  0.00    -0.055 C 
ATOM      5  C   UNL     1      33.369 -14.164 -26.057  0.00  0.00    +0.068 C 
ATOM      6  C   UNL     1      33.922 -13.250 -23.815  0.00  0.00    +0.068 C 
ATOM      7  H   UNL     1      32.476 -11.736 -25.451  0.00  0.00    -0.080 HD
ENDROOT
BRANCH   2   9
ATOM      8  O   UNL     1      34.737 -19.466 -22.781  0.00  0.00    -0.449 OA
ATOM      9  C   UNL     1      34.208 -15.665 -24.298  0.00  0.00    +0.048 C 
ATOM     10  C   UNL     1      34.735 -15.904 -23.005  0.00  0.00    +0.018 C 
ATOM     11  C   UNL     1      33.850 -16.768 -25.104  0.00  0.00    +0.018 C 
ATOM     12  C   UNL     1      34.890 -17.224 -22.547  0.00  0.00    +0.039 C 
ATOM     13  C   UNL     1      34.517 -18.267 -23.389  0.00  0.00    +0.146 C 
ATOM     14  C   UNL     1      33.995 -18.090 -24.669  0.00  0.00    +0.039 C 
ATOM     15  C   UNL     1      35.363 -17.838 -21.358  0.00  0.00    +0.045 C 
ATOM     16  C   UNL     1      35.249 -19.195 -21.551  0.00  0.00    +0.198 C 
BRANCH  16  19
ATOM     17  O   UNL     1      34.811 -21.275 -20.487  0.00  0.00    -0.267 OA
ATOM     18  N   UNL     1      36.809 -20.291 -20.047  0.00  0.00    -0.323 N 
ATOM     19  C   UNL     1      35.569 -20.296 -20.707  0.00  0.00    +0.277 C 
ATOM     20  H   UNL     1      37.055 -21.040 -19.457  0.00  0.00    +0.145 HD
ATOM     21  H   UNL     1      37.431 -19.539 -20.175  0.00  0.00    +0.145 HD
ENDBRANCH  16  19
ENDBRANCH   2   9
BRANCH   1  22
ATOM     22  C   UNL     1      33.762 -10.421 -26.305  0.00  0.00    -0.077 C 
BRANCH  22  23
ATOM     23  C   UNL     1      34.486  -9.524 -25.303  0.00  0.00    -0.022 C 
BRANCH  23  24
ATOM     24  C   UNL     1      33.647  -8.291 -24.959  0.00  0.00    +0.003 C 
BRANCH  24  25
ATOM     25  C   UNL     1      32.229  -8.682 -24.533  0.00  0.00    +0.028 C 
BRANCH  25  27
ATOM     26  N   UNL     1      31.612  -7.317 -21.203  0.00  0.00    -0.312 N 
ATOM     27  C   UNL     1      31.970  -8.397 -23.084  0.00  0.00    -0.006 C 
ATOM     28  C   UNL     1      31.825  -9.363 -22.067  0.00  0.00    +0.011 C 
ATOM     29  C   UNL     1      31.838  -7.153 -22.543  0.00  0.00    +0.058 C 
ATOM     30  C   UNL     1      31.598  -8.657 -20.884  0.00  0.00    +0.048 C 
ATOM     31  C   UNL     1      31.860 -10.771 -22.020  0.00  0.00    +0.011 C 
ATOM     32  C   UNL     1      31.406  -9.290 -19.651  0.00  0.00    +0.015 C 
ATOM     33  C   UNL     1      31.668 -11.418 -20.794  0.00  0.00    +0.069 C 
ATOM     34  C   UNL     1      31.444 -10.687 -19.629  0.00  0.00    +0.012 C 
ATOM     35  H   UNL     1      31.478  -6.584 -20.560  0.00  0.00    +0.152 HD
BRANCH  33  37
ATOM     36  N   UNL     1      31.733 -14.006 -20.693  0.00  0.00    -0.191 NA
ATOM     37  C   UNL     1      31.704 -12.847 -20.738  0.00  0.00    +0.100 C 
ENDBRANCH  33  37
ENDBRANCH  25  27
ENDBRANCH  24  25
ENDBRANCH  23  24
ENDBRANCH  22  23
ENDBRANCH   1  22
TORSDOF 8
ENDMDL
MODEL 6
REMARK VINA RESULT:     -11.0      3.134      5.852
REMARK  Name = 6918314
REMARK  8 active torsions:
REMARK  status: ('A' for Active; 'I' for Inactive)
REMARK    1  A    between atoms: N_1  and  C_22
REMARK    2  A    between atoms: N_2  and  C_9
REMARK    3  A    between atoms: C_16  and  C_19
REMARK    4  A    between atoms: C_22  and  C_23
REMARK    5  A    between atoms: C_23  and  C_24
REMARK    6  A    between atoms: C_24  and  C_25
REMARK    7  A    between atoms: C_25  and  C_27
REMARK    8  A    between atoms: C_33  and  C_37
REMARK                            x       y       z     vdW  Elec       q    Type
REMARK                         _______ _______ _______ _____ _____    ______ ____
ROOT
ATOM      1  N   UNL     1      34.591 -17.160 -23.434  0.00  0.00    +0.389 N 
ATOM      2  N   UNL     1      34.138 -14.383 -23.921  0.00  0.00    -0.312 N 
ATOM      3  C   UNL     1      35.001 -16.157 -22.445  0.00  0.00    -0.055 C 
ATOM      4  C   UNL     1      34.728 -16.612 -24.788  0.00  0.00    -0.055 C 
ATOM      5  C   UNL     1      34.136 -14.899 -22.547  0.00  0.00    +0.068 C 
ATOM      6  C   UNL     1      33.855 -15.369 -24.969  0.00  0.00    +0.068 C 
ATOM      7  H   UNL     1      33.612 -17.400 -23.274  0.00  0.00    -0.080 HD
ENDROOT
BRANCH   2   9
ATOM      8  O   UNL     1      32.720  -9.082 -24.573  0.00  0.00    -0.449 OA
ATOM      9  C   UNL     1      33.798 -13.040 -24.120  0.00  0.00    +0.048 C 
ATOM     10  C   UNL     1      33.019 -12.346 -23.162  0.00  0.00    +0.018 C 
ATOM     11  C   UNL     1      34.223 -12.354 -25.279  0.00  0.00    +0.018 C 
ATOM     12  C   UNL     1      32.685 -10.997 -23.376  0.00  0.00    +0.039 C 
ATOM     13  C   UNL     1      33.136 -10.379 -24.538  0.00  0.00    +0.146 C 
ATOM     14  C   UNL     1      33.904 -11.012 -25.513  0.00  0.00    +0.039 C 
ATOM     15  C   UNL     1      31.952 -10.008 -22.671  0.00  0.00    +0.045 C 
ATOM     16  C   UNL     1      32.003  -8.867 -23.439  0.00  0.00    +0.198 C 
BRANCH  16  19
ATOM     17  O   UNL     1      30.992  -7.150 -22.144  0.00  0.00    -0.267 OA
ATOM     18  N   UNL     1      31.386  -6.696 -24.332  0.00  0.00    -0.323 N 
ATOM     19  C   UNL     1      31.450  -7.571 -23.236  0.00  0.00    +0.277 C 
ATOM     20  H   UNL     1      31.008  -5.793 -24.220  0.00  0.00    +0.145 HD
ATOM     21  H   UNL     1      31.718  -6.984 -25.213  0.00  0.00    +0.145 HD
ENDBRANCH  16  19
ENDBRANCH   2   9
BRANCH   1  22
ATOM     22  C   UNL     1      35.387 -18.379 -23.290  0.00  0.00    -0.077 C 
BRANCH  22  23
ATOM     23  C   UNL     1      35.603 -18.701 -21.812  0.00  0.00    -0.022 C 
BRANCH  23  24
ATOM     24  C   UNL     1      34.598 -19.744 -21.321  0.00  0.00    +0.003 C 
BRANCH  24  25
ATOM     25  C   UNL     1      35.288 -20.849 -20.517  0.00  0.00    +0.028 C 
BRANCH  25  27
ATOM     26  N   UNL     1      32.482 -22.530 -18.895  0.00  0.00    -0.312 N 
ATOM     27  C   UNL     1      34.329 -21.606 -19.648  0.00  0.00    -0.006 C 
ATOM     28  C   UNL     1      34.643 -22.236 -18.426  0.00  0.00    +0.011 C 
ATOM     29  C   UNL     1      33.007 -21.794 -19.923  0.00  0.00    +0.058 C 
ATOM     30  C   UNL     1      33.458 -22.815 -17.967  0.00  0.00    +0.048 C 
ATOM     31  C   UNL     1      35.813 -22.380 -17.653  0.00  0.00    +0.011 C 
ATOM     32  C   UNL     1      33.384 -23.532 -16.768  0.00  0.00    +0.015 C 
ATOM     33  C   UNL     1      35.753 -23.095 -16.452  0.00  0.00    +0.069 C 
ATOM     34  C   UNL     1      34.557 -23.662 -16.017  0.00  0.00    +0.012 C 
ATOM     35  H   UNL     1      31.542 -22.815 -18.828  0.00  0.00    +0.152 HD
BRANCH  33  37
ATOM     36  N   UNL     1      37.896 -23.364 -15.020  0.00  0.00    -0.191 NA
ATOM     37  C   UNL     1      36.936 -23.244 -15.662  0.00  0.00    +0.100 C 
ENDBRANCH  33  37
ENDBRANCH  25  27
ENDBRANCH  24  25
ENDBRANCH  23  24
ENDBRANCH  22  23
ENDBRANCH   1  22
TORSDOF 8
ENDMDL
MODEL 7
REMARK VINA RESULT:     -11.0      4.399     11.260
REMARK  Name = 6918314
REMARK  8 active torsions:
REMARK  status: ('A' for Active; 'I' for Inactive)
REMARK    1  A    between atoms: N_1  and  C_22
REMARK    2  A    between atoms: N_2  and  C_9
REMARK    3  A    between atoms: C_16  and  C_19
REMARK    4  A    between atoms: C_22  and  C_23
REMARK    5  A    between atoms: C_23  and  C_24
REMARK    6  A    between atoms: C_24  and  C_25
REMARK    7  A    between atoms: C_25  and  C_27
REMARK    8  A    between atoms: C_33  and  C_37
REMARK                            x       y       z     vdW  Elec       q    Type
REMARK                         _______ _______ _______ _____ _____    ______ ____
ROOT
ATOM      1  N   UNL     1      35.079 -17.341 -24.213  0.00  0.00    +0.389 N 
ATOM      2  N   UNL     1      34.850 -19.211 -22.067  0.00  0.00    -0.312 N 
ATOM      3  C   UNL     1      35.020 -16.872 -22.824  0.00  0.00    -0.055 C 
ATOM      4  C   UNL     1      34.265 -18.551 -24.367  0.00  0.00    -0.055 C 
ATOM      5  C   UNL     1      35.550 -17.937 -21.862  0.00  0.00    +0.068 C 
ATOM      6  C   UNL     1      34.768 -19.673 -23.456  0.00  0.00    +0.068 C 
ATOM      7  H   UNL     1      36.047 -17.564 -24.445  0.00  0.00    -0.080 HD
ENDROOT
BRANCH   2   9
ATOM      8  O   UNL     1      34.749 -22.894 -17.948  0.00  0.00    -0.449 OA
ATOM      9  C   UNL     1      34.863 -20.144 -21.024  0.00  0.00    +0.048 C 
ATOM     10  C   UNL     1      33.649 -20.614 -20.465  0.00  0.00    +0.018 C 
ATOM     11  C   UNL     1      36.085 -20.633 -20.511  0.00  0.00    +0.018 C 
ATOM     12  C   UNL     1      33.679 -21.551 -19.417  0.00  0.00    +0.039 C 
ATOM     13  C   UNL     1      34.916 -21.994 -18.958  0.00  0.00    +0.146 C 
ATOM     14  C   UNL     1      36.139 -21.566 -19.470  0.00  0.00    +0.039 C 
ATOM     15  C   UNL     1      32.711 -22.230 -18.633  0.00  0.00    +0.045 C 
ATOM     16  C   UNL     1      33.410 -23.030 -17.759  0.00  0.00    +0.198 C 
BRANCH  16  19
ATOM     17  O   UNL     1      31.768 -24.229 -16.528  0.00  0.00    -0.267 OA
ATOM     18  N   UNL     1      33.932 -24.505 -15.903  0.00  0.00    -0.323 N 
ATOM     19  C   UNL     1      32.969 -23.926 -16.745  0.00  0.00    +0.277 C 
ATOM     20  H   UNL     1      33.655 -25.128 -15.193  0.00  0.00    +0.145 HD
ATOM     21  H   UNL     1      34.885 -24.288 -16.022  0.00  0.00    +0.145 HD
ENDBRANCH  16  19
ENDBRANCH   2   9
BRANCH   1  22
ATOM     22  C   UNL     1      34.621 -16.295 -25.128  0.00  0.00    -0.077 C 
BRANCH  22  23
ATOM     23  C   UNL     1      34.546 -14.952 -24.403  0.00  0.00    -0.022 C 
BRANCH  23  24
ATOM     24  C   UNL     1      33.119 -14.400 -24.408  0.00  0.00    +0.003 C 
BRANCH  24  25
ATOM     25  C   UNL     1      33.093 -12.916 -24.031  0.00  0.00    +0.028 C 
BRANCH  25  27
ATOM     26  N   UNL     1      31.795 -13.043 -20.621  0.00  0.00    -0.312 N 
ATOM     27  C   UNL     1      32.523 -12.685 -22.664  0.00  0.00    -0.006 C 
ATOM     28  C   UNL     1      32.104 -11.442 -22.144  0.00  0.00    +0.011 C 
ATOM     29  C   UNL     1      32.329 -13.653 -21.724  0.00  0.00    +0.058 C 
ATOM     30  C   UNL     1      31.647 -11.693 -20.849  0.00  0.00    +0.048 C 
ATOM     31  C   UNL     1      32.064 -10.122 -22.634  0.00  0.00    +0.011 C 
ATOM     32  C   UNL     1      31.147 -10.685 -20.017  0.00  0.00    +0.015 C 
ATOM     33  C   UNL     1      31.567  -9.104 -21.812  0.00  0.00    +0.069 C 
ATOM     34  C   UNL     1      31.117  -9.383 -20.524  0.00  0.00    +0.012 C 
ATOM     35  H   UNL     1      31.551 -13.503 -19.785  0.00  0.00    +0.152 HD
BRANCH  33  37
ATOM     36  N   UNL     1      31.485  -6.672 -22.703  0.00  0.00    -0.191 NA
ATOM     37  C   UNL     1      31.522  -7.761 -22.304  0.00  0.00    +0.100 C 
ENDBRANCH  33  37
ENDBRANCH  25  27
ENDBRANCH  24  25
ENDBRANCH  23  24
ENDBRANCH  22  23
ENDBRANCH   1  22
TORSDOF 8
ENDMDL
MODEL 8
REMARK VINA RESULT:     -10.8      4.484     11.728
REMARK  Name = 6918314
REMARK  8 active torsions:
REMARK  status: ('A' for Active; 'I' for Inactive)
REMARK    1  A    between atoms: N_1  and  C_22
REMARK    2  A    between atoms: N_2  and  C_9
REMARK    3  A    between atoms: C_16  and  C_19
REMARK    4  A    between atoms: C_22  and  C_23
REMARK    5  A    between atoms: C_23  and  C_24
REMARK    6  A    between atoms: C_24  and  C_25
REMARK    7  A    between atoms: C_25  and  C_27
REMARK    8  A    between atoms: C_33  and  C_37
REMARK                            x       y       z     vdW  Elec       q    Type
REMARK                         _______ _______ _______ _____ _____    ______ ____
ROOT
ATOM      1  N   UNL     1      34.710 -18.185 -23.416  0.00  0.00    +0.389 N 
ATOM      2  N   UNL     1      35.005 -20.043 -21.267  0.00  0.00    -0.312 N 
ATOM      3  C   UNL     1      33.815 -19.343 -23.307  0.00  0.00    -0.055 C 
ATOM      4  C   UNL     1      36.044 -18.537 -22.916  0.00  0.00    -0.055 C 
ATOM      5  C   UNL     1      33.682 -19.801 -21.853  0.00  0.00    +0.068 C 
ATOM      6  C   UNL     1      35.987 -18.969 -21.450  0.00  0.00    +0.068 C 
ATOM      7  H   UNL     1      34.336 -17.425 -22.847  0.00  0.00    -0.080 HD
ENDROOT
BRANCH   2   9
ATOM      8  O   UNL     1      35.460 -23.266 -16.801  0.00  0.00    -0.449 OA
ATOM      9  C   UNL     1      35.085 -20.872 -20.142  0.00  0.00    +0.048 C 
ATOM     10  C   UNL     1      36.263 -20.907 -19.356  0.00  0.00    +0.018 C 
ATOM     11  C   UNL     1      33.993 -21.689 -19.771  0.00  0.00    +0.018 C 
ATOM     12  C   UNL     1      36.327 -21.745 -18.229  0.00  0.00    +0.039 C 
ATOM     13  C   UNL     1      35.217 -22.524 -17.918  0.00  0.00    +0.146 C 
ATOM     14  C   UNL     1      34.034 -22.530 -18.654  0.00  0.00    +0.039 C 
ATOM     15  C   UNL     1      37.297 -22.040 -17.236  0.00  0.00    +0.045 C 
ATOM     16  C   UNL     1      36.723 -22.966 -16.396  0.00  0.00    +0.198 C 
BRANCH  16  19
ATOM     17  O   UNL     1      37.365 -23.075 -14.110  0.00  0.00    -0.267 OA
ATOM     18  N   UNL     1      37.607 -24.966 -15.342  0.00  0.00    -0.323 N 
ATOM     19  C   UNL     1      37.222 -23.620 -15.234  0.00  0.00    +0.277 C 
ATOM     20  H   UNL     1      37.956 -25.442 -14.554  0.00  0.00    +0.145 HD
ATOM     21  H   UNL     1      37.529 -25.433 -16.204  0.00  0.00    +0.145 HD
ENDBRANCH  16  19
ENDBRANCH   2   9
BRANCH   1  22
ATOM     22  C   UNL     1      34.786 -17.723 -24.801  0.00  0.00    -0.077 C 
BRANCH  22  23
ATOM     23  C   UNL     1      34.946 -16.204 -24.846  0.00  0.00    -0.022 C 
BRANCH  23  24
ATOM     24  C   UNL     1      33.766 -15.504 -24.169  0.00  0.00    +0.003 C 
BRANCH  24  25
ATOM     25  C   UNL     1      34.212 -14.754 -22.910  0.00  0.00    +0.028 C 
BRANCH  25  27
ATOM     26  N   UNL     1      31.845 -12.243 -21.715  0.00  0.00    -0.312 N 
ATOM     27  C   UNL     1      33.353 -13.558 -22.626  0.00  0.00    -0.006 C 
ATOM     28  C   UNL     1      33.398 -12.328 -23.315  0.00  0.00    +0.011 C 
ATOM     29  C   UNL     1      32.402 -13.492 -21.652  0.00  0.00    +0.058 C 
ATOM     30  C   UNL     1      32.435 -11.510 -22.721  0.00  0.00    +0.048 C 
ATOM     31  C   UNL     1      34.156 -11.815 -24.386  0.00  0.00    +0.011 C 
ATOM     32  C   UNL     1      32.190 -10.200 -23.147  0.00  0.00    +0.015 C 
ATOM     33  C   UNL     1      33.923 -10.506 -24.822  0.00  0.00    +0.069 C 
ATOM     34  C   UNL     1      32.955  -9.712 -24.211  0.00  0.00    +0.012 C 
ATOM     35  H   UNL     1      31.128 -11.915 -21.126  0.00  0.00    +0.152 HD
BRANCH  33  37
ATOM     36  N   UNL     1      35.309  -9.552 -26.793  0.00  0.00    -0.191 NA
ATOM     37  C   UNL     1      34.689  -9.979 -25.910  0.00  0.00    +0.100 C 
ENDBRANCH  33  37
ENDBRANCH  25  27
ENDBRANCH  24  25
ENDBRANCH  23  24
ENDBRANCH  22  23
ENDBRANCH   1  22
TORSDOF 8
ENDMDL
MODEL 9
REMARK VINA RESULT:     -10.8      4.385     12.390
REMARK  Name = 6918314
REMARK  8 active torsions:
REMARK  status: ('A' for Active; 'I' for Inactive)
REMARK    1  A    between atoms: N_1  and  C_22
REMARK    2  A    between atoms: N_2  and  C_9
REMARK    3  A    between atoms: C_16  and  C_19
REMARK    4  A    between atoms: C_22  and  C_23
REMARK    5  A    between atoms: C_23  and  C_24
REMARK    6  A    between atoms: C_24  and  C_25
REMARK    7  A    between atoms: C_25  and  C_27
REMARK    8  A    between atoms: C_33  and  C_37
REMARK                            x       y       z     vdW  Elec       q    Type
REMARK                         _______ _______ _______ _____ _____    ______ ____
ROOT
ATOM      1  N   UNL     1      34.356 -15.540 -24.743  0.00  0.00    +0.389 N 
ATOM      2  N   UNL     1      34.555 -17.716 -22.905  0.00  0.00    -0.312 N 
ATOM      3  C   UNL     1      34.217 -15.308 -23.301  0.00  0.00    -0.055 C 
ATOM      4  C   UNL     1      33.814 -16.858 -25.092  0.00  0.00    -0.055 C 
ATOM      5  C   UNL     1      34.972 -16.369 -22.498  0.00  0.00    +0.068 C 
ATOM      6  C   UNL     1      34.555 -17.972 -24.349  0.00  0.00    +0.068 C 
ATOM      7  H   UNL     1      35.347 -15.517 -24.987  0.00  0.00    -0.080 HD
ENDROOT
BRANCH   2   9
ATOM      8  O   UNL     1      35.286 -21.904 -19.373  0.00  0.00    -0.449 OA
ATOM      9  C   UNL     1      34.779 -18.772 -22.012  0.00  0.00    +0.048 C 
ATOM     10  C   UNL     1      33.689 -19.495 -21.467  0.00  0.00    +0.018 C 
ATOM     11  C   UNL     1      36.092 -19.133 -21.639  0.00  0.00    +0.018 C 
ATOM     12  C   UNL     1      33.930 -20.552 -20.572  0.00  0.00    +0.039 C 
ATOM     13  C   UNL     1      35.247 -20.858 -20.246  0.00  0.00    +0.146 C 
ATOM     14  C   UNL     1      36.356 -20.181 -20.752  0.00  0.00    +0.039 C 
ATOM     15  C   UNL     1      33.129 -21.473 -19.848  0.00  0.00    +0.045 C 
ATOM     16  C   UNL     1      33.998 -22.268 -19.138  0.00  0.00    +0.198 C 
BRANCH  16  19
ATOM     17  O   UNL     1      33.406 -24.505 -18.596  0.00  0.00    -0.267 OA
ATOM     18  N   UNL     1      33.925 -23.128 -16.869  0.00  0.00    -0.323 N 
ATOM     19  C   UNL     1      33.766 -23.353 -18.246  0.00  0.00    +0.277 C 
ATOM     20  H   UNL     1      33.771 -23.861 -16.229  0.00  0.00    +0.145 HD
ATOM     21  H   UNL     1      34.191 -22.238 -16.543  0.00  0.00    +0.145 HD
ENDBRANCH  16  19
ENDBRANCH   2   9
BRANCH   1  22
ATOM     22  C   UNL     1      33.676 -14.489 -25.500  0.00  0.00    -0.077 C 
BRANCH  22  23
ATOM     23  C   UNL     1      33.718 -13.170 -24.731  0.00  0.00    -0.022 C 
BRANCH  23  24
ATOM     24  C   UNL     1      33.761 -11.975 -25.685  0.00  0.00    +0.003 C 
BRANCH  24  25
ATOM     25  C   UNL     1      34.351 -10.737 -25.003  0.00  0.00    +0.028 C 
BRANCH  25  27
ATOM     26  N   UNL     1      32.116  -7.913 -25.604  0.00  0.00    -0.312 N 
ATOM     27  C   UNL     1      33.385  -9.591 -24.967  0.00  0.00    -0.006 C 
ATOM     28  C   UNL     1      32.729  -9.102 -23.818  0.00  0.00    +0.011 C 
ATOM     29  C   UNL     1      33.002  -8.857 -26.049  0.00  0.00    +0.058 C 
ATOM     30  C   UNL     1      31.930  -8.039 -24.245  0.00  0.00    +0.048 C 
ATOM     31  C   UNL     1      32.724  -9.448 -22.452  0.00  0.00    +0.011 C 
ATOM     32  C   UNL     1      31.125  -7.301 -23.371  0.00  0.00    +0.015 C 
ATOM     33  C   UNL     1      31.923  -8.719 -21.566  0.00  0.00    +0.069 C 
ATOM     34  C   UNL     1      31.136  -7.662 -22.020  0.00  0.00    +0.012 C 
ATOM     35  H   UNL     1      31.675  -7.240 -26.172  0.00  0.00    +0.152 HD
BRANCH  33  37
ATOM     36  N   UNL     1      31.907  -9.343 -19.051  0.00  0.00    -0.191 NA
ATOM     37  C   UNL     1      31.915  -9.063 -20.178  0.00  0.00    +0.100 C 
ENDBRANCH  33  37
ENDBRANCH  25  27
ENDBRANCH  24  25
ENDBRANCH  23  24
ENDBRANCH  22  23
ENDBRANCH   1  22
TORSDOF 8
ENDMDL
