MODEL 1
REMARK VINA RESULT:     -11.7      0.000      0.000
REMARK  Name = 1712
REMARK  5 active torsions:
REMARK  status: ('A' for Active; 'I' for Inactive)
REMARK    1  A    between atoms: C_1  and  N_18
REMARK    2  A    between atoms: C_2  and  S_7
REMARK    3  A    between atoms: S_7  and  N_10
REMARK    4  A    between atoms: N_18  and  C_20
REMARK    5  A    between atoms: C_20  and  C_26
REMARK                            x       y       z     vdW  Elec       q    Type
REMARK                         _______ _______ _______ _____ _____    ______ ____
ROOT
ATOM      1  C   UNL     1      34.113 -14.196 -23.978  0.00  0.00    +0.045 C 
ATOM      2  C   UNL     1      34.783 -16.841 -23.293  0.00  0.00    +0.125 C 
ATOM      3  C   UNL     1      34.153 -15.206 -24.956  0.00  0.00    +0.016 C 
ATOM      4  C   UNL     1      34.418 -14.541 -22.649  0.00  0.00    +0.016 C 
ATOM      5  C   UNL     1      34.485 -16.518 -24.617  0.00  0.00    +0.021 C 
ATOM      6  C   UNL     1      34.750 -15.853 -22.309  0.00  0.00    +0.021 C 
ENDROOT
BRANCH   2   7
ATOM      7  S   UNL     1      35.199 -18.482 -22.868  0.00  0.00    +0.075 S 
ATOM      8  O   UNL     1      36.653 -18.566 -22.785  0.00  0.00    -0.150 OA
ATOM      9  O   UNL     1      34.494 -19.390 -23.765  0.00  0.00    -0.150 OA
BRANCH   7  10
ATOM     10  N   UNL     1      34.563 -18.637 -21.274  0.00  0.00    -0.199 N 
ATOM     11  H   UNL     1      34.256 -17.848 -20.773  0.00  0.00    +0.175 HD
ATOM     12  N   UNL     1      35.679 -20.536 -20.429  0.00  0.00    -0.228 NA
ATOM     13  C   UNL     1      34.495 -19.954 -20.698  0.00  0.00    +0.147 C 
ATOM     14  C   UNL     1      33.261 -20.528 -20.462  0.00  0.00    +0.036 C 
ATOM     15  C   UNL     1      33.242 -21.801 -19.904  0.00  0.00    +0.005 C 
ATOM     16  C   UNL     1      35.621 -21.774 -19.888  0.00  0.00    +0.100 C 
ATOM     17  C   UNL     1      34.440 -22.443 -19.608  0.00  0.00    +0.021 C 
ENDBRANCH   7  10
ENDBRANCH   2   7
BRANCH   1  18
ATOM     18  N   UNL     1      33.782 -12.892 -24.316  0.00  0.00    -0.328 N 
ATOM     19  H   UNL     1      34.386 -12.401 -24.919  0.00  0.00    +0.147 HD
BRANCH  18  20
ATOM     20  C   UNL     1      32.606 -12.212 -23.833  0.00  0.00    +0.127 C 
BRANCH  20  26
ATOM     21  S   UNL     1      31.349 -11.182 -20.612  0.00  0.00    -0.104 S 
ATOM     22  O   UNL     1      33.954 -10.533 -25.834  0.00  0.00    -0.210 OA
ATOM     23  N   UNL     1      33.741  -8.701 -24.411  0.00  0.00    -0.333 NA
ATOM     24  N   UNL     1      31.380  -8.860 -19.455  0.00  0.00    -0.262 NA
ATOM     25  C   UNL     1      32.664  -9.875 -22.728  0.00  0.00    +0.033 C 
ATOM     26  C   UNL     1      32.895 -10.765 -23.690  0.00  0.00    +0.092 C 
ATOM     27  C   UNL     1      33.214  -8.607 -23.235  0.00  0.00    +0.142 C 
ATOM     28  C   UNL     1      32.065  -9.892 -21.459  0.00  0.00    +0.114 C 
ATOM     29  C   UNL     1      33.590 -10.021 -24.784  0.00  0.00    +0.202 C 
ATOM     30  C   UNL     1      31.983  -8.748 -20.682  0.00  0.00    +0.069 C 
ATOM     31  C   UNL     1      33.106  -7.402 -22.369  0.00  0.00    +0.034 C 
ATOM     32  C   UNL     1      32.513  -7.509 -21.163  0.00  0.00    +0.018 C 
ATOM     33  C   UNL     1      31.001 -10.112 -19.308  0.00  0.00    +0.183 C 
ENDBRANCH  20  26
ENDBRANCH  18  20
ENDBRANCH   1  18
TORSDOF 5
ENDMDL
MODEL 2
REMARK VINA RESULT:     -11.6      1.377      2.091
REMARK  Name = 1712
REMARK  5 active torsions:
REMARK  status: ('A' for Active; 'I' for Inactive)
REMARK    1  A    between atoms: C_1  and  N_18
REMARK    2  A    between atoms: C_2  and  S_7
REMARK    3  A    between atoms: S_7  and  N_10
REMARK    4  A    between atoms: N_18  and  C_20
REMARK    5  A    between atoms: C_20  and  C_26
REMARK                            x       y       z     vdW  Elec       q    Type
REMARK                         _______ _______ _______ _____ _____    ______ ____
ROOT
ATOM      1  C   UNL     1      34.139 -14.085 -23.866  0.00  0.00    +0.045 C 
ATOM      2  C   UNL     1      34.744 -16.769 -23.274  0.00  0.00    +0.125 C 
ATOM      3  C   UNL     1      34.369 -14.497 -22.540  0.00  0.00    +0.016 C 
ATOM      4  C   UNL     1      34.218 -15.049 -24.888  0.00  0.00    +0.016 C 
ATOM      5  C   UNL     1      34.669 -15.828 -22.247  0.00  0.00    +0.021 C 
ATOM      6  C   UNL     1      34.518 -16.379 -24.594  0.00  0.00    +0.021 C 
ENDROOT
BRANCH   2   7
ATOM      7  S   UNL     1      35.118 -18.434 -22.907  0.00  0.00    +0.075 S 
ATOM      8  O   UNL     1      36.570 -18.571 -22.890  0.00  0.00    -0.150 OA
ATOM      9  O   UNL     1      34.341 -19.293 -23.792  0.00  0.00    -0.150 OA
BRANCH   7  10
ATOM     10  N   UNL     1      34.546 -18.606 -21.290  0.00  0.00    -0.199 N 
ATOM     11  H   UNL     1      34.260 -17.822 -20.768  0.00  0.00    +0.175 HD
ATOM     12  N   UNL     1      35.692 -20.515 -20.511  0.00  0.00    -0.228 NA
ATOM     13  C   UNL     1      34.499 -19.929 -20.727  0.00  0.00    +0.147 C 
ATOM     14  C   UNL     1      33.275 -20.505 -20.447  0.00  0.00    +0.036 C 
ATOM     15  C   UNL     1      33.277 -21.784 -19.903  0.00  0.00    +0.005 C 
ATOM     16  C   UNL     1      35.654 -21.759 -19.982  0.00  0.00    +0.100 C 
ATOM     17  C   UNL     1      34.485 -22.430 -19.663  0.00  0.00    +0.021 C 
ENDBRANCH   7  10
ENDBRANCH   2   7
BRANCH   1  18
ATOM     18  N   UNL     1      33.842 -12.763 -24.158  0.00  0.00    -0.328 N 
ATOM     19  H   UNL     1      33.836 -12.114 -23.417  0.00  0.00    +0.147 HD
BRANCH  18  20
ATOM     20  C   UNL     1      33.538 -12.283 -25.483  0.00  0.00    +0.127 C 
BRANCH  20  26
ATOM     21  S   UNL     1      32.297 -10.239 -22.781  0.00  0.00    -0.104 S 
ATOM     22  O   UNL     1      35.342 -11.454 -27.653  0.00  0.00    -0.210 OA
ATOM     23  N   UNL     1      35.411  -9.309 -26.749  0.00  0.00    -0.333 NA
ATOM     24  N   UNL     1      32.725  -7.742 -22.223  0.00  0.00    -0.262 NA
ATOM     25  C   UNL     1      33.999  -9.789 -24.976  0.00  0.00    +0.033 C 
ATOM     26  C   UNL     1      34.109 -10.925 -25.660  0.00  0.00    +0.092 C 
ATOM     27  C   UNL     1      34.833  -8.818 -25.703  0.00  0.00    +0.142 C 
ATOM     28  C   UNL     1      33.322  -9.367 -23.822  0.00  0.00    +0.114 C 
ATOM     29  C   UNL     1      35.018 -10.630 -26.809  0.00  0.00    +0.202 C 
ATOM     30  C   UNL     1      33.423  -8.065 -23.358  0.00  0.00    +0.069 C 
ATOM     31  C   UNL     1      34.915  -7.430 -25.173  0.00  0.00    +0.034 C 
ATOM     32  C   UNL     1      34.230  -7.111 -24.057  0.00  0.00    +0.018 C 
ATOM     33  C   UNL     1      32.087  -8.823 -21.825  0.00  0.00    +0.183 C 
ENDBRANCH  20  26
ENDBRANCH  18  20
ENDBRANCH   1  18
TORSDOF 5
ENDMDL
MODEL 3
REMARK VINA RESULT:     -11.5      3.844      6.707
REMARK  Name = 1712
REMARK  5 active torsions:
REMARK  status: ('A' for Active; 'I' for Inactive)
REMARK    1  A    between atoms: C_1  and  N_18
REMARK    2  A    between atoms: C_2  and  S_7
REMARK    3  A    between atoms: S_7  and  N_10
REMARK    4  A    between atoms: N_18  and  C_20
REMARK    5  A    between atoms: C_20  and  C_26
REMARK                            x       y       z     vdW  Elec       q    Type
REMARK                         _______ _______ _______ _____ _____    ______ ____
ROOT
ATOM      1  C   UNL     1      34.986 -20.007 -21.011  0.00  0.00    +0.045 C 
ATOM      2  C   UNL     1      34.078 -22.022 -19.270  0.00  0.00    +0.125 C 
ATOM      3  C   UNL     1      33.610 -20.234 -20.827  0.00  0.00    +0.016 C 
ATOM      4  C   UNL     1      35.897 -20.813 -20.305  0.00  0.00    +0.016 C 
ATOM      5  C   UNL     1      33.160 -21.232 -19.963  0.00  0.00    +0.021 C 
ATOM      6  C   UNL     1      35.446 -21.812 -19.441  0.00  0.00    +0.021 C 
ENDROOT
BRANCH   2   7
ATOM      7  S   UNL     1      33.515 -23.272 -18.191  0.00  0.00    +0.075 S 
ATOM      8  O   UNL     1      34.398 -23.291 -17.031  0.00  0.00    -0.150 OA
ATOM      9  O   UNL     1      33.332 -24.501 -18.955  0.00  0.00    -0.150 OA
BRANCH   7  10
ATOM     10  N   UNL     1      31.979 -22.676 -17.684  0.00  0.00    -0.199 N 
ATOM     11  H   UNL     1      31.500 -21.999 -18.212  0.00  0.00    +0.175 HD
ATOM     12  N   UNL     1      32.074 -22.868 -15.334  0.00  0.00    -0.228 NA
ATOM     13  C   UNL     1      31.420 -23.198 -16.465  0.00  0.00    +0.147 C 
ATOM     14  C   UNL     1      30.284 -23.980 -16.520  0.00  0.00    +0.036 C 
ATOM     15  C   UNL     1      29.778 -24.462 -15.318  0.00  0.00    +0.005 C 
ATOM     16  C   UNL     1      31.553 -23.355 -14.186  0.00  0.00    +0.100 C 
ATOM     17  C   UNL     1      30.419 -24.148 -14.124  0.00  0.00    +0.021 C 
ENDBRANCH   7  10
ENDBRANCH   2   7
BRANCH   1  18
ATOM     18  N   UNL     1      35.434 -19.013 -21.869  0.00  0.00    -0.328 N 
ATOM     19  H   UNL     1      36.004 -19.276 -22.628  0.00  0.00    +0.147 HD
BRANCH  18  20
ATOM     20  C   UNL     1      35.116 -17.615 -21.712  0.00  0.00    +0.127 C 
BRANCH  20  26
ATOM     21  S   UNL     1      33.634 -14.381 -21.110  0.00  0.00    -0.104 S 
ATOM     22  O   UNL     1      35.572 -18.903 -24.316  0.00  0.00    -0.210 OA
ATOM     23  N   UNL     1      34.647 -17.046 -25.374  0.00  0.00    -0.333 NA
ATOM     24  N   UNL     1      32.716 -12.613 -22.772  0.00  0.00    -0.262 NA
ATOM     25  C   UNL     1      34.214 -15.889 -23.414  0.00  0.00    +0.033 C 
ATOM     26  C   UNL     1      34.772 -17.036 -23.033  0.00  0.00    +0.092 C 
ATOM     27  C   UNL     1      34.163 -15.953 -24.884  0.00  0.00    +0.142 C 
ATOM     28  C   UNL     1      33.715 -14.747 -22.770  0.00  0.00    +0.114 C 
ATOM     29  C   UNL     1      35.056 -17.795 -24.289  0.00  0.00    +0.202 C 
ATOM     30  C   UNL     1      33.180 -13.687 -23.486  0.00  0.00    +0.069 C 
ATOM     31  C   UNL     1      33.581 -14.795 -25.615  0.00  0.00    +0.034 C 
ATOM     32  C   UNL     1      33.124 -13.738 -24.915  0.00  0.00    +0.018 C 
ATOM     33  C   UNL     1      32.905 -12.869 -21.494  0.00  0.00    +0.183 C 
ENDBRANCH  20  26
ENDBRANCH  18  20
ENDBRANCH   1  18
TORSDOF 5
ENDMDL
MODEL 4
REMARK VINA RESULT:     -11.4      1.915      2.745
REMARK  Name = 1712
REMARK  5 active torsions:
REMARK  status: ('A' for Active; 'I' for Inactive)
REMARK    1  A    between atoms: C_1  and  N_18
REMARK    2  A    between atoms: C_2  and  S_7
REMARK    3  A    between atoms: S_7  and  N_10
REMARK    4  A    between atoms: N_18  and  C_20
REMARK    5  A    between atoms: C_20  and  C_26
REMARK                            x       y       z     vdW  Elec       q    Type
REMARK                         _______ _______ _______ _____ _____    ______ ____
ROOT
ATOM      1  C   UNL     1      33.861 -14.305 -24.204  0.00  0.00    +0.045 C 
ATOM      2  C   UNL     1      34.668 -16.892 -23.447  0.00  0.00    +0.125 C 
ATOM      3  C   UNL     1      33.805 -15.374 -25.117  0.00  0.00    +0.016 C 
ATOM      4  C   UNL     1      34.331 -14.562 -22.903  0.00  0.00    +0.016 C 
ATOM      5  C   UNL     1      34.205 -16.656 -24.741  0.00  0.00    +0.021 C 
ATOM      6  C   UNL     1      34.731 -15.844 -22.528  0.00  0.00    +0.021 C 
ENDROOT
BRANCH   2   7
ATOM      7  S   UNL     1      35.170 -18.497 -22.978  0.00  0.00    +0.075 S 
ATOM      8  O   UNL     1      36.627 -18.510 -22.926  0.00  0.00    -0.150 OA
ATOM      9  O   UNL     1      34.488 -19.466 -23.827  0.00  0.00    -0.150 OA
BRANCH   7  10
ATOM     10  N   UNL     1      34.577 -18.626 -21.365  0.00  0.00    -0.199 N 
ATOM     11  H   UNL     1      34.268 -17.831 -20.874  0.00  0.00    +0.175 HD
ATOM     12  N   UNL     1      35.746 -20.486 -20.506  0.00  0.00    -0.228 NA
ATOM     13  C   UNL     1      34.546 -19.930 -20.758  0.00  0.00    +0.147 C 
ATOM     14  C   UNL     1      33.329 -20.520 -20.478  0.00  0.00    +0.036 C 
ATOM     15  C   UNL     1      33.346 -21.780 -19.891  0.00  0.00    +0.005 C 
ATOM     16  C   UNL     1      35.724 -21.711 -19.936  0.00  0.00    +0.100 C 
ATOM     17  C   UNL     1      34.562 -22.394 -19.611  0.00  0.00    +0.021 C 
ENDBRANCH   7  10
ENDBRANCH   2   7
BRANCH   1  18
ATOM     18  N   UNL     1      33.462 -13.030 -24.576  0.00  0.00    -0.328 N 
ATOM     19  H   UNL     1      32.693 -12.944 -25.184  0.00  0.00    +0.147 HD
BRANCH  18  20
ATOM     20  C   UNL     1      34.111 -11.823 -24.126  0.00  0.00    +0.127 C 
BRANCH  20  26
ATOM     21  S   UNL     1      34.923  -8.500 -25.271  0.00  0.00    -0.104 S 
ATOM     22  O   UNL     1      31.873 -12.605 -22.386  0.00  0.00    -0.210 OA
ATOM     23  N   UNL     1      31.201 -10.378 -22.284  0.00  0.00    -0.333 NA
ATOM     24  N   UNL     1      33.754  -6.229 -24.819  0.00  0.00    -0.262 NA
ATOM     25  C   UNL     1      32.905  -9.588 -23.641  0.00  0.00    +0.033 C 
ATOM     26  C   UNL     1      33.099 -10.902 -23.556  0.00  0.00    +0.092 C 
ATOM     27  C   UNL     1      31.708  -9.321 -22.827  0.00  0.00    +0.142 C 
ATOM     28  C   UNL     1      33.541  -8.513 -24.280  0.00  0.00    +0.114 C 
ATOM     29  C   UNL     1      32.005 -11.426 -22.682  0.00  0.00    +0.202 C 
ATOM     30  C   UNL     1      33.067  -7.216 -24.160  0.00  0.00    +0.069 C 
ATOM     31  C   UNL     1      31.231  -7.915 -22.725  0.00  0.00    +0.034 C 
ATOM     32  C   UNL     1      31.904  -6.943 -23.372  0.00  0.00    +0.018 C 
ATOM     33  C   UNL     1      34.764  -6.794 -25.446  0.00  0.00    +0.183 C 
ENDBRANCH  20  26
ENDBRANCH  18  20
ENDBRANCH   1  18
TORSDOF 5
ENDMDL
MODEL 5
REMARK VINA RESULT:     -11.3      3.733     10.997
REMARK  Name = 1712
REMARK  5 active torsions:
REMARK  status: ('A' for Active; 'I' for Inactive)
REMARK    1  A    between atoms: C_1  and  N_18
REMARK    2  A    between atoms: C_2  and  S_7
REMARK    3  A    between atoms: S_7  and  N_10
REMARK    4  A    between atoms: N_18  and  C_20
REMARK    5  A    between atoms: C_20  and  C_26
REMARK                            x       y       z     vdW  Elec       q    Type
REMARK                         _______ _______ _______ _____ _____    ______ ____
ROOT
ATOM      1  C   UNL     1      35.110 -19.300 -21.265  0.00  0.00    +0.045 C 
ATOM      2  C   UNL     1      34.436 -17.752 -23.516  0.00  0.00    +0.125 C 
ATOM      3  C   UNL     1      35.423 -17.930 -21.318  0.00  0.00    +0.016 C 
ATOM      4  C   UNL     1      34.452 -19.878 -22.367  0.00  0.00    +0.016 C 
ATOM      5  C   UNL     1      35.088 -17.162 -22.434  0.00  0.00    +0.021 C 
ATOM      6  C   UNL     1      34.118 -19.110 -23.482  0.00  0.00    +0.021 C 
ENDROOT
BRANCH   2   7
ATOM      7  S   UNL     1      34.018 -16.793 -24.913  0.00  0.00    +0.075 S 
ATOM      8  O   UNL     1      33.088 -17.569 -25.725  0.00  0.00    -0.150 OA
ATOM      9  O   UNL     1      35.246 -16.302 -25.527  0.00  0.00    -0.150 OA
BRANCH   7  10
ATOM     10  N   UNL     1      33.152 -15.472 -24.224  0.00  0.00    -0.199 N 
ATOM     11  H   UNL     1      32.492 -15.618 -23.508  0.00  0.00    +0.175 HD
ATOM     12  N   UNL     1      33.034 -13.918 -25.995  0.00  0.00    -0.228 NA
ATOM     13  C   UNL     1      33.420 -14.151 -24.726  0.00  0.00    +0.147 C 
ATOM     14  C   UNL     1      34.038 -13.226 -23.907  0.00  0.00    +0.036 C 
ATOM     15  C   UNL     1      34.278 -11.961 -24.434  0.00  0.00    +0.005 C 
ATOM     16  C   UNL     1      33.284 -12.679 -26.473  0.00  0.00    +0.100 C 
ATOM     17  C   UNL     1      33.897 -11.675 -25.740  0.00  0.00    +0.021 C 
ENDBRANCH   7  10
ENDBRANCH   2   7
BRANCH   1  18
ATOM     18  N   UNL     1      35.441 -20.063 -20.156  0.00  0.00    -0.328 N 
ATOM     19  H   UNL     1      35.676 -19.593 -19.323  0.00  0.00    +0.147 HD
BRANCH  18  20
ATOM     20  C   UNL     1      35.464 -21.505 -20.151  0.00  0.00    +0.127 C 
BRANCH  20  26
ATOM     21  S   UNL     1      37.209 -22.413 -17.126  0.00  0.00    -0.104 S 
ATOM     22  O   UNL     1      32.578 -21.716 -20.668  0.00  0.00    -0.210 OA
ATOM     23  N   UNL     1      32.276 -22.573 -18.524  0.00  0.00    -0.333 NA
ATOM     24  N   UNL     1      36.316 -23.388 -14.894  0.00  0.00    -0.262 NA
ATOM     25  C   UNL     1      34.518 -22.477 -17.949  0.00  0.00    +0.033 C 
ATOM     26  C   UNL     1      34.452 -22.012 -19.194  0.00  0.00    +0.092 C 
ATOM     27  C   UNL     1      33.132 -22.810 -17.585  0.00  0.00    +0.142 C 
ATOM     28  C   UNL     1      35.535 -22.693 -17.006  0.00  0.00    +0.114 C 
ATOM     29  C   UNL     1      33.008 -22.069 -19.579  0.00  0.00    +0.202 C 
ATOM     30  C   UNL     1      35.259 -23.210 -15.750  0.00  0.00    +0.069 C 
ATOM     31  C   UNL     1      32.878 -23.362 -16.227  0.00  0.00    +0.034 C 
ATOM     32  C   UNL     1      33.915 -23.538 -15.384  0.00  0.00    +0.018 C 
ATOM     33  C   UNL     1      37.407 -22.998 -15.519  0.00  0.00    +0.183 C 
ENDBRANCH  20  26
ENDBRANCH  18  20
ENDBRANCH   1  18
TORSDOF 5
ENDMDL
MODEL 6
REMARK VINA RESULT:     -10.6      3.716      6.864
REMARK  Name = 1712
REMARK  5 active torsions:
REMARK  status: ('A' for Active; 'I' for Inactive)
REMARK    1  A    between atoms: C_1  and  N_18
REMARK    2  A    between atoms: C_2  and  S_7
REMARK    3  A    between atoms: S_7  and  N_10
REMARK    4  A    between atoms: N_18  and  C_20
REMARK    5  A    between atoms: C_20  and  C_26
REMARK                            x       y       z     vdW  Elec       q    Type
REMARK                         _______ _______ _______ _____ _____    ______ ____
ROOT
ATOM      1  C   UNL     1      34.863 -20.212 -20.946  0.00  0.00    +0.045 C 
ATOM      2  C   UNL     1      33.730 -22.003 -19.095  0.00  0.00    +0.125 C 
ATOM      3  C   UNL     1      33.468 -20.291 -20.780  0.00  0.00    +0.016 C 
ATOM      4  C   UNL     1      35.677 -21.052 -20.164  0.00  0.00    +0.016 C 
ATOM      5  C   UNL     1      32.907 -21.178 -19.862  0.00  0.00    +0.021 C 
ATOM      6  C   UNL     1      35.115 -21.939 -19.246  0.00  0.00    +0.021 C 
ENDROOT
BRANCH   2   7
ATOM      7  S   UNL     1      33.027 -23.114 -17.947  0.00  0.00    +0.075 S 
ATOM      8  O   UNL     1      33.581 -24.437 -18.211  0.00  0.00    -0.150 OA
ATOM      9  O   UNL     1      31.579 -22.943 -17.959  0.00  0.00    -0.150 OA
BRANCH   7  10
ATOM     10  N   UNL     1      33.660 -22.560 -16.443  0.00  0.00    -0.199 N 
ATOM     11  H   UNL     1      33.485 -21.645 -16.126  0.00  0.00    +0.175 HD
ATOM     12  N   UNL     1      35.640 -23.818 -16.193  0.00  0.00    -0.228 NA
ATOM     13  C   UNL     1      34.450 -23.476 -15.664  0.00  0.00    +0.147 C 
ATOM     14  C   UNL     1      33.962 -23.938 -14.457  0.00  0.00    +0.036 C 
ATOM     15  C   UNL     1      34.759 -24.820 -13.737  0.00  0.00    +0.005 C 
ATOM     16  C   UNL     1      36.387 -24.678 -15.466  0.00  0.00    +0.100 C 
ATOM     17  C   UNL     1      35.997 -25.202 -14.245  0.00  0.00    +0.021 C 
ENDBRANCH   7  10
ENDBRANCH   2   7
BRANCH   1  18
ATOM     18  N   UNL     1      35.422 -19.329 -21.857  0.00  0.00    -0.328 N 
ATOM     19  H   UNL     1      35.934 -19.702 -22.611  0.00  0.00    +0.147 HD
BRANCH  18  20
ATOM     20  C   UNL     1      35.299 -17.895 -21.765  0.00  0.00    +0.127 C 
BRANCH  20  26
ATOM     21  S   UNL     1      34.034 -14.568 -21.175  0.00  0.00    -0.104 S 
ATOM     22  O   UNL     1      35.455 -19.305 -24.340  0.00  0.00    -0.210 OA
ATOM     23  N   UNL     1      34.529 -17.446 -25.392  0.00  0.00    -0.333 NA
ATOM     24  N   UNL     1      33.056 -12.821 -22.823  0.00  0.00    -0.262 NA
ATOM     25  C   UNL     1      34.331 -16.193 -23.453  0.00  0.00    +0.033 C 
ATOM     26  C   UNL     1      34.865 -17.351 -23.074  0.00  0.00    +0.092 C 
ATOM     27  C   UNL     1      34.144 -16.311 -24.908  0.00  0.00    +0.142 C 
ATOM     28  C   UNL     1      33.948 -15.002 -22.818  0.00  0.00    +0.114 C 
ATOM     29  C   UNL     1      34.998 -18.171 -24.316  0.00  0.00    +0.202 C 
ATOM     30  C   UNL     1      33.401 -13.945 -23.528  0.00  0.00    +0.069 C 
ATOM     31  C   UNL     1      33.555 -15.154 -25.635  0.00  0.00    +0.034 C 
ATOM     32  C   UNL     1      33.214 -14.047 -24.944  0.00  0.00    +0.018 C 
ATOM     33  C   UNL     1      33.347 -13.037 -21.558  0.00  0.00    +0.183 C 
ENDBRANCH  20  26
ENDBRANCH  18  20
ENDBRANCH   1  18
TORSDOF 5
ENDMDL
MODEL 7
REMARK VINA RESULT:     -10.5      3.715     10.923
REMARK  Name = 1712
REMARK  5 active torsions:
REMARK  status: ('A' for Active; 'I' for Inactive)
REMARK    1  A    between atoms: C_1  and  N_18
REMARK    2  A    between atoms: C_2  and  S_7
REMARK    3  A    between atoms: S_7  and  N_10
REMARK    4  A    between atoms: N_18  and  C_20
REMARK    5  A    between atoms: C_20  and  C_26
REMARK                            x       y       z     vdW  Elec       q    Type
REMARK                         _______ _______ _______ _____ _____    ______ ____
ROOT
ATOM      1  C   UNL     1      35.363 -19.857 -20.882  0.00  0.00    +0.045 C 
ATOM      2  C   UNL     1      34.818 -18.324 -23.177  0.00  0.00    +0.125 C 
ATOM      3  C   UNL     1      36.339 -19.002 -21.426  0.00  0.00    +0.016 C 
ATOM      4  C   UNL     1      34.109 -19.927 -21.514  0.00  0.00    +0.016 C 
ATOM      5  C   UNL     1      36.068 -18.242 -22.564  0.00  0.00    +0.021 C 
ATOM      6  C   UNL     1      33.838 -19.167 -22.652  0.00  0.00    +0.021 C 
ENDROOT
BRANCH   2   7
ATOM      7  S   UNL     1      34.480 -17.374 -24.602  0.00  0.00    +0.075 S 
ATOM      8  O   UNL     1      33.037 -17.171 -24.670  0.00  0.00    -0.150 OA
ATOM      9  O   UNL     1      35.158 -17.982 -25.740  0.00  0.00    -0.150 OA
BRANCH   7  10
ATOM     10  N   UNL     1      35.216 -15.860 -24.234  0.00  0.00    -0.199 N 
ATOM     11  H   UNL     1      36.144 -15.670 -24.501  0.00  0.00    +0.175 HD
ATOM     12  N   UNL     1      34.122 -15.193 -22.254  0.00  0.00    -0.228 NA
ATOM     13  C   UNL     1      34.434 -14.882 -23.527  0.00  0.00    +0.147 C 
ATOM     14  C   UNL     1      34.059 -13.718 -24.169  0.00  0.00    +0.036 C 
ATOM     15  C   UNL     1      33.304 -12.800 -23.446  0.00  0.00    +0.005 C 
ATOM     16  C   UNL     1      33.387 -14.278 -21.583  0.00  0.00    +0.100 C 
ATOM     17  C   UNL     1      32.958 -13.078 -22.128  0.00  0.00    +0.021 C 
ENDBRANCH   7  10
ENDBRANCH   2   7
BRANCH   1  18
ATOM     18  N   UNL     1      35.632 -20.612 -19.750  0.00  0.00    -0.328 N 
ATOM     19  H   UNL     1      35.914 -20.140 -18.933  0.00  0.00    +0.147 HD
BRANCH  18  20
ATOM     20  C   UNL     1      35.523 -22.049 -19.699  0.00  0.00    +0.127 C 
BRANCH  20  26
ATOM     21  S   UNL     1      37.125 -22.682 -16.529  0.00  0.00    -0.104 S 
ATOM     22  O   UNL     1      32.654 -22.244 -20.309  0.00  0.00    -0.210 OA
ATOM     23  N   UNL     1      32.247 -22.868 -18.103  0.00  0.00    -0.333 NA
ATOM     24  N   UNL     1      36.121 -23.401 -14.248  0.00  0.00    -0.262 NA
ATOM     25  C   UNL     1      34.468 -22.766 -17.450  0.00  0.00    +0.033 C 
ATOM     26  C   UNL     1      34.461 -22.431 -18.738  0.00  0.00    +0.092 C 
ATOM     27  C   UNL     1      33.059 -23.028 -17.111  0.00  0.00    +0.142 C 
ATOM     28  C   UNL     1      35.441 -22.908 -16.449  0.00  0.00    +0.114 C 
ATOM     29  C   UNL     1      33.032 -22.493 -19.174  0.00  0.00    +0.202 C 
ATOM     30  C   UNL     1      35.104 -23.287 -15.159  0.00  0.00    +0.069 C 
ATOM     31  C   UNL     1      32.739 -23.431 -15.715  0.00  0.00    +0.034 C 
ATOM     32  C   UNL     1      33.738 -23.544 -14.817  0.00  0.00    +0.018 C 
ATOM     33  C   UNL     1      37.246 -23.103 -14.864  0.00  0.00    +0.183 C 
ENDBRANCH  20  26
ENDBRANCH  18  20
ENDBRANCH   1  18
TORSDOF 5
ENDMDL
MODEL 8
REMARK VINA RESULT:     -10.4      2.677     10.548
REMARK  Name = 1712
REMARK  5 active torsions:
REMARK  status: ('A' for Active; 'I' for Inactive)
REMARK    1  A    between atoms: C_1  and  N_18
REMARK    2  A    between atoms: C_2  and  S_7
REMARK    3  A    between atoms: S_7  and  N_10
REMARK    4  A    between atoms: N_18  and  C_20
REMARK    5  A    between atoms: C_20  and  C_26
REMARK                            x       y       z     vdW  Elec       q    Type
REMARK                         _______ _______ _______ _____ _____    ______ ____
ROOT
ATOM      1  C   UNL     1      35.227 -17.166 -21.661  0.00  0.00    +0.045 C 
ATOM      2  C   UNL     1      34.044 -15.068 -23.114  0.00  0.00    +0.125 C 
ATOM      3  C   UNL     1      34.602 -16.094 -20.999  0.00  0.00    +0.016 C 
ATOM      4  C   UNL     1      35.247 -17.163 -23.067  0.00  0.00    +0.016 C 
ATOM      5  C   UNL     1      34.015 -15.054 -21.720  0.00  0.00    +0.021 C 
ATOM      6  C   UNL     1      34.660 -16.122 -23.788  0.00  0.00    +0.021 C 
ENDROOT
BRANCH   2   7
ATOM      7  S   UNL     1      33.311 -13.765 -24.016  0.00  0.00    +0.075 S 
ATOM      8  O   UNL     1      32.147 -13.304 -23.266  0.00  0.00    -0.150 OA
ATOM      9  O   UNL     1      33.131 -14.197 -25.396  0.00  0.00    -0.150 OA
BRANCH   7  10
ATOM     10  N   UNL     1      34.512 -12.531 -23.950  0.00  0.00    -0.199 N 
ATOM     11  H   UNL     1      35.386 -12.698 -23.529  0.00  0.00    +0.175 HD
ATOM     12  N   UNL     1      33.243 -10.543 -23.896  0.00  0.00    -0.228 NA
ATOM     13  C   UNL     1      34.199 -11.252 -24.527  0.00  0.00    +0.147 C 
ATOM     14  C   UNL     1      34.874 -10.834 -25.658  0.00  0.00    +0.036 C 
ATOM     15  C   UNL     1      34.540  -9.590 -26.182  0.00  0.00    +0.005 C 
ATOM     16  C   UNL     1      32.945  -9.340 -24.435  0.00  0.00    +0.100 C 
ATOM     17  C   UNL     1      33.558  -8.823 -25.564  0.00  0.00    +0.021 C 
ENDBRANCH   7  10
ENDBRANCH   2   7
BRANCH   1  18
ATOM     18  N   UNL     1      35.810 -18.201 -20.945  0.00  0.00    -0.328 N 
ATOM     19  H   UNL     1      36.227 -17.989 -20.078  0.00  0.00    +0.147 HD
BRANCH  18  20
ATOM     20  C   UNL     1      35.842 -19.570 -21.396  0.00  0.00    +0.127 C 
BRANCH  20  26
ATOM     21  S   UNL     1      37.051 -21.385 -18.522  0.00  0.00    -0.104 S 
ATOM     22  O   UNL     1      33.096 -19.532 -22.447  0.00  0.00    -0.210 OA
ATOM     23  N   UNL     1      32.444 -20.975 -20.739  0.00  0.00    -0.333 NA
ATOM     24  N   UNL     1      35.804 -22.948 -16.869  0.00  0.00    -0.262 NA
ATOM     25  C   UNL     1      34.548 -21.121 -19.781  0.00  0.00    +0.033 C 
ATOM     26  C   UNL     1      34.690 -20.307 -20.824  0.00  0.00    +0.092 C 
ATOM     27  C   UNL     1      33.128 -21.505 -19.779  0.00  0.00    +0.142 C 
ATOM     28  C   UNL     1      35.389 -21.637 -18.782  0.00  0.00    +0.114 C 
ATOM     29  C   UNL     1      33.338 -20.204 -21.454  0.00  0.00    +0.202 C 
ATOM     30  C   UNL     1      34.910 -22.493 -17.804  0.00  0.00    +0.069 C 
ATOM     31  C   UNL     1      32.653 -22.426 -18.711  0.00  0.00    +0.034 C 
ATOM     32  C   UNL     1      33.530 -22.875 -17.791  0.00  0.00    +0.018 C 
ATOM     33  C   UNL     1      36.979 -22.424 -17.151  0.00  0.00    +0.183 C 
ENDBRANCH  20  26
ENDBRANCH  18  20
ENDBRANCH   1  18
TORSDOF 5
ENDMDL
MODEL 9
REMARK VINA RESULT:     -10.3      4.527     11.701
REMARK  Name = 1712
REMARK  5 active torsions:
REMARK  status: ('A' for Active; 'I' for Inactive)
REMARK    1  A    between atoms: C_1  and  N_18
REMARK    2  A    between atoms: C_2  and  S_7
REMARK    3  A    between atoms: S_7  and  N_10
REMARK    4  A    between atoms: N_18  and  C_20
REMARK    5  A    between atoms: C_20  and  C_26
REMARK                            x       y       z     vdW  Elec       q    Type
REMARK                         _______ _______ _______ _____ _____    ______ ____
ROOT
ATOM      1  C   UNL     1      35.607 -21.004 -19.665  0.00  0.00    +0.045 C 
ATOM      2  C   UNL     1      35.002 -19.774 -22.123  0.00  0.00    +0.125 C 
ATOM      3  C   UNL     1      34.291 -20.995 -20.162  0.00  0.00    +0.016 C 
ATOM      4  C   UNL     1      36.613 -20.382 -20.427  0.00  0.00    +0.016 C 
ATOM      5  C   UNL     1      33.991 -20.385 -21.381  0.00  0.00    +0.021 C 
ATOM      6  C   UNL     1      36.313 -19.772 -21.645  0.00  0.00    +0.021 C 
ENDROOT
BRANCH   2   7
ATOM      7  S   UNL     1      34.627 -19.011 -23.647  0.00  0.00    +0.075 S 
ATOM      8  O   UNL     1      33.222 -18.619 -23.614  0.00  0.00    -0.150 OA
ATOM      9  O   UNL     1      35.091 -19.872 -24.727  0.00  0.00    -0.150 OA
BRANCH   7  10
ATOM     10  N   UNL     1      35.582 -17.577 -23.601  0.00  0.00    -0.199 N 
ATOM     11  H   UNL     1      36.478 -17.553 -24.010  0.00  0.00    +0.175 HD
ATOM     12  N   UNL     1      34.876 -16.518 -21.616  0.00  0.00    -0.228 NA
ATOM     13  C   UNL     1      35.033 -16.418 -22.950  0.00  0.00    +0.147 C 
ATOM     14  C   UNL     1      34.709 -15.306 -23.701  0.00  0.00    +0.036 C 
ATOM     15  C   UNL     1      34.182 -14.208 -23.029  0.00  0.00    +0.005 C 
ATOM     16  C   UNL     1      34.360 -15.432 -20.997  0.00  0.00    +0.100 C 
ATOM     17  C   UNL     1      34.001 -14.265 -21.652  0.00  0.00    +0.021 C 
ENDBRANCH   7  10
ENDBRANCH   2   7
BRANCH   1  18
ATOM     18  N   UNL     1      35.906 -21.611 -18.455  0.00  0.00    -0.328 N 
ATOM     19  H   UNL     1      36.761 -21.386 -18.021  0.00  0.00    +0.147 HD
BRANCH  18  20
ATOM     20  C   UNL     1      35.037 -22.553 -17.794  0.00  0.00    +0.127 C 
BRANCH  20  26
ATOM     21  S   UNL     1      32.280 -23.736 -15.790  0.00  0.00    -0.104 S 
ATOM     22  O   UNL     1      37.835 -22.230 -16.951  0.00  0.00    -0.210 OA
ATOM     23  N   UNL     1      37.265 -23.001 -14.829  0.00  0.00    -0.333 NA
ATOM     24  N   UNL     1      32.206 -24.510 -13.315  0.00  0.00    -0.262 NA
ATOM     25  C   UNL     1      35.023 -23.313 -15.322  0.00  0.00    +0.033 C 
ATOM     26  C   UNL     1      35.572 -22.856 -16.445  0.00  0.00    +0.092 C 
ATOM     27  C   UNL     1      36.126 -23.383 -14.351  0.00  0.00    +0.142 C 
ATOM     28  C   UNL     1      33.738 -23.704 -14.914  0.00  0.00    +0.114 C 
ATOM     29  C   UNL     1      37.021 -22.649 -16.141  0.00  0.00    +0.202 C 
ATOM     30  C   UNL     1      33.493 -24.150 -13.625  0.00  0.00    +0.069 C 
ATOM     31  C   UNL     1      35.822 -23.867 -12.978  0.00  0.00    +0.034 C 
ATOM     32  C   UNL     1      34.558 -24.222 -12.671  0.00  0.00    +0.018 C 
ATOM     33  C   UNL     1      31.470 -24.331 -14.392  0.00  0.00    +0.183 C 
ENDBRANCH  20  26
ENDBRANCH  18  20
ENDBRANCH   1  18
TORSDOF 5
ENDMDL
