MODEL 1
REMARK VINA RESULT:     -11.9      0.000      0.000
REMARK  Name = 447735
REMARK  4 active torsions:
REMARK  status: ('A' for Active; 'I' for Inactive)
REMARK    1  A    between atoms: N_2  and  C_13
REMARK    2  A    between atoms: C_3  and  C_18
REMARK    3  A    between atoms: C_7  and  C_15
REMARK    4  A    between atoms: C_26  and  C_30
REMARK                            x       y       z     vdW  Elec       q    Type
REMARK                         _______ _______ _______ _____ _____    ______ ____
ROOT
ATOM      1  O   UNL     1      33.503 -23.976 -18.132  0.00  0.00    -0.270 OA
ATOM      2  N   UNL     1      34.925 -22.541 -16.928  0.00  0.00    -0.280 N 
ATOM      3  C   UNL     1      34.123 -22.925 -18.011  0.00  0.00    +0.249 C 
ATOM      4  H   UNL     1      35.351 -21.657 -16.998  0.00  0.00    +0.155 HD
ENDROOT
BRANCH   2  13
ATOM      5  N   UNL     1      38.391 -25.559 -12.935  0.00  0.00    -0.274 NA
ATOM      6  C   UNL     1      36.712 -24.530 -14.388  0.00  0.00    +0.010 C 
ATOM      7  C   UNL     1      38.022 -25.173 -14.111  0.00  0.00    +0.053 C 
ATOM      8  C   UNL     1      35.716 -24.683 -13.414  0.00  0.00    -0.019 C 
ATOM      9  C   UNL     1      36.026 -25.484 -12.186  0.00  0.00    +0.053 C 
ATOM     10  C   UNL     1      37.489 -25.284 -11.811  0.00  0.00    +0.130 C 
ATOM     11  C   UNL     1      36.454 -23.814 -15.559  0.00  0.00    +0.016 C 
ATOM     12  C   UNL     1      34.448 -24.136 -13.633  0.00  0.00    -0.003 C 
ATOM     13  C   UNL     1      35.190 -23.258 -15.761  0.00  0.00    +0.051 C 
ATOM     14  C   UNL     1      34.189 -23.422 -14.803  0.00  0.00    +0.014 C 
BRANCH   7  15
ATOM     15  C   UNL     1      38.977 -25.398 -15.258  0.00  0.00    +0.040 C 
ATOM     16  C   UNL     1      39.373 -24.050 -15.833  0.00  0.00    +0.006 C 
ATOM     17  C   UNL     1      40.180 -26.179 -14.760  0.00  0.00    +0.006 C 
ENDBRANCH   7  15
ENDBRANCH   2  13
BRANCH   3  18
ATOM     18  C   UNL     1      34.056 -21.950 -19.131  0.00  0.00    +0.054 C 
ATOM     19  C   UNL     1      35.182 -20.475 -20.661  0.00  0.00    +0.000 C 
ATOM     20  C   UNL     1      33.930 -20.129 -21.223  0.00  0.00    +0.000 C 
ATOM     21  C   UNL     1      35.229 -21.398 -19.604  0.00  0.00    +0.005 C 
ATOM     22  C   UNL     1      32.826 -21.631 -19.659  0.00  0.00    +0.005 C 
ATOM     23  C   UNL     1      32.760 -20.716 -20.711  0.00  0.00    +0.000 C 
ATOM     24  C   UNL     1      33.883 -19.206 -22.280  0.00  0.00    +0.003 C 
ATOM     25  C   UNL     1      36.349 -19.887 -21.174  0.00  0.00    +0.000 C 
ATOM     26  C   UNL     1      35.053 -18.632 -22.777  0.00  0.00    +0.031 C 
ATOM     27  C   UNL     1      36.285 -18.972 -22.225  0.00  0.00    +0.003 C 
BRANCH  26  30
ATOM     28  N   UNL     1      35.631 -16.445 -23.800  0.00  0.00    -0.343 N 
ATOM     29  N   UNL     1      34.304 -17.976 -24.964  0.00  0.00    -0.285 NA
ATOM     30  C   UNL     1      34.988 -17.679 -23.873  0.00  0.00    +0.117 C 
ATOM     31  H   UNL     1      35.573 -15.814 -24.554  0.00  0.00    +0.144 HD
ATOM     32  H   UNL     1      36.142 -16.203 -22.994  0.00  0.00    +0.144 HD
ATOM     33  H   UNL     1      34.258 -17.332 -25.708  0.00  0.00    +0.188 HD
ENDBRANCH  26  30
ENDBRANCH   3  18
TORSDOF 4
ENDMDL
MODEL 2
REMARK VINA RESULT:     -11.3      7.719     14.867
REMARK  Name = 447735
REMARK  4 active torsions:
REMARK  status: ('A' for Active; 'I' for Inactive)
REMARK    1  A    between atoms: N_2  and  C_13
REMARK    2  A    between atoms: C_3  and  C_18
REMARK    3  A    between atoms: C_7  and  C_15
REMARK    4  A    between atoms: C_26  and  C_30
REMARK                            x       y       z     vdW  Elec       q    Type
REMARK                         _______ _______ _______ _____ _____    ______ ____
ROOT
ATOM      1  O   UNL     1      33.399 -12.872 -25.474  0.00  0.00    -0.270 OA
ATOM      2  N   UNL     1      34.584 -11.576 -23.910  0.00  0.00    -0.280 N 
ATOM      3  C   UNL     1      34.038 -12.755 -24.434  0.00  0.00    +0.249 C 
ATOM      4  H   UNL     1      35.071 -11.667 -23.059  0.00  0.00    +0.155 HD
ENDROOT
BRANCH   2  13
ATOM      5  N   UNL     1      33.032  -5.691 -24.059  0.00  0.00    -0.274 NA
ATOM      6  C   UNL     1      33.689  -8.028 -24.369  0.00  0.00    +0.010 C 
ATOM      7  C   UNL     1      32.864  -6.942 -23.781  0.00  0.00    +0.053 C 
ATOM      8  C   UNL     1      34.417  -7.713 -25.524  0.00  0.00    -0.019 C 
ATOM      9  C   UNL     1      34.306  -6.330 -26.091  0.00  0.00    +0.053 C 
ATOM     10  C   UNL     1      34.138  -5.331 -24.953  0.00  0.00    +0.130 C 
ATOM     11  C   UNL     1      33.745  -9.313 -23.825  0.00  0.00    +0.016 C 
ATOM     12  C   UNL     1      35.181  -8.703 -26.149  0.00  0.00    -0.003 C 
ATOM     13  C   UNL     1      34.523 -10.290 -24.447  0.00  0.00    +0.051 C 
ATOM     14  C   UNL     1      35.236  -9.987 -25.607  0.00  0.00    +0.014 C 
BRANCH   7  15
ATOM     15  C   UNL     1      31.765  -7.306 -22.812  0.00  0.00    +0.040 C 
ATOM     16  C   UNL     1      32.267  -7.070 -21.399  0.00  0.00    +0.006 C 
ATOM     17  C   UNL     1      30.530  -6.481 -23.124  0.00  0.00    +0.006 C 
ENDBRANCH   7  15
ENDBRANCH   2  13
BRANCH   3  18
ATOM     18  C   UNL     1      34.248 -13.976 -23.611  0.00  0.00    +0.054 C 
ATOM     19  C   UNL     1      34.700 -16.334 -23.484  0.00  0.00    +0.000 C 
ATOM     20  C   UNL     1      34.641 -16.252 -22.073  0.00  0.00    +0.000 C 
ATOM     21  C   UNL     1      34.500 -15.173 -24.248  0.00  0.00    +0.005 C 
ATOM     22  C   UNL     1      34.185 -13.869 -22.241  0.00  0.00    +0.005 C 
ATOM     23  C   UNL     1      34.382 -15.012 -21.465  0.00  0.00    +0.000 C 
ATOM     24  C   UNL     1      34.841 -17.414 -21.308  0.00  0.00    +0.003 C 
ATOM     25  C   UNL     1      34.959 -17.574 -24.089  0.00  0.00    +0.000 C 
ATOM     26  C   UNL     1      35.097 -18.638 -21.927  0.00  0.00    +0.031 C 
ATOM     27  C   UNL     1      35.156 -18.718 -23.316  0.00  0.00    +0.003 C 
BRANCH  26  30
ATOM     28  N   UNL     1      36.528 -20.090 -20.510  0.00  0.00    -0.343 N 
ATOM     29  N   UNL     1      34.317 -20.697 -20.965  0.00  0.00    -0.285 NA
ATOM     30  C   UNL     1      35.303 -19.831 -21.122  0.00  0.00    +0.117 C 
ATOM     31  H   UNL     1      36.645 -20.905 -19.969  0.00  0.00    +0.144 HD
ATOM     32  H   UNL     1      37.276 -19.459 -20.618  0.00  0.00    +0.144 HD
ATOM     33  H   UNL     1      34.454 -21.506 -20.420  0.00  0.00    +0.188 HD
ENDBRANCH  26  30
ENDBRANCH   3  18
TORSDOF 4
ENDMDL
MODEL 3
REMARK VINA RESULT:     -11.0      1.045      2.633
REMARK  Name = 447735
REMARK  4 active torsions:
REMARK  status: ('A' for Active; 'I' for Inactive)
REMARK    1  A    between atoms: N_2  and  C_13
REMARK    2  A    between atoms: C_3  and  C_18
REMARK    3  A    between atoms: C_7  and  C_15
REMARK    4  A    between atoms: C_26  and  C_30
REMARK                            x       y       z     vdW  Elec       q    Type
REMARK                         _______ _______ _______ _____ _____    ______ ____
ROOT
ATOM      1  O   UNL     1      34.327 -23.435 -17.787  0.00  0.00    -0.270 OA
ATOM      2  N   UNL     1      36.407 -22.402 -17.423  0.00  0.00    -0.280 N 
ATOM      3  C   UNL     1      35.171 -22.588 -18.056  0.00  0.00    +0.249 C 
ATOM      4  H   UNL     1      36.963 -21.668 -17.771  0.00  0.00    +0.155 HD
ENDROOT
BRANCH   2  13
ATOM      5  N   UNL     1      36.254 -25.552 -12.216  0.00  0.00    -0.274 NA
ATOM      6  C   UNL     1      36.674 -24.223 -14.228  0.00  0.00    +0.010 C 
ATOM      7  C   UNL     1      35.879 -24.632 -13.042  0.00  0.00    +0.053 C 
ATOM      8  C   UNL     1      38.026 -24.590 -14.238  0.00  0.00    -0.019 C 
ATOM      9  C   UNL     1      38.577 -25.344 -13.065  0.00  0.00    +0.053 C 
ATOM     10  C   UNL     1      37.501 -26.268 -12.510  0.00  0.00    +0.130 C 
ATOM     11  C   UNL     1      36.129 -23.497 -15.289  0.00  0.00    +0.016 C 
ATOM     12  C   UNL     1      38.839 -24.201 -15.307  0.00  0.00    -0.003 C 
ATOM     13  C   UNL     1      36.944 -23.127 -16.360  0.00  0.00    +0.051 C 
ATOM     14  C   UNL     1      38.295 -23.475 -16.367  0.00  0.00    +0.014 C 
BRANCH   7  15
ATOM     15  C   UNL     1      34.565 -23.938 -12.773  0.00  0.00    +0.040 C 
ATOM     16  C   UNL     1      33.453 -24.734 -13.432  0.00  0.00    +0.006 C 
ATOM     17  C   UNL     1      34.364 -23.813 -11.274  0.00  0.00    +0.006 C 
ENDBRANCH   7  15
ENDBRANCH   2  13
BRANCH   3  18
ATOM     18  C   UNL     1      34.889 -21.665 -19.187  0.00  0.00    +0.054 C 
ATOM     19  C   UNL     1      35.685 -20.093 -20.823  0.00  0.00    +0.000 C 
ATOM     20  C   UNL     1      34.361 -19.944 -21.300  0.00  0.00    +0.000 C 
ATOM     21  C   UNL     1      35.936 -20.969 -19.754  0.00  0.00    +0.005 C 
ATOM     22  C   UNL     1      33.593 -21.539 -19.631  0.00  0.00    +0.005 C 
ATOM     23  C   UNL     1      33.325 -20.674 -20.693  0.00  0.00    +0.000 C 
ATOM     24  C   UNL     1      34.110 -19.069 -22.369  0.00  0.00    +0.003 C 
ATOM     25  C   UNL     1      36.719 -19.363 -21.431  0.00  0.00    +0.000 C 
ATOM     26  C   UNL     1      35.151 -18.351 -22.961  0.00  0.00    +0.031 C 
ATOM     27  C   UNL     1      36.453 -18.498 -22.492  0.00  0.00    +0.003 C 
BRANCH  26  30
ATOM     28  N   UNL     1      35.352 -16.140 -24.072  0.00  0.00    -0.343 N 
ATOM     29  N   UNL     1      34.155 -17.868 -25.094  0.00  0.00    -0.285 NA
ATOM     30  C   UNL     1      34.875 -17.449 -24.068  0.00  0.00    +0.117 C 
ATOM     31  H   UNL     1      35.153 -15.547 -24.832  0.00  0.00    +0.144 HD
ATOM     32  H   UNL     1      35.887 -15.808 -23.315  0.00  0.00    +0.144 HD
ATOM     33  H   UNL     1      33.967 -17.259 -25.845  0.00  0.00    +0.188 HD
ENDBRANCH  26  30
ENDBRANCH   3  18
TORSDOF 4
ENDMDL
MODEL 4
REMARK VINA RESULT:     -11.0      7.602     14.780
REMARK  Name = 447735
REMARK  4 active torsions:
REMARK  status: ('A' for Active; 'I' for Inactive)
REMARK    1  A    between atoms: N_2  and  C_13
REMARK    2  A    between atoms: C_3  and  C_18
REMARK    3  A    between atoms: C_7  and  C_15
REMARK    4  A    between atoms: C_26  and  C_30
REMARK                            x       y       z     vdW  Elec       q    Type
REMARK                         _______ _______ _______ _____ _____    ______ ____
ROOT
ATOM      1  O   UNL     1      33.080 -12.771 -26.265  0.00  0.00    -0.270 OA
ATOM      2  N   UNL     1      34.481 -11.854 -24.613  0.00  0.00    -0.280 N 
ATOM      3  C   UNL     1      33.818 -12.886 -25.293  0.00  0.00    +0.249 C 
ATOM      4  H   UNL     1      35.037 -12.129 -23.849  0.00  0.00    +0.155 HD
ENDROOT
BRANCH   2  13
ATOM      5  N   UNL     1      32.988  -6.031 -23.648  0.00  0.00    -0.274 NA
ATOM      6  C   UNL     1      33.634  -8.272 -24.392  0.00  0.00    +0.010 C 
ATOM      7  C   UNL     1      32.800  -7.310 -23.627  0.00  0.00    +0.053 C 
ATOM      8  C   UNL     1      34.401  -7.748 -25.441  0.00  0.00    -0.019 C 
ATOM      9  C   UNL     1      34.321  -6.278 -25.727  0.00  0.00    +0.053 C 
ATOM     10  C   UNL     1      34.126  -5.520 -24.421  0.00  0.00    +0.130 C 
ATOM     11  C   UNL     1      33.660  -9.639 -24.110  0.00  0.00    +0.016 C 
ATOM     12  C   UNL     1      35.176  -8.608 -26.225  0.00  0.00    -0.003 C 
ATOM     13  C   UNL     1      34.449 -10.487 -24.889  0.00  0.00    +0.051 C 
ATOM     14  C   UNL     1      35.202  -9.973 -25.944  0.00  0.00    +0.014 C 
BRANCH   7  15
ATOM     15  C   UNL     1      31.668  -7.841 -22.782  0.00  0.00    +0.040 C 
ATOM     16  C   UNL     1      32.048  -7.702 -21.319  0.00  0.00    +0.006 C 
ATOM     17  C   UNL     1      30.397  -7.079 -23.114  0.00  0.00    +0.006 C 
ENDBRANCH   7  15
ENDBRANCH   2  13
BRANCH   3  18
ATOM     18  C   UNL     1      34.028 -14.250 -24.741  0.00  0.00    +0.054 C 
ATOM     19  C   UNL     1      34.514 -15.670 -22.861  0.00  0.00    +0.000 C 
ATOM     20  C   UNL     1      34.419 -16.798 -23.711  0.00  0.00    +0.000 C 
ATOM     21  C   UNL     1      34.312 -14.388 -23.398  0.00  0.00    +0.005 C 
ATOM     22  C   UNL     1      33.931 -15.329 -25.588  0.00  0.00    +0.005 C 
ATOM     23  C   UNL     1      34.127 -16.611 -25.072  0.00  0.00    +0.000 C 
ATOM     24  C   UNL     1      34.620 -18.080 -23.174  0.00  0.00    +0.003 C 
ATOM     25  C   UNL     1      34.806 -15.858 -21.501  0.00  0.00    +0.000 C 
ATOM     26  C   UNL     1      34.910 -18.248 -21.820  0.00  0.00    +0.031 C 
ATOM     27  C   UNL     1      35.002 -17.139 -20.985  0.00  0.00    +0.003 C 
BRANCH  26  30
ATOM     28  N   UNL     1      36.313 -19.941 -20.667  0.00  0.00    -0.343 N 
ATOM     29  N   UNL     1      34.151 -20.484 -21.369  0.00  0.00    -0.285 NA
ATOM     30  C   UNL     1      35.114 -19.582 -21.279  0.00  0.00    +0.117 C 
ATOM     31  H   UNL     1      36.430 -20.850 -20.308  0.00  0.00    +0.144 HD
ATOM     32  H   UNL     1      37.044 -19.285 -20.593  0.00  0.00    +0.144 HD
ATOM     33  H   UNL     1      34.288 -21.388 -21.004  0.00  0.00    +0.188 HD
ENDBRANCH  26  30
ENDBRANCH   3  18
TORSDOF 4
ENDMDL
MODEL 5
REMARK VINA RESULT:     -10.8      8.199     15.101
REMARK  Name = 447735
REMARK  4 active torsions:
REMARK  status: ('A' for Active; 'I' for Inactive)
REMARK    1  A    between atoms: N_2  and  C_13
REMARK    2  A    between atoms: C_3  and  C_18
REMARK    3  A    between atoms: C_7  and  C_15
REMARK    4  A    between atoms: C_26  and  C_30
REMARK                            x       y       z     vdW  Elec       q    Type
REMARK                         _______ _______ _______ _____ _____    ______ ____
ROOT
ATOM      1  O   UNL     1      33.570 -11.803 -24.970  0.00  0.00    -0.270 OA
ATOM      2  N   UNL     1      32.798 -10.992 -22.902  0.00  0.00    -0.280 N 
ATOM      3  C   UNL     1      33.378 -11.931 -23.766  0.00  0.00    +0.249 C 
ATOM      4  H   UNL     1      32.721 -11.263 -21.959  0.00  0.00    +0.155 HD
ENDROOT
BRANCH   2  13
ATOM      5  N   UNL     1      32.816  -5.591 -25.711  0.00  0.00    -0.274 NA
ATOM      6  C   UNL     1      32.594  -7.597 -24.327  0.00  0.00    +0.010 C 
ATOM      7  C   UNL     1      33.354  -6.624 -25.152  0.00  0.00    +0.053 C 
ATOM      8  C   UNL     1      31.346  -7.177 -23.846  0.00  0.00    -0.019 C 
ATOM      9  C   UNL     1      30.875  -5.793 -24.178  0.00  0.00    +0.053 C 
ATOM     10  C   UNL     1      31.367  -5.413 -25.569  0.00  0.00    +0.130 C 
ATOM     11  C   UNL     1      33.080  -8.869 -24.018  0.00  0.00    +0.016 C 
ATOM     12  C   UNL     1      30.598  -8.031 -23.030  0.00  0.00    -0.003 C 
ATOM     13  C   UNL     1      32.319  -9.720 -23.215  0.00  0.00    +0.051 C 
ATOM     14  C   UNL     1      31.084  -9.301 -22.720  0.00  0.00    +0.014 C 
BRANCH   7  15
ATOM     15  C   UNL     1      34.835  -6.841 -25.351  0.00  0.00    +0.040 C 
ATOM     16  C   UNL     1      35.405  -5.645 -26.092  0.00  0.00    +0.006 C 
ATOM     17  C   UNL     1      35.496  -7.040 -23.999  0.00  0.00    +0.006 C 
ENDBRANCH   7  15
ENDBRANCH   2  13
BRANCH   3  18
ATOM     18  C   UNL     1      33.768 -13.220 -23.136  0.00  0.00    +0.054 C 
ATOM     19  C   UNL     1      34.516 -15.494 -23.368  0.00  0.00    +0.000 C 
ATOM     20  C   UNL     1      34.498 -15.626 -21.959  0.00  0.00    +0.000 C 
ATOM     21  C   UNL     1      34.145 -14.270 -23.948  0.00  0.00    +0.005 C 
ATOM     22  C   UNL     1      33.742 -13.321 -21.764  0.00  0.00    +0.005 C 
ATOM     23  C   UNL     1      34.109 -14.530 -21.170  0.00  0.00    +0.000 C 
ATOM     24  C   UNL     1      34.870 -16.850 -21.379  0.00  0.00    +0.003 C 
ATOM     25  C   UNL     1      34.906 -16.589 -24.154  0.00  0.00    +0.000 C 
ATOM     26  C   UNL     1      35.254 -17.928 -22.177  0.00  0.00    +0.031 C 
ATOM     27  C   UNL     1      35.272 -17.798 -23.562  0.00  0.00    +0.003 C 
BRANCH  26  30
ATOM     28  N   UNL     1      36.825 -19.314 -20.844  0.00  0.00    -0.343 N 
ATOM     29  N   UNL     1      34.851 -20.245 -21.681  0.00  0.00    -0.285 NA
ATOM     30  C   UNL     1      35.637 -19.188 -21.561  0.00  0.00    +0.117 C 
ATOM     31  H   UNL     1      37.064 -20.178 -20.435  0.00  0.00    +0.144 HD
ATOM     32  H   UNL     1      37.425 -18.540 -20.746  0.00  0.00    +0.144 HD
ATOM     33  H   UNL     1      35.108 -21.100 -21.265  0.00  0.00    +0.188 HD
ENDBRANCH  26  30
ENDBRANCH   3  18
TORSDOF 4
ENDMDL
MODEL 6
REMARK VINA RESULT:     -10.5      4.593     12.395
REMARK  Name = 447735
REMARK  4 active torsions:
REMARK  status: ('A' for Active; 'I' for Inactive)
REMARK    1  A    between atoms: N_2  and  C_13
REMARK    2  A    between atoms: C_3  and  C_18
REMARK    3  A    between atoms: C_7  and  C_15
REMARK    4  A    between atoms: C_26  and  C_30
REMARK                            x       y       z     vdW  Elec       q    Type
REMARK                         _______ _______ _______ _____ _____    ______ ____
ROOT
ATOM      1  O   UNL     1      34.940 -17.479 -25.060  0.00  0.00    -0.270 OA
ATOM      2  N   UNL     1      34.318 -15.896 -23.436  0.00  0.00    -0.280 N 
ATOM      3  C   UNL     1      34.737 -17.152 -23.896  0.00  0.00    +0.249 C 
ATOM      4  H   UNL     1      34.205 -15.809 -22.463  0.00  0.00    +0.155 HD
ENDROOT
BRANCH   2  13
ATOM      5  N   UNL     1      33.092 -10.000 -24.333  0.00  0.00    -0.274 NA
ATOM      6  C   UNL     1      33.433 -12.424 -24.309  0.00  0.00    +0.010 C 
ATOM      7  C   UNL     1      33.040 -11.126 -23.701  0.00  0.00    +0.053 C 
ATOM      8  C   UNL     1      33.510 -12.468 -25.707  0.00  0.00    -0.019 C 
ATOM      9  C   UNL     1      33.182 -11.231 -26.487  0.00  0.00    +0.053 C 
ATOM     10  C   UNL     1      33.628 -10.006 -25.699  0.00  0.00    +0.130 C 
ATOM     11  C   UNL     1      33.705 -13.562 -23.548  0.00  0.00    +0.016 C 
ATOM     12  C   UNL     1      33.836 -13.671 -26.342  0.00  0.00    -0.003 C 
ATOM     13  C   UNL     1      34.045 -14.754 -24.190  0.00  0.00    +0.051 C 
ATOM     14  C   UNL     1      34.106 -14.809 -25.582  0.00  0.00    +0.014 C 
BRANCH   7  15
ATOM     15  C   UNL     1      32.547 -11.112 -22.275  0.00  0.00    +0.040 C 
ATOM     16  C   UNL     1      31.931  -9.754 -21.989  0.00  0.00    +0.006 C 
ATOM     17  C   UNL     1      31.551 -12.241 -22.079  0.00  0.00    +0.006 C 
ENDBRANCH   7  15
ENDBRANCH   2  13
BRANCH   3  18
ATOM     18  C   UNL     1      34.921 -18.186 -22.844  0.00  0.00    +0.054 C 
ATOM     19  C   UNL     1      33.967 -19.809 -21.348  0.00  0.00    +0.000 C 
ATOM     20  C   UNL     1      35.266 -20.118 -20.881  0.00  0.00    +0.000 C 
ATOM     21  C   UNL     1      33.809 -18.830 -22.342  0.00  0.00    +0.005 C 
ATOM     22  C   UNL     1      36.195 -18.467 -22.407  0.00  0.00    +0.005 C 
ATOM     23  C   UNL     1      36.371 -19.438 -21.421  0.00  0.00    +0.000 C 
ATOM     24  C   UNL     1      35.424 -21.097 -19.887  0.00  0.00    +0.003 C 
ATOM     25  C   UNL     1      32.864 -20.490 -20.807  0.00  0.00    +0.000 C 
ATOM     26  C   UNL     1      34.316 -21.764 -19.361  0.00  0.00    +0.031 C 
ATOM     27  C   UNL     1      33.038 -21.460 -19.821  0.00  0.00    +0.003 C 
BRANCH  26  30
ATOM     28  N   UNL     1      35.501 -22.664 -17.374  0.00  0.00    -0.343 N 
ATOM     29  N   UNL     1      33.699 -23.830 -18.300  0.00  0.00    -0.285 NA
ATOM     30  C   UNL     1      34.496 -22.776 -18.333  0.00  0.00    +0.117 C 
ATOM     31  H   UNL     1      35.604 -23.362 -16.686  0.00  0.00    +0.144 HD
ATOM     32  H   UNL     1      36.107 -21.888 -17.383  0.00  0.00    +0.144 HD
ATOM     33  H   UNL     1      33.820 -24.517 -17.605  0.00  0.00    +0.188 HD
ENDBRANCH  26  30
ENDBRANCH   3  18
TORSDOF 4
ENDMDL
MODEL 7
REMARK VINA RESULT:     -10.5      2.232     10.393
REMARK  Name = 447735
REMARK  4 active torsions:
REMARK  status: ('A' for Active; 'I' for Inactive)
REMARK    1  A    between atoms: N_2  and  C_13
REMARK    2  A    between atoms: C_3  and  C_18
REMARK    3  A    between atoms: C_7  and  C_15
REMARK    4  A    between atoms: C_26  and  C_30
REMARK                            x       y       z     vdW  Elec       q    Type
REMARK                         _______ _______ _______ _____ _____    ______ ____
ROOT
ATOM      1  O   UNL     1      33.566 -21.488 -20.356  0.00  0.00    -0.270 OA
ATOM      2  N   UNL     1      35.408 -20.036 -20.528  0.00  0.00    -0.280 N 
ATOM      3  C   UNL     1      34.653 -21.075 -19.967  0.00  0.00    +0.249 C 
ATOM      4  H   UNL     1      36.264 -19.837 -20.084  0.00  0.00    +0.155 HD
ENDROOT
BRANCH   2  13
ATOM      5  N   UNL     1      34.604 -14.849 -23.611  0.00  0.00    -0.274 NA
ATOM      6  C   UNL     1      34.705 -17.087 -22.627  0.00  0.00    +0.010 C 
ATOM      7  C   UNL     1      34.576 -15.609 -22.566  0.00  0.00    +0.053 C 
ATOM      8  C   UNL     1      34.483 -17.689 -23.873  0.00  0.00    -0.019 C 
ATOM      9  C   UNL     1      34.122 -16.820 -25.040  0.00  0.00    +0.053 C 
ATOM     10  C   UNL     1      34.841 -15.483 -24.912  0.00  0.00    +0.130 C 
ATOM     11  C   UNL     1      35.017 -17.865 -21.510  0.00  0.00    +0.016 C 
ATOM     12  C   UNL     1      34.550 -19.082 -23.988  0.00  0.00    -0.003 C 
ATOM     13  C   UNL     1      35.097 -19.253 -21.639  0.00  0.00    +0.051 C 
ATOM     14  C   UNL     1      34.861 -19.859 -22.873  0.00  0.00    +0.014 C 
BRANCH   7  15
ATOM     15  C   UNL     1      34.395 -14.950 -21.220  0.00  0.00    +0.040 C 
ATOM     16  C   UNL     1      34.966 -13.545 -21.288  0.00  0.00    +0.006 C 
ATOM     17  C   UNL     1      32.921 -14.949 -20.859  0.00  0.00    +0.006 C 
ENDBRANCH   7  15
ENDBRANCH   2  13
BRANCH   3  18
ATOM     18  C   UNL     1      35.241 -21.710 -18.757  0.00  0.00    +0.054 C 
ATOM     19  C   UNL     1      34.986 -23.131 -16.835  0.00  0.00    +0.000 C 
ATOM     20  C   UNL     1      36.340 -22.895 -16.501  0.00  0.00    +0.000 C 
ATOM     21  C   UNL     1      34.445 -22.525 -17.980  0.00  0.00    +0.005 C 
ATOM     22  C   UNL     1      36.560 -21.463 -18.456  0.00  0.00    +0.005 C 
ATOM     23  C   UNL     1      37.115 -22.058 -17.322  0.00  0.00    +0.000 C 
ATOM     24  C   UNL     1      36.882 -23.501 -15.356  0.00  0.00    +0.003 C 
ATOM     25  C   UNL     1      34.213 -23.968 -16.014  0.00  0.00    +0.000 C 
ATOM     26  C   UNL     1      36.098 -24.330 -14.551  0.00  0.00    +0.031 C 
ATOM     27  C   UNL     1      34.766 -24.562 -14.880  0.00  0.00    +0.003 C 
BRANCH  26  30
ATOM     28  N   UNL     1      37.907 -24.544 -12.864  0.00  0.00    -0.343 N 
ATOM     29  N   UNL     1      36.024 -25.925 -12.756  0.00  0.00    -0.285 NA
ATOM     30  C   UNL     1      36.674 -24.951 -13.369  0.00  0.00    +0.117 C 
ATOM     31  H   UNL     1      38.277 -24.979 -12.061  0.00  0.00    +0.144 HD
ATOM     32  H   UNL     1      38.407 -23.823 -13.308  0.00  0.00    +0.144 HD
ATOM     33  H   UNL     1      36.412 -26.348 -11.955  0.00  0.00    +0.188 HD
ENDBRANCH  26  30
ENDBRANCH   3  18
TORSDOF 4
ENDMDL
MODEL 8
REMARK VINA RESULT:     -10.4     10.663     17.908
REMARK  Name = 447735
REMARK  4 active torsions:
REMARK  status: ('A' for Active; 'I' for Inactive)
REMARK    1  A    between atoms: N_2  and  C_13
REMARK    2  A    between atoms: C_3  and  C_18
REMARK    3  A    between atoms: C_7  and  C_15
REMARK    4  A    between atoms: C_26  and  C_30
REMARK                            x       y       z     vdW  Elec       q    Type
REMARK                         _______ _______ _______ _____ _____    ______ ____
ROOT
ATOM      1  O   UNL     1      34.541  -8.255 -25.412  0.00  0.00    -0.270 OA
ATOM      2  N   UNL     1      32.216  -8.385 -25.081  0.00  0.00    -0.280 N 
ATOM      3  C   UNL     1      33.503  -8.897 -25.297  0.00  0.00    +0.249 C 
ATOM      4  H   UNL     1      31.494  -9.050 -25.013  0.00  0.00    +0.155 HD
ENDROOT
BRANCH   2  13
ATOM      5  N   UNL     1      31.634  -2.580 -26.819  0.00  0.00    -0.274 NA
ATOM      6  C   UNL     1      31.833  -4.783 -25.773  0.00  0.00    +0.010 C 
ATOM      7  C   UNL     1      32.221  -3.729 -26.745  0.00  0.00    +0.053 C 
ATOM      8  C   UNL     1      31.059  -4.378 -24.678  0.00  0.00    -0.019 C 
ATOM      9  C   UNL     1      30.693  -2.930 -24.550  0.00  0.00    +0.053 C 
ATOM     10  C   UNL     1      30.486  -2.340 -25.939  0.00  0.00    +0.130 C 
ATOM     11  C   UNL     1      32.218  -6.119 -25.914  0.00  0.00    +0.016 C 
ATOM     12  C   UNL     1      30.695  -5.316 -23.706  0.00  0.00    -0.003 C 
ATOM     13  C   UNL     1      31.836  -7.050 -24.947  0.00  0.00    +0.051 C 
ATOM     14  C   UNL     1      31.080  -6.649 -23.845  0.00  0.00    +0.014 C 
BRANCH   7  15
ATOM     15  C   UNL     1      33.362  -4.000 -27.694  0.00  0.00    +0.040 C 
ATOM     16  C   UNL     1      32.936  -3.594 -29.094  0.00  0.00    +0.006 C 
ATOM     17  C   UNL     1      34.590  -3.237 -27.229  0.00  0.00    +0.006 C 
ENDBRANCH   7  15
ENDBRANCH   2  13
BRANCH   3  18
ATOM     18  C   UNL     1      33.587 -10.376 -25.425  0.00  0.00    +0.054 C 
ATOM     19  C   UNL     1      33.889 -12.528 -24.394  0.00  0.00    +0.000 C 
ATOM     20  C   UNL     1      33.743 -13.137 -25.663  0.00  0.00    +0.000 C 
ATOM     21  C   UNL     1      33.807 -11.129 -24.290  0.00  0.00    +0.005 C 
ATOM     22  C   UNL     1      33.442 -10.943 -26.670  0.00  0.00    +0.005 C 
ATOM     23  C   UNL     1      33.520 -12.331 -26.792  0.00  0.00    +0.000 C 
ATOM     24  C   UNL     1      33.825 -14.535 -25.767  0.00  0.00    +0.003 C 
ATOM     25  C   UNL     1      34.112 -13.335 -23.267  0.00  0.00    +0.000 C 
ATOM     26  C   UNL     1      34.047 -15.322 -24.636  0.00  0.00    +0.031 C 
ATOM     27  C   UNL     1      34.190 -14.722 -23.388  0.00  0.00    +0.003 C 
BRANCH  26  30
ATOM     28  N   UNL     1      35.138 -17.494 -24.130  0.00  0.00    -0.343 N 
ATOM     29  N   UNL     1      33.236 -17.418 -25.486  0.00  0.00    -0.285 NA
ATOM     30  C   UNL     1      34.129 -16.768 -24.760  0.00  0.00    +0.117 C 
ATOM     31  H   UNL     1      35.173 -18.473 -24.227  0.00  0.00    +0.144 HD
ATOM     32  H   UNL     1      35.814 -17.028 -23.587  0.00  0.00    +0.144 HD
ATOM     33  H   UNL     1      33.289 -18.397 -25.572  0.00  0.00    +0.188 HD
ENDBRANCH  26  30
ENDBRANCH   3  18
TORSDOF 4
ENDMDL
MODEL 9
REMARK VINA RESULT:     -10.3      3.588     11.512
REMARK  Name = 447735
REMARK  4 active torsions:
REMARK  status: ('A' for Active; 'I' for Inactive)
REMARK    1  A    between atoms: N_2  and  C_13
REMARK    2  A    between atoms: C_3  and  C_18
REMARK    3  A    between atoms: C_7  and  C_15
REMARK    4  A    between atoms: C_26  and  C_30
REMARK                            x       y       z     vdW  Elec       q    Type
REMARK                         _______ _______ _______ _____ _____    ______ ____
ROOT
ATOM      1  O   UNL     1      34.757 -19.252 -23.845  0.00  0.00    -0.270 OA
ATOM      2  N   UNL     1      34.671 -17.355 -22.458  0.00  0.00    -0.280 N 
ATOM      3  C   UNL     1      34.840 -18.716 -22.746  0.00  0.00    +0.249 C 
ATOM      4  H   UNL     1      34.775 -17.098 -21.514  0.00  0.00    +0.155 HD
ENDROOT
BRANCH   2  13
ATOM      5  N   UNL     1      33.315 -11.644 -24.075  0.00  0.00    -0.274 NA
ATOM      6  C   UNL     1      33.712 -14.037 -23.752  0.00  0.00    +0.010 C 
ATOM      7  C   UNL     1      33.286 -12.685 -23.310  0.00  0.00    +0.053 C 
ATOM      8  C   UNL     1      33.799 -14.251 -25.134  0.00  0.00    -0.019 C 
ATOM      9  C   UNL     1      33.447 -13.126 -26.061  0.00  0.00    +0.053 C 
ATOM     10  C   UNL     1      33.861 -11.804 -25.427  0.00  0.00    +0.130 C 
ATOM     11  C   UNL     1      34.006 -15.068 -22.857  0.00  0.00    +0.016 C 
ATOM     12  C   UNL     1      34.156 -15.514 -25.616  0.00  0.00    -0.003 C 
ATOM     13  C   UNL     1      34.377 -16.321 -23.347  0.00  0.00    +0.051 C 
ATOM     14  C   UNL     1      34.448 -16.544 -24.722  0.00  0.00    +0.014 C 
BRANCH   7  15
ATOM     15  C   UNL     1      32.783 -12.508 -21.898  0.00  0.00    +0.040 C 
ATOM     16  C   UNL     1      31.901 -11.273 -21.849  0.00  0.00    +0.006 C 
ATOM     17  C   UNL     1      32.034 -13.759 -21.473  0.00  0.00    +0.006 C 
ENDBRANCH   7  15
ENDBRANCH   2  13
BRANCH   3  18
ATOM     18  C   UNL     1      35.123 -19.585 -21.573  0.00  0.00    +0.054 C 
ATOM     19  C   UNL     1      34.341 -21.138 -19.911  0.00  0.00    +0.000 C 
ATOM     20  C   UNL     1      35.652 -21.207 -19.384  0.00  0.00    +0.000 C 
ATOM     21  C   UNL     1      34.090 -20.313 -21.020  0.00  0.00    +0.005 C 
ATOM     22  C   UNL     1      36.406 -19.633 -21.079  0.00  0.00    +0.005 C 
ATOM     23  C   UNL     1      36.675 -20.448 -19.978  0.00  0.00    +0.000 C 
ATOM     24  C   UNL     1      35.904 -22.032 -18.275  0.00  0.00    +0.003 C 
ATOM     25  C   UNL     1      33.321 -21.896 -19.316  0.00  0.00    +0.000 C 
ATOM     26  C   UNL     1      34.877 -22.779 -17.696  0.00  0.00    +0.031 C 
ATOM     27  C   UNL     1      33.588 -22.711 -18.216  0.00  0.00    +0.003 C 
BRANCH  26  30
ATOM     28  N   UNL     1      34.129 -24.282 -15.867  0.00  0.00    -0.343 N 
ATOM     29  N   UNL     1      36.398 -23.790 -16.134  0.00  0.00    -0.285 NA
ATOM     30  C   UNL     1      35.153 -23.629 -16.549  0.00  0.00    +0.117 C 
ATOM     31  H   UNL     1      34.340 -24.853 -15.092  0.00  0.00    +0.144 HD
ATOM     32  H   UNL     1      33.195 -24.172 -16.158  0.00  0.00    +0.144 HD
ATOM     33  H   UNL     1      36.588 -24.365 -15.357  0.00  0.00    +0.188 HD
ENDBRANCH  26  30
ENDBRANCH   3  18
TORSDOF 4
ENDMDL
