MODEL 1
REMARK VINA RESULT:     -11.8      0.000      0.000
REMARK  Name = 10389239
REMARK  2 active torsions:
REMARK  status: ('A' for Active; 'I' for Inactive)
REMARK    1  A    between atoms: C_2  and  C_14
REMARK    2  A    between atoms: C_4  and  C_20
REMARK                            x       y       z     vdW  Elec       q    Type
REMARK                         _______ _______ _______ _____ _____    ______ ____
ROOT
ATOM      1  N   UNL     1      32.279 -22.607 -18.201  0.00  0.00    -0.244 NA
ATOM      2  C   UNL     1      34.255 -23.620 -16.504  0.00  0.00    +0.016 C 
ATOM      3  C   UNL     1      34.604 -22.789 -17.563  0.00  0.00    +0.020 C 
ATOM      4  C   UNL     1      33.587 -22.313 -18.375  0.00  0.00    +0.083 C 
ATOM      5  C   UNL     1      32.920 -23.947 -16.293  0.00  0.00    +0.022 C 
ATOM      6  C   UNL     1      31.979 -23.417 -17.162  0.00  0.00    +0.099 C 
ENDROOT
BRANCH   2  14
ATOM      7  O   UNL     1      36.202 -25.973 -11.801  0.00  0.00    -0.270 OA
ATOM      8  N   UNL     1      36.610 -24.075 -15.942  0.00  0.00    -0.316 N 
ATOM      9  N   UNL     1      38.305 -26.010 -12.759  0.00  0.00    -0.300 N 
ATOM     10  C   UNL     1      37.331 -24.642 -14.931  0.00  0.00    +0.031 C 
ATOM     11  C   UNL     1      38.807 -24.747 -14.863  0.00  0.00    +0.063 C 
ATOM     12  C   UNL     1      36.458 -25.085 -13.960  0.00  0.00    +0.064 C 
ATOM     13  C   UNL     1      39.152 -25.933 -13.956  0.00  0.00    +0.096 C 
ATOM     14  C   UNL     1      35.274 -24.144 -15.627  0.00  0.00    +0.048 C 
ATOM     15  C   UNL     1      35.152 -24.761 -14.398  0.00  0.00    +0.020 C 
ATOM     16  C   UNL     1      36.940 -25.726 -12.750  0.00  0.00    +0.247 C 
ATOM     17  H   UNL     1      36.985 -23.682 -16.763  0.00  0.00    +0.152 HD
ATOM     18  H   UNL     1      38.727 -26.278 -11.912  0.00  0.00    +0.150 HD
ENDBRANCH   2  14
BRANCH   4  20
ATOM     19  N   UNL     1      33.072 -20.197 -21.398  0.00  0.00    -0.244 NA
ATOM     20  C   UNL     1      33.873 -21.446 -19.492  0.00  0.00    +0.037 C 
ATOM     21  C   UNL     1      35.166 -21.020 -19.760  0.00  0.00    +0.005 C 
ATOM     22  C   UNL     1      35.419 -20.177 -20.851  0.00  0.00    +0.018 C 
ATOM     23  C   UNL     1      34.328 -19.786 -21.656  0.00  0.00    +0.081 C 
ATOM     24  C   UNL     1      32.870 -21.010 -20.336  0.00  0.00    +0.100 C 
ATOM     25  C   UNL     1      36.717 -19.728 -21.149  0.00  0.00    +0.001 C 
ATOM     26  C   UNL     1      34.580 -18.949 -22.739  0.00  0.00    +0.019 C 
ATOM     27  C   UNL     1      36.940 -18.892 -22.240  0.00  0.00    +0.000 C 
ATOM     28  C   UNL     1      35.870 -18.502 -23.035  0.00  0.00    +0.002 C 
ENDBRANCH   4  20
TORSDOF 2
ENDMDL
MODEL 2
REMARK VINA RESULT:     -11.6      6.355     11.662
REMARK  Name = 10389239
REMARK  2 active torsions:
REMARK  status: ('A' for Active; 'I' for Inactive)
REMARK    1  A    between atoms: C_2  and  C_14
REMARK    2  A    between atoms: C_4  and  C_20
REMARK                            x       y       z     vdW  Elec       q    Type
REMARK                         _______ _______ _______ _____ _____    ______ ____
ROOT
ATOM      1  N   UNL     1      35.196 -17.646 -24.227  0.00  0.00    -0.244 NA
ATOM      2  C   UNL     1      34.048 -15.220 -23.449  0.00  0.00    +0.016 C 
ATOM      3  C   UNL     1      34.313 -16.202 -22.501  0.00  0.00    +0.020 C 
ATOM      4  C   UNL     1      34.883 -17.387 -22.938  0.00  0.00    +0.083 C 
ATOM      5  C   UNL     1      34.354 -15.449 -24.786  0.00  0.00    +0.022 C 
ATOM      6  C   UNL     1      34.923 -16.668 -25.120  0.00  0.00    +0.099 C 
ENDROOT
BRANCH   2  14
ATOM      7  O   UNL     1      32.875  -9.758 -23.943  0.00  0.00    -0.270 OA
ATOM      8  N   UNL     1      32.781 -13.828 -21.859  0.00  0.00    -0.316 N 
ATOM      9  N   UNL     1      31.533  -9.937 -22.070  0.00  0.00    -0.300 N 
ATOM     10  C   UNL     1      32.339 -12.542 -21.750  0.00  0.00    +0.031 C 
ATOM     11  C   UNL     1      31.591 -11.968 -20.606  0.00  0.00    +0.063 C 
ATOM     12  C   UNL     1      32.723 -11.845 -22.876  0.00  0.00    +0.064 C 
ATOM     13  C   UNL     1      30.783 -10.774 -21.125  0.00  0.00    +0.096 C 
ATOM     14  C   UNL     1      33.455 -13.967 -23.048  0.00  0.00    +0.048 C 
ATOM     15  C   UNL     1      33.440 -12.748 -23.697  0.00  0.00    +0.020 C 
ATOM     16  C   UNL     1      32.401 -10.439 -23.039  0.00  0.00    +0.247 C 
ATOM     17  H   UNL     1      32.640 -14.541 -21.195  0.00  0.00    +0.152 HD
ATOM     18  H   UNL     1      31.416  -8.961 -22.016  0.00  0.00    +0.150 HD
ENDBRANCH   2  14
BRANCH   4  20
ATOM     19  N   UNL     1      36.823 -19.633 -20.685  0.00  0.00    -0.244 NA
ATOM     20  C   UNL     1      35.187 -18.451 -22.012  0.00  0.00    +0.037 C 
ATOM     21  C   UNL     1      34.198 -19.308 -21.550  0.00  0.00    +0.005 C 
ATOM     22  C   UNL     1      34.518 -20.334 -20.651  0.00  0.00    +0.018 C 
ATOM     23  C   UNL     1      35.861 -20.463 -20.239  0.00  0.00    +0.081 C 
ATOM     24  C   UNL     1      36.473 -18.656 -21.553  0.00  0.00    +0.100 C 
ATOM     25  C   UNL     1      33.539 -21.218 -20.164  0.00  0.00    +0.001 C 
ATOM     26  C   UNL     1      36.178 -21.482 -19.346  0.00  0.00    +0.019 C 
ATOM     27  C   UNL     1      33.884 -22.229 -19.271  0.00  0.00    +0.000 C 
ATOM     28  C   UNL     1      35.205 -22.361 -18.862  0.00  0.00    +0.002 C 
ENDBRANCH   4  20
TORSDOF 2
ENDMDL
MODEL 3
REMARK VINA RESULT:     -11.4      1.499      2.054
REMARK  Name = 10389239
REMARK  2 active torsions:
REMARK  status: ('A' for Active; 'I' for Inactive)
REMARK    1  A    between atoms: C_2  and  C_14
REMARK    2  A    between atoms: C_4  and  C_20
REMARK                            x       y       z     vdW  Elec       q    Type
REMARK                         _______ _______ _______ _____ _____    ______ ____
ROOT
ATOM      1  N   UNL     1      33.214 -22.557 -18.918  0.00  0.00    -0.244 NA
ATOM      2  C   UNL     1      34.729 -23.326 -16.699  0.00  0.00    +0.016 C 
ATOM      3  C   UNL     1      35.258 -22.441 -17.631  0.00  0.00    +0.020 C 
ATOM      4  C   UNL     1      34.467 -22.091 -18.713  0.00  0.00    +0.083 C 
ATOM      5  C   UNL     1      33.444 -23.828 -16.874  0.00  0.00    +0.022 C 
ATOM      6  C   UNL     1      32.734 -23.415 -17.990  0.00  0.00    +0.099 C 
ENDROOT
BRANCH   2  14
ATOM      7  O   UNL     1      37.792 -22.461 -12.081  0.00  0.00    -0.270 OA
ATOM      8  N   UNL     1      35.826 -25.038 -15.308  0.00  0.00    -0.316 N 
ATOM      9  N   UNL     1      37.863 -24.750 -11.771  0.00  0.00    -0.300 N 
ATOM     10  C   UNL     1      36.569 -25.108 -14.165  0.00  0.00    +0.031 C 
ATOM     11  C   UNL     1      37.137 -26.339 -13.566  0.00  0.00    +0.063 C 
ATOM     12  C   UNL     1      36.730 -23.834 -13.663  0.00  0.00    +0.064 C 
ATOM     13  C   UNL     1      37.329 -26.085 -12.067  0.00  0.00    +0.096 C 
ATOM     14  C   UNL     1      35.510 -23.723 -15.552  0.00  0.00    +0.048 C 
ATOM     15  C   UNL     1      36.064 -22.953 -14.548  0.00  0.00    +0.020 C 
ATOM     16  C   UNL     1      37.491 -23.592 -12.452  0.00  0.00    +0.247 C 
ATOM     17  H   UNL     1      35.559 -25.803 -15.866  0.00  0.00    +0.152 HD
ATOM     18  H   UNL     1      38.525 -24.669 -11.047  0.00  0.00    +0.150 HD
ENDBRANCH   2  14
BRANCH   4  20
ATOM     19  N   UNL     1      36.765 -19.867 -20.626  0.00  0.00    -0.244 NA
ATOM     20  C   UNL     1      34.949 -21.177 -19.721  0.00  0.00    +0.037 C 
ATOM     21  C   UNL     1      34.119 -20.723 -20.736  0.00  0.00    +0.005 C 
ATOM     22  C   UNL     1      34.611 -19.836 -21.703  0.00  0.00    +0.018 C 
ATOM     23  C   UNL     1      35.958 -19.427 -21.609  0.00  0.00    +0.081 C 
ATOM     24  C   UNL     1      36.253 -20.722 -19.711  0.00  0.00    +0.100 C 
ATOM     25  C   UNL     1      33.796 -19.357 -22.744  0.00  0.00    +0.001 C 
ATOM     26  C   UNL     1      36.445 -18.547 -22.570  0.00  0.00    +0.019 C 
ATOM     27  C   UNL     1      34.309 -18.476 -23.692  0.00  0.00    +0.000 C 
ATOM     28  C   UNL     1      35.635 -18.070 -23.605  0.00  0.00    +0.002 C 
ENDBRANCH   4  20
TORSDOF 2
ENDMDL
MODEL 4
REMARK VINA RESULT:     -11.1      3.336      8.487
REMARK  Name = 10389239
REMARK  2 active torsions:
REMARK  status: ('A' for Active; 'I' for Inactive)
REMARK    1  A    between atoms: C_2  and  C_14
REMARK    2  A    between atoms: C_4  and  C_20
REMARK                            x       y       z     vdW  Elec       q    Type
REMARK                         _______ _______ _______ _____ _____    ______ ____
ROOT
ATOM      1  N   UNL     1      35.839 -23.437 -15.879  0.00  0.00    -0.244 NA
ATOM      2  C   UNL     1      35.866 -21.876 -18.196  0.00  0.00    +0.016 C 
ATOM      3  C   UNL     1      34.663 -22.364 -17.699  0.00  0.00    +0.020 C 
ATOM      4  C   UNL     1      34.704 -23.133 -16.547  0.00  0.00    +0.083 C 
ATOM      5  C   UNL     1      37.056 -22.167 -17.538  0.00  0.00    +0.022 C 
ATOM      6  C   UNL     1      36.988 -22.945 -16.393  0.00  0.00    +0.099 C 
ENDROOT
BRANCH   2  14
ATOM      7  O   UNL     1      38.204 -18.557 -22.066  0.00  0.00    -0.270 OA
ATOM      8  N   UNL     1      34.741 -20.822 -20.118  0.00  0.00    -0.316 N 
ATOM      9  N   UNL     1      36.210 -18.611 -23.232  0.00  0.00    -0.300 N 
ATOM     10  C   UNL     1      35.059 -20.033 -21.185  0.00  0.00    +0.031 C 
ATOM     11  C   UNL     1      34.113 -19.514 -22.201  0.00  0.00    +0.063 C 
ATOM     12  C   UNL     1      36.413 -19.772 -21.155  0.00  0.00    +0.064 C 
ATOM     13  C   UNL     1      34.907 -19.238 -23.483  0.00  0.00    +0.096 C 
ATOM     14  C   UNL     1      35.881 -21.068 -19.393  0.00  0.00    +0.048 C 
ATOM     15  C   UNL     1      36.933 -20.423 -20.011  0.00  0.00    +0.020 C 
ATOM     16  C   UNL     1      37.043 -18.942 -22.165  0.00  0.00    +0.247 C 
ATOM     17  H   UNL     1      33.842 -21.160 -19.903  0.00  0.00    +0.152 HD
ATOM     18  H   UNL     1      36.513 -17.912 -23.856  0.00  0.00    +0.150 HD
ENDBRANCH   2  14
BRANCH   4  20
ATOM     19  N   UNL     1      32.439 -25.013 -14.262  0.00  0.00    -0.244 NA
ATOM     20  C   UNL     1      33.495 -23.674 -15.972  0.00  0.00    +0.037 C 
ATOM     21  C   UNL     1      32.253 -23.409 -16.529  0.00  0.00    +0.005 C 
ATOM     22  C   UNL     1      31.093 -23.946 -15.952  0.00  0.00    +0.018 C 
ATOM     23  C   UNL     1      31.234 -24.754 -14.804  0.00  0.00    +0.081 C 
ATOM     24  C   UNL     1      33.533 -24.476 -14.849  0.00  0.00    +0.100 C 
ATOM     25  C   UNL     1      29.819 -23.695 -16.491  0.00  0.00    +0.001 C 
ATOM     26  C   UNL     1      30.083 -25.286 -14.232  0.00  0.00    +0.019 C 
ATOM     27  C   UNL     1      28.684 -24.242 -15.898  0.00  0.00    +0.000 C 
ATOM     28  C   UNL     1      28.816 -25.038 -14.768  0.00  0.00    +0.002 C 
ENDBRANCH   4  20
TORSDOF 2
ENDMDL
MODEL 5
REMARK VINA RESULT:     -10.9     10.049     13.944
REMARK  Name = 10389239
REMARK  2 active torsions:
REMARK  status: ('A' for Active; 'I' for Inactive)
REMARK    1  A    between atoms: C_2  and  C_14
REMARK    2  A    between atoms: C_4  and  C_20
REMARK                            x       y       z     vdW  Elec       q    Type
REMARK                         _______ _______ _______ _____ _____    ______ ____
ROOT
ATOM      1  N   UNL     1      31.119  -9.719 -21.253  0.00  0.00    -0.244 NA
ATOM      2  C   UNL     1      32.322 -12.050 -22.218  0.00  0.00    +0.016 C 
ATOM      3  C   UNL     1      32.464 -10.854 -22.912  0.00  0.00    +0.020 C 
ATOM      4  C   UNL     1      31.848  -9.727 -22.392  0.00  0.00    +0.083 C 
ATOM      5  C   UNL     1      31.579 -12.084 -21.043  0.00  0.00    +0.022 C 
ATOM      6  C   UNL     1      31.003 -10.901 -20.606  0.00  0.00    +0.099 C 
ENDROOT
BRANCH   2  14
ATOM      7  O   UNL     1      33.630 -15.865 -26.115  0.00  0.00    -0.270 OA
ATOM      8  N   UNL     1      33.614 -14.121 -21.887  0.00  0.00    -0.316 N 
ATOM      9  N   UNL     1      34.958 -16.924 -24.548  0.00  0.00    -0.300 N 
ATOM     10  C   UNL     1      34.087 -15.163 -22.630  0.00  0.00    +0.031 C 
ATOM     11  C   UNL     1      34.843 -16.330 -22.117  0.00  0.00    +0.063 C 
ATOM     12  C   UNL     1      33.726 -14.969 -23.946  0.00  0.00    +0.064 C 
ATOM     13  C   UNL     1      35.682 -16.890 -23.272  0.00  0.00    +0.096 C 
ATOM     14  C   UNL     1      32.943 -13.254 -22.715  0.00  0.00    +0.048 C 
ATOM     15  C   UNL     1      32.991 -13.760 -23.999  0.00  0.00    +0.020 C 
ATOM     16  C   UNL     1      34.082 -15.927 -24.975  0.00  0.00    +0.247 C 
ATOM     17  H   UNL     1      33.735 -14.007 -20.917  0.00  0.00    +0.152 HD
ATOM     18  H   UNL     1      35.099 -17.700 -25.137  0.00  0.00    +0.150 HD
ENDBRANCH   2  14
BRANCH   4  20
ATOM     19  N   UNL     1      30.899  -6.392 -23.755  0.00  0.00    -0.244 NA
ATOM     20  C   UNL     1      31.951  -8.450 -23.057  0.00  0.00    +0.037 C 
ATOM     21  C   UNL     1      33.143  -8.032 -23.630  0.00  0.00    +0.005 C 
ATOM     22  C   UNL     1      33.219  -6.788 -24.270  0.00  0.00    +0.018 C 
ATOM     23  C   UNL     1      32.057  -5.989 -24.311  0.00  0.00    +0.081 C 
ATOM     24  C   UNL     1      30.867  -7.599 -23.147  0.00  0.00    +0.100 C 
ATOM     25  C   UNL     1      34.412  -6.335 -24.860  0.00  0.00    +0.001 C 
ATOM     26  C   UNL     1      32.133  -4.753 -24.947  0.00  0.00    +0.019 C 
ATOM     27  C   UNL     1      34.460  -5.094 -25.490  0.00  0.00    +0.000 C 
ATOM     28  C   UNL     1      33.319  -4.303 -25.534  0.00  0.00    +0.002 C 
ENDBRANCH   4  20
TORSDOF 2
ENDMDL
MODEL 6
REMARK VINA RESULT:     -10.8      9.237     14.834
REMARK  Name = 10389239
REMARK  2 active torsions:
REMARK  status: ('A' for Active; 'I' for Inactive)
REMARK    1  A    between atoms: C_2  and  C_14
REMARK    2  A    between atoms: C_4  and  C_20
REMARK                            x       y       z     vdW  Elec       q    Type
REMARK                         _______ _______ _______ _____ _____    ______ ____
ROOT
ATOM      1  N   UNL     1      33.712 -14.008 -26.262  0.00  0.00    -0.244 NA
ATOM      2  C   UNL     1      33.764 -11.337 -25.445  0.00  0.00    +0.016 C 
ATOM      3  C   UNL     1      34.031 -12.350 -24.532  0.00  0.00    +0.020 C 
ATOM      4  C   UNL     1      33.993 -13.658 -24.987  0.00  0.00    +0.083 C 
ATOM      5  C   UNL     1      33.470 -11.655 -26.766  0.00  0.00    +0.022 C 
ATOM      6  C   UNL     1      33.458 -12.995 -27.121  0.00  0.00    +0.099 C 
ENDROOT
BRANCH   2  14
ATOM      7  O   UNL     1      35.183  -5.924 -25.835  0.00  0.00    -0.270 OA
ATOM      8  N   UNL     1      33.228  -9.546 -23.840  0.00  0.00    -0.316 N 
ATOM      9  N   UNL     1      33.868  -5.507 -23.982  0.00  0.00    -0.300 N 
ATOM     10  C   UNL     1      33.409  -8.199 -23.709  0.00  0.00    +0.031 C 
ATOM     11  C   UNL     1      32.977  -7.367 -22.561  0.00  0.00    +0.063 C 
ATOM     12  C   UNL     1      34.088  -7.734 -24.815  0.00  0.00    +0.064 C 
ATOM     13  C   UNL     1      32.803  -5.929 -23.064  0.00  0.00    +0.096 C 
ATOM     14  C   UNL     1      33.791  -9.956 -25.024  0.00  0.00    +0.048 C 
ATOM     15  C   UNL     1      34.338  -8.852 -25.647  0.00  0.00    +0.020 C 
ATOM     16  C   UNL     1      34.436  -6.332 -24.951  0.00  0.00    +0.247 C 
ATOM     17  H   UNL     1      32.768 -10.128 -23.193  0.00  0.00    +0.152 HD
ATOM     18  H   UNL     1      34.201  -4.583 -23.908  0.00  0.00    +0.150 HD
ENDBRANCH   2  14
BRANCH   4  20
ATOM     19  N   UNL     1      34.696 -15.554 -21.857  0.00  0.00    -0.244 NA
ATOM     20  C   UNL     1      34.259 -14.763 -24.097  0.00  0.00    +0.037 C 
ATOM     21  C   UNL     1      34.340 -16.064 -24.570  0.00  0.00    +0.005 C 
ATOM     22  C   UNL     1      34.600 -17.120 -23.686  0.00  0.00    +0.018 C 
ATOM     23  C   UNL     1      34.775 -16.816 -22.319  0.00  0.00    +0.081 C 
ATOM     24  C   UNL     1      34.444 -14.563 -22.743  0.00  0.00    +0.100 C 
ATOM     25  C   UNL     1      34.688 -18.450 -24.133  0.00  0.00    +0.001 C 
ATOM     26  C   UNL     1      35.032 -17.865 -21.442  0.00  0.00    +0.019 C 
ATOM     27  C   UNL     1      34.947 -19.480 -23.233  0.00  0.00    +0.000 C 
ATOM     28  C   UNL     1      35.120 -19.187 -21.886  0.00  0.00    +0.002 C 
ENDBRANCH   4  20
TORSDOF 2
ENDMDL
MODEL 7
REMARK VINA RESULT:     -10.7      2.930      8.757
REMARK  Name = 10389239
REMARK  2 active torsions:
REMARK  status: ('A' for Active; 'I' for Inactive)
REMARK    1  A    between atoms: C_2  and  C_14
REMARK    2  A    between atoms: C_4  and  C_20
REMARK                            x       y       z     vdW  Elec       q    Type
REMARK                         _______ _______ _______ _____ _____    ______ ____
ROOT
ATOM      1  N   UNL     1      33.663 -23.776 -17.030  0.00  0.00    -0.244 NA
ATOM      2  C   UNL     1      34.447 -21.971 -19.014  0.00  0.00    +0.016 C 
ATOM      3  C   UNL     1      35.240 -22.156 -17.888  0.00  0.00    +0.020 C 
ATOM      4  C   UNL     1      34.808 -23.063 -16.933  0.00  0.00    +0.083 C 
ATOM      5  C   UNL     1      33.261 -22.684 -19.150  0.00  0.00    +0.022 C 
ATOM      6  C   UNL     1      32.918 -23.568 -18.139  0.00  0.00    +0.099 C 
ENDROOT
BRANCH   2  14
ATOM      7  O   UNL     1      38.054 -18.653 -21.741  0.00  0.00    -0.270 OA
ATOM      8  N   UNL     1      33.954 -20.515 -20.940  0.00  0.00    -0.316 N 
ATOM      9  N   UNL     1      36.396 -18.224 -23.292  0.00  0.00    -0.300 N 
ATOM     10  C   UNL     1      34.617 -19.668 -21.780  0.00  0.00    +0.031 C 
ATOM     11  C   UNL     1      34.013 -18.877 -22.878  0.00  0.00    +0.063 C 
ATOM     12  C   UNL     1      35.950 -19.647 -21.426  0.00  0.00    +0.064 C 
ATOM     13  C   UNL     1      35.112 -18.586 -23.906  0.00  0.00    +0.096 C 
ATOM     14  C   UNL     1      34.850 -21.039 -20.040  0.00  0.00    +0.048 C 
ATOM     15  C   UNL     1      36.096 -20.511 -20.315  0.00  0.00    +0.020 C 
ATOM     16  C   UNL     1      36.905 -18.820 -22.139  0.00  0.00    +0.247 C 
ATOM     17  H   UNL     1      32.992 -20.719 -20.974  0.00  0.00    +0.152 HD
ATOM     18  H   UNL     1      36.929 -17.517 -23.722  0.00  0.00    +0.150 HD
ENDBRANCH   2  14
BRANCH   4  20
ATOM     19  N   UNL     1      37.737 -23.598 -14.695  0.00  0.00    -0.244 NA
ATOM     20  C   UNL     1      35.579 -23.309 -15.739  0.00  0.00    +0.037 C 
ATOM     21  C   UNL     1      34.963 -23.492 -14.510  0.00  0.00    +0.005 C 
ATOM     22  C   UNL     1      35.734 -23.729 -13.363  0.00  0.00    +0.018 C 
ATOM     23  C   UNL     1      37.137 -23.776 -13.503  0.00  0.00    +0.081 C 
ATOM     24  C   UNL     1      36.958 -23.372 -15.777  0.00  0.00    +0.100 C 
ATOM     25  C   UNL     1      35.140 -23.919 -12.103  0.00  0.00    +0.001 C 
ATOM     26  C   UNL     1      37.901 -24.011 -12.364  0.00  0.00    +0.019 C 
ATOM     27  C   UNL     1      35.930 -24.153 -10.980  0.00  0.00    +0.000 C 
ATOM     28  C   UNL     1      37.312 -24.199 -11.112  0.00  0.00    +0.002 C 
ENDBRANCH   4  20
TORSDOF 2
ENDMDL
MODEL 8
REMARK VINA RESULT:     -10.6      9.396     13.365
REMARK  Name = 10389239
REMARK  2 active torsions:
REMARK  status: ('A' for Active; 'I' for Inactive)
REMARK    1  A    between atoms: C_2  and  C_14
REMARK    2  A    between atoms: C_4  and  C_20
REMARK                            x       y       z     vdW  Elec       q    Type
REMARK                         _______ _______ _______ _____ _____    ______ ____
ROOT
ATOM      1  N   UNL     1      31.076 -10.033 -21.501  0.00  0.00    -0.244 NA
ATOM      2  C   UNL     1      32.419 -12.390 -22.169  0.00  0.00    +0.016 C 
ATOM      3  C   UNL     1      32.680 -11.218 -22.868  0.00  0.00    +0.020 C 
ATOM      4  C   UNL     1      31.988 -10.076 -22.498  0.00  0.00    +0.083 C 
ATOM      5  C   UNL     1      31.487 -12.388 -21.137  0.00  0.00    +0.022 C 
ATOM      6  C   UNL     1      30.849 -11.192 -20.845  0.00  0.00    +0.099 C 
ENDROOT
BRANCH   2  14
ATOM      7  O   UNL     1      35.295 -17.085 -21.096  0.00  0.00    -0.270 OA
ATOM      8  N   UNL     1      33.326 -13.980 -23.818  0.00  0.00    -0.316 N 
ATOM      9  N   UNL     1      35.196 -17.590 -23.349  0.00  0.00    -0.300 N 
ATOM     10  C   UNL     1      34.004 -15.165 -23.834  0.00  0.00    +0.031 C 
ATOM     11  C   UNL     1      34.457 -15.897 -25.040  0.00  0.00    +0.063 C 
ATOM     12  C   UNL     1      34.225 -15.566 -22.533  0.00  0.00    +0.064 C 
ATOM     13  C   UNL     1      34.589 -17.378 -24.668  0.00  0.00    +0.096 C 
ATOM     14  C   UNL     1      33.112 -13.609 -22.513  0.00  0.00    +0.048 C 
ATOM     15  C   UNL     1      33.665 -14.574 -21.694  0.00  0.00    +0.020 C 
ATOM     16  C   UNL     1      34.938 -16.794 -22.234  0.00  0.00    +0.247 C 
ATOM     17  H   UNL     1      33.038 -13.474 -24.611  0.00  0.00    +0.152 HD
ATOM     18  H   UNL     1      35.825 -18.340 -23.246  0.00  0.00    +0.150 HD
ENDBRANCH   2  14
BRANCH   4  20
ATOM     19  N   UNL     1      31.328  -6.711 -23.957  0.00  0.00    -0.244 NA
ATOM     20  C   UNL     1      32.207  -8.821 -23.178  0.00  0.00    +0.037 C 
ATOM     21  C   UNL     1      33.449  -8.495 -23.703  0.00  0.00    +0.005 C 
ATOM     22  C   UNL     1      33.637  -7.271 -24.358  0.00  0.00    +0.018 C 
ATOM     23  C   UNL     1      32.534  -6.397 -24.465  0.00  0.00    +0.081 C 
ATOM     24  C   UNL     1      31.188  -7.903 -23.332  0.00  0.00    +0.100 C 
ATOM     25  C   UNL     1      34.883  -6.910 -24.900  0.00  0.00    +0.001 C 
ATOM     26  C   UNL     1      32.722  -5.182 -25.116  0.00  0.00    +0.019 C 
ATOM     27  C   UNL     1      35.042  -5.687 -25.547  0.00  0.00    +0.000 C 
ATOM     28  C   UNL     1      33.960  -4.822 -25.655  0.00  0.00    +0.002 C 
ENDBRANCH   4  20
TORSDOF 2
ENDMDL
MODEL 9
REMARK VINA RESULT:     -10.5      4.257      9.295
REMARK  Name = 10389239
REMARK  2 active torsions:
REMARK  status: ('A' for Active; 'I' for Inactive)
REMARK    1  A    between atoms: C_2  and  C_14
REMARK    2  A    between atoms: C_4  and  C_20
REMARK                            x       y       z     vdW  Elec       q    Type
REMARK                         _______ _______ _______ _____ _____    ______ ____
ROOT
ATOM      1  N   UNL     1      35.629 -22.444 -18.324  0.00  0.00    -0.244 NA
ATOM      2  C   UNL     1      35.177 -20.626 -20.398  0.00  0.00    +0.016 C 
ATOM      3  C   UNL     1      34.107 -21.130 -19.668  0.00  0.00    +0.020 C 
ATOM      4  C   UNL     1      34.384 -22.029 -18.650  0.00  0.00    +0.083 C 
ATOM      5  C   UNL     1      36.473 -21.029 -20.094  0.00  0.00    +0.022 C 
ATOM      6  C   UNL     1      36.643 -21.931 -19.056  0.00  0.00    +0.099 C 
ENDROOT
BRANCH   2  14
ATOM      7  O   UNL     1      33.468 -19.047 -25.501  0.00  0.00    -0.270 OA
ATOM      8  N   UNL     1      35.352 -18.376 -21.388  0.00  0.00    -0.316 N 
ATOM      9  N   UNL     1      33.962 -16.864 -24.926  0.00  0.00    -0.300 N 
ATOM     10  C   UNL     1      35.004 -17.734 -22.540  0.00  0.00    +0.031 C 
ATOM     11  C   UNL     1      35.283 -16.317 -22.870  0.00  0.00    +0.063 C 
ATOM     12  C   UNL     1      34.363 -18.630 -23.370  0.00  0.00    +0.064 C 
ATOM     13  C   UNL     1      34.238 -15.858 -23.893  0.00  0.00    +0.096 C 
ATOM     14  C   UNL     1      34.946 -19.686 -21.469  0.00  0.00    +0.048 C 
ATOM     15  C   UNL     1      34.334 -19.872 -22.692  0.00  0.00    +0.020 C 
ATOM     16  C   UNL     1      33.884 -18.234 -24.681  0.00  0.00    +0.247 C 
ATOM     17  H   UNL     1      35.818 -17.968 -20.622  0.00  0.00    +0.152 HD
ATOM     18  H   UNL     1      33.822 -16.550 -25.849  0.00  0.00    +0.150 HD
ENDBRANCH   2  14
BRANCH   4  20
ATOM     19  N   UNL     1      30.962 -22.954 -17.504  0.00  0.00    -0.244 NA
ATOM     20  C   UNL     1      33.324 -22.595 -17.850  0.00  0.00    +0.037 C 
ATOM     21  C   UNL     1      33.599 -23.304 -16.690  0.00  0.00    +0.005 C 
ATOM     22  C   UNL     1      32.553 -23.844 -15.929  0.00  0.00    +0.018 C 
ATOM     23  C   UNL     1      31.231 -23.642 -16.379  0.00  0.00    +0.081 C 
ATOM     24  C   UNL     1      31.999 -22.449 -18.210  0.00  0.00    +0.100 C 
ATOM     25  C   UNL     1      32.799 -24.568 -14.750  0.00  0.00    +0.001 C 
ATOM     26  C   UNL     1      30.193 -24.178 -15.623  0.00  0.00    +0.019 C 
ATOM     27  C   UNL     1      31.740 -25.093 -14.013  0.00  0.00    +0.000 C 
ATOM     28  C   UNL     1      30.436 -24.898 -14.451  0.00  0.00    +0.002 C 
ENDBRANCH   4  20
TORSDOF 2
ENDMDL
