MODEL 1
REMARK VINA RESULT:     -13.2      0.000      0.000
REMARK  Name = 4887
REMARK  9 active torsions:
REMARK  status: ('A' for Active; 'I' for Inactive)
REMARK    1  A    between atoms: N_2  and  C_8
REMARK    2  A    between atoms: C_3  and  C_23
REMARK    3  A    between atoms: C_14  and  C_20
REMARK    4  A    between atoms: C_22  and  O_28
REMARK    5  A    between atoms: O_28  and  C_29
REMARK    6  A    between atoms: C_29  and  C_30
REMARK    7  A    between atoms: C_30  and  C_31
REMARK    8  A    between atoms: C_31  and  C_32
REMARK    9  A    between atoms: C_32  and  C_33
REMARK                            x       y       z     vdW  Elec       q    Type
REMARK                         _______ _______ _______ _____ _____    ______ ____
ROOT
ATOM      1  O   UNL     1      33.456 -24.132 -18.756  0.00  0.00    -0.270 OA
ATOM      2  N   UNL     1      33.775 -22.542 -17.054  0.00  0.00    -0.278 N 
ATOM      3  C   UNL     1      33.649 -22.982 -18.377  0.00  0.00    +0.250 C 
ATOM      4  H   UNL     1      33.927 -21.577 -16.932  0.00  0.00    +0.155 HD
ENDROOT
BRANCH   2   8
ATOM      5  O   UNL     1      31.374 -23.509 -16.147  0.00  0.00    -0.442 OA
ATOM      6  O   UNL     1      31.060 -25.748 -12.760  0.00  0.00    -0.286 OA
ATOM      7  C   UNL     1      32.496 -23.803 -15.415  0.00  0.00    +0.163 C 
ATOM      8  C   UNL     1      33.712 -23.306 -15.885  0.00  0.00    +0.086 C 
ATOM      9  C   UNL     1      32.461 -24.563 -14.248  0.00  0.00    +0.075 C 
ATOM     10  C   UNL     1      34.888 -23.571 -15.184  0.00  0.00    +0.018 C 
ATOM     11  C   UNL     1      33.636 -24.832 -13.543  0.00  0.00    +0.006 C 
ATOM     12  C   UNL     1      31.166 -25.074 -13.775  0.00  0.00    +0.202 C 
ATOM     13  C   UNL     1      34.851 -24.333 -14.015  0.00  0.00    +0.002 C 
ATOM     14  C   UNL     1      30.144 -23.986 -15.708  0.00  0.00    +0.213 C 
ATOM     15  C   UNL     1      29.990 -24.728 -14.598  0.00  0.00    +0.090 C 
BRANCH  14  20
ATOM     16  N   UNL     1      28.763 -22.363 -16.983  0.00  0.00    -0.107 NA
ATOM     17  N   UNL     1      28.197 -24.556 -17.037  0.00  0.00    -0.084 NA
ATOM     18  N   UNL     1      27.682 -22.631 -17.729  0.00  0.00    -0.140 N 
ATOM     19  N   UNL     1      27.311 -23.917 -17.789  0.00  0.00    -0.022 NA
ATOM     20  C   UNL     1      29.052 -23.601 -16.570  0.00  0.00    +0.109 C 
ATOM     21  H   UNL     1      27.190 -21.924 -18.205  0.00  0.00    +0.197 HD
ENDBRANCH  14  20
ENDBRANCH   2   8
BRANCH   3  23
ATOM     22  C   UNL     1      34.055 -19.946 -21.360  0.00  0.00    +0.139 C 
ATOM     23  C   UNL     1      33.790 -21.926 -19.414  0.00  0.00    +0.054 C 
ATOM     24  C   UNL     1      32.786 -20.332 -20.926  0.00  0.00    +0.037 C 
ATOM     25  C   UNL     1      35.191 -20.550 -20.822  0.00  0.00    +0.037 C 
ATOM     26  C   UNL     1      32.654 -21.322 -19.953  0.00  0.00    +0.008 C 
ATOM     27  C   UNL     1      35.059 -21.541 -19.849  0.00  0.00    +0.008 C 
BRANCH  22  28
ATOM     28  O   UNL     1      34.184 -18.978 -22.308  0.00  0.00    -0.475 OA
BRANCH  28  29
ATOM     29  C   UNL     1      35.132 -19.210 -23.349  0.00  0.00    +0.205 C 
BRANCH  29  30
ATOM     30  C   UNL     1      34.403 -19.216 -24.685  0.00  0.00    +0.048 C 
BRANCH  30  31
ATOM     31  C   UNL     1      33.781 -17.854 -24.993  0.00  0.00    +0.009 C 
BRANCH  31  32
ATOM     32  C   UNL     1      34.806 -16.729 -24.834  0.00  0.00    +0.026 C 
BRANCH  32  33
ATOM     33  C   UNL     1      34.264 -15.596 -24.000  0.00  0.00    -0.022 C 
ATOM     34  C   UNL     1      33.362 -14.689 -24.558  0.00  0.00    -0.004 C 
ATOM     35  C   UNL     1      34.664 -15.453 -22.672  0.00  0.00    -0.004 C 
ATOM     36  C   UNL     1      32.860 -13.641 -23.787  0.00  0.00    -0.000 C 
ATOM     37  C   UNL     1      34.162 -14.405 -21.901  0.00  0.00    -0.000 C 
ATOM     38  C   UNL     1      33.260 -13.499 -22.458  0.00  0.00    -0.000 C 
ENDBRANCH  32  33
ENDBRANCH  31  32
ENDBRANCH  30  31
ENDBRANCH  29  30
ENDBRANCH  28  29
ENDBRANCH  22  28
ENDBRANCH   3  23
TORSDOF 9
ENDMDL
MODEL 2
REMARK VINA RESULT:     -12.9      1.630      3.833
REMARK  Name = 4887
REMARK  9 active torsions:
REMARK  status: ('A' for Active; 'I' for Inactive)
REMARK    1  A    between atoms: N_2  and  C_8
REMARK    2  A    between atoms: C_3  and  C_23
REMARK    3  A    between atoms: C_14  and  C_20
REMARK    4  A    between atoms: C_22  and  O_28
REMARK    5  A    between atoms: O_28  and  C_29
REMARK    6  A    between atoms: C_29  and  C_30
REMARK    7  A    between atoms: C_30  and  C_31
REMARK    8  A    between atoms: C_31  and  C_32
REMARK    9  A    between atoms: C_32  and  C_33
REMARK                            x       y       z     vdW  Elec       q    Type
REMARK                         _______ _______ _______ _____ _____    ______ ____
ROOT
ATOM      1  O   UNL     1      33.429 -23.885 -18.797  0.00  0.00    -0.270 OA
ATOM      2  N   UNL     1      31.987 -22.285 -17.854  0.00  0.00    -0.278 N 
ATOM      3  C   UNL     1      32.987 -22.744 -18.721  0.00  0.00    +0.250 C 
ATOM      4  H   UNL     1      31.754 -21.332 -17.929  0.00  0.00    +0.155 HD
ENDROOT
BRANCH   2   8
ATOM      5  O   UNL     1      33.301 -23.464 -15.755  0.00  0.00    -0.442 OA
ATOM      6  O   UNL     1      31.359 -25.614 -12.893  0.00  0.00    -0.286 OA
ATOM      7  C   UNL     1      31.940 -23.620 -15.821  0.00  0.00    +0.163 C 
ATOM      8  C   UNL     1      31.281 -23.016 -16.894  0.00  0.00    +0.086 C 
ATOM      9  C   UNL     1      31.213 -24.342 -14.878  0.00  0.00    +0.075 C 
ATOM     10  C   UNL     1      29.898 -23.138 -17.016  0.00  0.00    +0.018 C 
ATOM     11  C   UNL     1      29.827 -24.467 -14.996  0.00  0.00    +0.006 C 
ATOM     12  C   UNL     1      31.932 -24.967 -13.759  0.00  0.00    +0.202 C 
ATOM     13  C   UNL     1      29.171 -23.862 -16.070  0.00  0.00    +0.002 C 
ATOM     14  C   UNL     1      33.991 -24.054 -14.701  0.00  0.00    +0.213 C 
ATOM     15  C   UNL     1      33.395 -24.771 -13.734  0.00  0.00    +0.090 C 
BRANCH  14  20
ATOM     16  N   UNL     1      36.220 -24.047 -15.795  0.00  0.00    -0.107 NA
ATOM     17  N   UNL     1      36.048 -23.294 -13.665  0.00  0.00    -0.084 NA
ATOM     18  N   UNL     1      37.381 -23.638 -15.264  0.00  0.00    -0.140 N 
ATOM     19  N   UNL     1      37.326 -23.184 -14.005  0.00  0.00    -0.022 NA
ATOM     20  C   UNL     1      35.414 -23.812 -14.756  0.00  0.00    +0.109 C 
ATOM     21  H   UNL     1      38.225 -23.669 -15.770  0.00  0.00    +0.197 HD
ENDBRANCH  14  20
ENDBRANCH   2   8
BRANCH   3  23
ATOM     22  C   UNL     1      34.672 -19.778 -21.298  0.00  0.00    +0.139 C 
ATOM     23  C   UNL     1      33.573 -21.713 -19.616  0.00  0.00    +0.054 C 
ATOM     24  C   UNL     1      33.289 -19.844 -21.122  0.00  0.00    +0.037 C 
ATOM     25  C   UNL     1      35.504 -20.679 -20.634  0.00  0.00    +0.037 C 
ATOM     26  C   UNL     1      32.740 -20.812 -20.281  0.00  0.00    +0.008 C 
ATOM     27  C   UNL     1      34.955 -21.646 -19.793  0.00  0.00    +0.008 C 
BRANCH  22  28
ATOM     28  O   UNL     1      35.208 -18.832 -22.117  0.00  0.00    -0.475 OA
BRANCH  28  29
ATOM     29  C   UNL     1      35.322 -19.161 -23.501  0.00  0.00    +0.205 C 
BRANCH  29  30
ATOM     30  C   UNL     1      34.024 -18.787 -24.203  0.00  0.00    +0.048 C 
BRANCH  30  31
ATOM     31  C   UNL     1      34.162 -17.480 -24.983  0.00  0.00    +0.009 C 
BRANCH  31  32
ATOM     32  C   UNL     1      35.130 -16.520 -24.288  0.00  0.00    +0.026 C 
BRANCH  32  33
ATOM     33  C   UNL     1      34.397 -15.461 -23.504  0.00  0.00    -0.022 C 
ATOM     34  C   UNL     1      33.548 -14.570 -24.161  0.00  0.00    -0.004 C 
ATOM     35  C   UNL     1      34.568 -15.372 -22.124  0.00  0.00    -0.004 C 
ATOM     36  C   UNL     1      32.870 -13.590 -23.437  0.00  0.00    -0.000 C 
ATOM     37  C   UNL     1      33.890 -14.392 -21.398  0.00  0.00    -0.000 C 
ATOM     38  C   UNL     1      33.041 -13.501 -22.055  0.00  0.00    -0.000 C 
ENDBRANCH  32  33
ENDBRANCH  31  32
ENDBRANCH  30  31
ENDBRANCH  29  30
ENDBRANCH  28  29
ENDBRANCH  22  28
ENDBRANCH   3  23
TORSDOF 9
ENDMDL
MODEL 3
REMARK VINA RESULT:     -12.2      6.705     13.379
REMARK  Name = 4887
REMARK  9 active torsions:
REMARK  status: ('A' for Active; 'I' for Inactive)
REMARK    1  A    between atoms: N_2  and  C_8
REMARK    2  A    between atoms: C_3  and  C_23
REMARK    3  A    between atoms: C_14  and  C_20
REMARK    4  A    between atoms: C_22  and  O_28
REMARK    5  A    between atoms: O_28  and  C_29
REMARK    6  A    between atoms: C_29  and  C_30
REMARK    7  A    between atoms: C_30  and  C_31
REMARK    8  A    between atoms: C_31  and  C_32
REMARK    9  A    between atoms: C_32  and  C_33
REMARK                            x       y       z     vdW  Elec       q    Type
REMARK                         _______ _______ _______ _____ _____    ______ ____
ROOT
ATOM      1  O   UNL     1      33.273 -11.810 -26.337  0.00  0.00    -0.270 OA
ATOM      2  N   UNL     1      34.450 -10.977 -24.480  0.00  0.00    -0.278 N 
ATOM      3  C   UNL     1      33.868 -11.971 -25.277  0.00  0.00    +0.250 C 
ATOM      4  H   UNL     1      34.890 -11.287 -23.657  0.00  0.00    +0.155 HD
ENDROOT
BRANCH   2   8
ATOM      5  O   UNL     1      33.094  -9.255 -22.831  0.00  0.00    -0.442 OA
ATOM      6  O   UNL     1      33.108  -5.222 -23.397  0.00  0.00    -0.286 OA
ATOM      7  C   UNL     1      33.794  -8.714 -23.879  0.00  0.00    +0.163 C 
ATOM      8  C   UNL     1      34.480  -9.599 -24.712  0.00  0.00    +0.086 C 
ATOM      9  C   UNL     1      33.842  -7.344 -24.131  0.00  0.00    +0.075 C 
ATOM     10  C   UNL     1      35.210  -9.109 -25.794  0.00  0.00    +0.018 C 
ATOM     11  C   UNL     1      34.572  -6.849 -25.214  0.00  0.00    +0.006 C 
ATOM     12  C   UNL     1      33.110  -6.436 -23.238  0.00  0.00    +0.202 C 
ATOM     13  C   UNL     1      35.257  -7.737 -26.045  0.00  0.00    +0.002 C 
ATOM     14  C   UNL     1      32.397  -8.403 -21.981  0.00  0.00    +0.213 C 
ATOM     15  C   UNL     1      32.372  -7.068 -22.127  0.00  0.00    +0.090 C 
BRANCH  14  20
ATOM     16  N   UNL     1      31.702  -8.791 -19.628  0.00  0.00    -0.107 NA
ATOM     17  N   UNL     1      30.966 -10.212 -21.231  0.00  0.00    -0.084 NA
ATOM     18  N   UNL     1      30.915  -9.773 -19.168  0.00  0.00    -0.140 N 
ATOM     19  N   UNL     1      30.456 -10.638 -20.082  0.00  0.00    -0.022 NA
ATOM     20  C   UNL     1      31.705  -9.106 -20.926  0.00  0.00    +0.109 C 
ATOM     21  H   UNL     1      30.688  -9.855 -18.214  0.00  0.00    +0.197 HD
ENDBRANCH  14  20
ENDBRANCH   2   8
BRANCH   3  23
ATOM     22  C   UNL     1      34.182 -15.952 -23.752  0.00  0.00    +0.139 C 
ATOM     23  C   UNL     1      33.977 -13.355 -24.747  0.00  0.00    +0.054 C 
ATOM     24  C   UNL     1      34.437 -14.863 -22.917  0.00  0.00    +0.037 C 
ATOM     25  C   UNL     1      33.825 -15.742 -25.083  0.00  0.00    +0.037 C 
ATOM     26  C   UNL     1      34.335 -13.565 -23.415  0.00  0.00    +0.008 C 
ATOM     27  C   UNL     1      33.721 -14.444 -25.581  0.00  0.00    +0.008 C 
BRANCH  22  28
ATOM     28  O   UNL     1      34.280 -17.220 -23.265  0.00  0.00    -0.475 OA
BRANCH  28  29
ATOM     29  C   UNL     1      34.978 -18.171 -24.067  0.00  0.00    +0.205 C 
BRANCH  29  30
ATOM     30  C   UNL     1      36.179 -18.686 -23.286  0.00  0.00    +0.048 C 
BRANCH  30  31
ATOM     31  C   UNL     1      35.979 -18.531 -21.780  0.00  0.00    +0.009 C 
BRANCH  31  32
ATOM     32  C   UNL     1      36.408 -19.795 -21.031  0.00  0.00    +0.026 C 
BRANCH  32  33
ATOM     33  C   UNL     1      35.221 -20.552 -20.491  0.00  0.00    -0.022 C 
ATOM     34  C   UNL     1      35.416 -21.661 -19.668  0.00  0.00    -0.004 C 
ATOM     35  C   UNL     1      33.928 -20.144 -20.815  0.00  0.00    -0.004 C 
ATOM     36  C   UNL     1      34.319 -22.362 -19.169  0.00  0.00    -0.000 C 
ATOM     37  C   UNL     1      32.829 -20.844 -20.316  0.00  0.00    -0.000 C 
ATOM     38  C   UNL     1      33.025 -21.953 -19.493  0.00  0.00    -0.000 C 
ENDBRANCH  32  33
ENDBRANCH  31  32
ENDBRANCH  30  31
ENDBRANCH  29  30
ENDBRANCH  28  29
ENDBRANCH  22  28
ENDBRANCH   3  23
TORSDOF 9
ENDMDL
MODEL 4
REMARK VINA RESULT:     -12.1      6.088     12.928
REMARK  Name = 4887
REMARK  9 active torsions:
REMARK  status: ('A' for Active; 'I' for Inactive)
REMARK    1  A    between atoms: N_2  and  C_8
REMARK    2  A    between atoms: C_3  and  C_23
REMARK    3  A    between atoms: C_14  and  C_20
REMARK    4  A    between atoms: C_22  and  O_28
REMARK    5  A    between atoms: O_28  and  C_29
REMARK    6  A    between atoms: C_29  and  C_30
REMARK    7  A    between atoms: C_30  and  C_31
REMARK    8  A    between atoms: C_31  and  C_32
REMARK    9  A    between atoms: C_32  and  C_33
REMARK                            x       y       z     vdW  Elec       q    Type
REMARK                         _______ _______ _______ _____ _____    ______ ____
ROOT
ATOM      1  O   UNL     1      33.116 -13.989 -25.443  0.00  0.00    -0.270 OA
ATOM      2  N   UNL     1      34.228 -12.404 -24.110  0.00  0.00    -0.278 N 
ATOM      3  C   UNL     1      33.797 -13.687 -24.469  0.00  0.00    +0.250 C 
ATOM      4  H   UNL     1      34.772 -12.344 -23.292  0.00  0.00    +0.155 HD
ENDROOT
BRANCH   2   8
ATOM      5  O   UNL     1      32.806 -10.406 -22.883  0.00  0.00    -0.442 OA
ATOM      6  O   UNL     1      32.021  -6.848 -24.702  0.00  0.00    -0.286 OA
ATOM      7  C   UNL     1      33.258 -10.175 -24.157  0.00  0.00    +0.163 C 
ATOM      8  C   UNL     1      33.980 -11.198 -24.772  0.00  0.00    +0.086 C 
ATOM      9  C   UNL     1      33.026  -8.982 -24.838  0.00  0.00    +0.075 C 
ATOM     10  C   UNL     1      34.466 -11.023 -26.068  0.00  0.00    +0.018 C 
ATOM     11  C   UNL     1      33.511  -8.802 -26.136  0.00  0.00    +0.006 C 
ATOM     12  C   UNL     1      32.262  -7.922 -24.166  0.00  0.00    +0.202 C 
ATOM     13  C   UNL     1      34.232  -9.828 -26.748  0.00  0.00    +0.002 C 
ATOM     14  C   UNL     1      32.082  -9.409 -22.238  0.00  0.00    +0.213 C 
ATOM     15  C   UNL     1      31.798  -8.221 -22.797  0.00  0.00    +0.090 C 
BRANCH  14  20
ATOM     16  N   UNL     1      30.718 -10.671 -20.591  0.00  0.00    -0.107 NA
ATOM     17  N   UNL     1      32.274  -9.212 -19.829  0.00  0.00    -0.084 NA
ATOM     18  N   UNL     1      30.788 -10.596 -19.255  0.00  0.00    -0.140 N 
ATOM     19  N   UNL     1      31.696  -9.744 -18.759  0.00  0.00    -0.022 NA
ATOM     20  C   UNL     1      31.668  -9.787 -20.908  0.00  0.00    +0.109 C 
ATOM     21  H   UNL     1      30.207 -11.135 -18.671  0.00  0.00    +0.197 HD
ENDBRANCH  14  20
ENDBRANCH   2   8
BRANCH   3  23
ATOM     22  C   UNL     1      34.963 -16.819 -21.801  0.00  0.00    +0.139 C 
ATOM     23  C   UNL     1      34.202 -14.776 -23.542  0.00  0.00    +0.054 C 
ATOM     24  C   UNL     1      34.502 -15.604 -21.292  0.00  0.00    +0.037 C 
ATOM     25  C   UNL     1      35.043 -17.012 -23.180  0.00  0.00    +0.037 C 
ATOM     26  C   UNL     1      34.122 -14.582 -22.163  0.00  0.00    +0.008 C 
ATOM     27  C   UNL     1      34.663 -15.991 -24.051  0.00  0.00    +0.008 C 
BRANCH  22  28
ATOM     28  O   UNL     1      35.331 -17.816 -20.952  0.00  0.00    -0.475 OA
BRANCH  28  29
ATOM     29  C   UNL     1      35.352 -19.142 -21.478  0.00  0.00    +0.205 C 
BRANCH  29  30
ATOM     30  C   UNL     1      33.969 -19.758 -21.313  0.00  0.00    +0.048 C 
BRANCH  30  31
ATOM     31  C   UNL     1      33.978 -20.895 -20.292  0.00  0.00    +0.009 C 
BRANCH  31  32
ATOM     32  C   UNL     1      35.400 -21.401 -20.038  0.00  0.00    +0.026 C 
BRANCH  32  33
ATOM     33  C   UNL     1      35.553 -21.956 -18.645  0.00  0.00    -0.022 C 
ATOM     34  C   UNL     1      36.750 -21.781 -17.952  0.00  0.00    -0.004 C 
ATOM     35  C   UNL     1      34.498 -22.646 -18.049  0.00  0.00    -0.004 C 
ATOM     36  C   UNL     1      36.892 -22.295 -16.663  0.00  0.00    -0.000 C 
ATOM     37  C   UNL     1      34.638 -23.160 -16.761  0.00  0.00    -0.000 C 
ATOM     38  C   UNL     1      35.836 -22.985 -16.068  0.00  0.00    -0.000 C 
ENDBRANCH  32  33
ENDBRANCH  31  32
ENDBRANCH  30  31
ENDBRANCH  29  30
ENDBRANCH  28  29
ENDBRANCH  22  28
ENDBRANCH   3  23
TORSDOF 9
ENDMDL
MODEL 5
REMARK VINA RESULT:     -11.3      2.421      3.344
REMARK  Name = 4887
REMARK  9 active torsions:
REMARK  status: ('A' for Active; 'I' for Inactive)
REMARK    1  A    between atoms: N_2  and  C_8
REMARK    2  A    between atoms: C_3  and  C_23
REMARK    3  A    between atoms: C_14  and  C_20
REMARK    4  A    between atoms: C_22  and  O_28
REMARK    5  A    between atoms: O_28  and  C_29
REMARK    6  A    between atoms: C_29  and  C_30
REMARK    7  A    between atoms: C_30  and  C_31
REMARK    8  A    between atoms: C_31  and  C_32
REMARK    9  A    between atoms: C_32  and  C_33
REMARK                            x       y       z     vdW  Elec       q    Type
REMARK                         _______ _______ _______ _____ _____    ______ ____
ROOT
ATOM      1  O   UNL     1      37.562 -21.214 -16.625  0.00  0.00    -0.270 OA
ATOM      2  N   UNL     1      36.478 -23.300 -16.659  0.00  0.00    -0.278 N 
ATOM      3  C   UNL     1      36.802 -22.026 -17.142  0.00  0.00    +0.250 C 
ATOM      4  H   UNL     1      35.846 -23.821 -17.205  0.00  0.00    +0.155 HD
ENDROOT
BRANCH   2   8
ATOM      5  O   UNL     1      34.749 -23.910 -14.619  0.00  0.00    -0.442 OA
ATOM      6  O   UNL     1      35.976 -25.722 -11.185  0.00  0.00    -0.286 OA
ATOM      7  C   UNL     1      36.071 -24.236 -14.452  0.00  0.00    +0.163 C 
ATOM      8  C   UNL     1      36.942 -23.921 -15.496  0.00  0.00    +0.086 C 
ATOM      9  C   UNL     1      36.559 -24.857 -13.304  0.00  0.00    +0.075 C 
ATOM     10  C   UNL     1      38.298 -24.228 -15.385  0.00  0.00    +0.018 C 
ATOM     11  C   UNL     1      37.916 -25.166 -13.189  0.00  0.00    +0.006 C 
ATOM     12  C   UNL     1      35.619 -25.177 -12.220  0.00  0.00    +0.202 C 
ATOM     13  C   UNL     1      38.784 -24.849 -14.234  0.00  0.00    +0.002 C 
ATOM     14  C   UNL     1      33.852 -24.208 -13.599  0.00  0.00    +0.213 C 
ATOM     15  C   UNL     1      34.209 -24.804 -12.449  0.00  0.00    +0.090 C 
BRANCH  14  20
ATOM     16  N   UNL     1      31.397 -24.148 -13.233  0.00  0.00    -0.107 NA
ATOM     17  N   UNL     1      32.267 -23.005 -14.984  0.00  0.00    -0.084 NA
ATOM     18  N   UNL     1      30.484 -23.499 -13.970  0.00  0.00    -0.140 N 
ATOM     19  N   UNL     1      30.955 -22.809 -15.018  0.00  0.00    -0.022 NA
ATOM     20  C   UNL     1      32.499 -23.809 -13.907  0.00  0.00    +0.109 C 
ATOM     21  H   UNL     1      29.524 -23.528 -13.754  0.00  0.00    +0.197 HD
ENDBRANCH  14  20
ENDBRANCH   2   8
BRANCH   3  23
ATOM     22  C   UNL     1      34.841 -20.891 -20.768  0.00  0.00    +0.139 C 
ATOM     23  C   UNL     1      36.120 -21.632 -18.402  0.00  0.00    +0.054 C 
ATOM     24  C   UNL     1      36.158 -20.494 -20.533  0.00  0.00    +0.037 C 
ATOM     25  C   UNL     1      34.164 -21.658 -19.820  0.00  0.00    +0.037 C 
ATOM     26  C   UNL     1      36.797 -20.864 -19.350  0.00  0.00    +0.008 C 
ATOM     27  C   UNL     1      34.803 -22.029 -18.637  0.00  0.00    +0.008 C 
BRANCH  22  28
ATOM     28  O   UNL     1      34.218 -20.532 -21.923  0.00  0.00    -0.475 OA
BRANCH  28  29
ATOM     29  C   UNL     1      34.350 -19.172 -22.336  0.00  0.00    +0.205 C 
BRANCH  29  30
ATOM     30  C   UNL     1      34.844 -19.142 -23.776  0.00  0.00    +0.048 C 
BRANCH  30  31
ATOM     31  C   UNL     1      34.061 -18.136 -24.618  0.00  0.00    +0.009 C 
BRANCH  31  32
ATOM     32  C   UNL     1      34.869 -16.855 -24.844  0.00  0.00    +0.026 C 
BRANCH  32  33
ATOM     33  C   UNL     1      34.300 -15.694 -24.067  0.00  0.00    -0.022 C 
ATOM     34  C   UNL     1      33.422 -14.805 -24.686  0.00  0.00    -0.004 C 
ATOM     35  C   UNL     1      34.652 -15.509 -22.731  0.00  0.00    -0.004 C 
ATOM     36  C   UNL     1      32.896 -13.731 -23.970  0.00  0.00    -0.000 C 
ATOM     37  C   UNL     1      34.126 -14.436 -22.013  0.00  0.00    -0.000 C 
ATOM     38  C   UNL     1      33.248 -13.546 -22.632  0.00  0.00    -0.000 C 
ENDBRANCH  32  33
ENDBRANCH  31  32
ENDBRANCH  30  31
ENDBRANCH  29  30
ENDBRANCH  28  29
ENDBRANCH  22  28
ENDBRANCH   3  23
TORSDOF 9
ENDMDL
MODEL 6
REMARK VINA RESULT:     -11.0      1.752      2.390
REMARK  Name = 4887
REMARK  9 active torsions:
REMARK  status: ('A' for Active; 'I' for Inactive)
REMARK    1  A    between atoms: N_2  and  C_8
REMARK    2  A    between atoms: C_3  and  C_23
REMARK    3  A    between atoms: C_14  and  C_20
REMARK    4  A    between atoms: C_22  and  O_28
REMARK    5  A    between atoms: O_28  and  C_29
REMARK    6  A    between atoms: C_29  and  C_30
REMARK    7  A    between atoms: C_30  and  C_31
REMARK    8  A    between atoms: C_31  and  C_32
REMARK    9  A    between atoms: C_32  and  C_33
REMARK                            x       y       z     vdW  Elec       q    Type
REMARK                         _______ _______ _______ _____ _____    ______ ____
ROOT
ATOM      1  O   UNL     1      37.282 -22.129 -18.706  0.00  0.00    -0.270 OA
ATOM      2  N   UNL     1      35.186 -22.094 -17.643  0.00  0.00    -0.278 N 
ATOM      3  C   UNL     1      36.098 -21.812 -18.666  0.00  0.00    +0.250 C 
ATOM      4  H   UNL     1      34.269 -21.762 -17.777  0.00  0.00    +0.155 HD
ENDROOT
BRANCH   2   8
ATOM      5  O   UNL     1      33.089 -22.966 -16.104  0.00  0.00    -0.442 OA
ATOM      6  O   UNL     1      33.635 -25.004 -12.621  0.00  0.00    -0.286 OA
ATOM      7  C   UNL     1      34.359 -23.238 -15.662  0.00  0.00    +0.163 C 
ATOM      8  C   UNL     1      35.418 -22.790 -16.453  0.00  0.00    +0.086 C 
ATOM      9  C   UNL     1      34.618 -23.929 -14.481  0.00  0.00    +0.075 C 
ATOM     10  C   UNL     1      36.732 -23.035 -16.056  0.00  0.00    +0.018 C 
ATOM     11  C   UNL     1      35.932 -24.178 -14.080  0.00  0.00    +0.006 C 
ATOM     12  C   UNL     1      33.483 -24.390 -13.668  0.00  0.00    +0.202 C 
ATOM     13  C   UNL     1      36.989 -23.728 -14.872  0.00  0.00    +0.002 C 
ATOM     14  C   UNL     1      32.009 -23.396 -15.341  0.00  0.00    +0.213 C 
ATOM     15  C   UNL     1      32.138 -24.071 -14.187  0.00  0.00    +0.090 C 
BRANCH  14  20
ATOM     16  N   UNL     1      30.475 -22.862 -17.220  0.00  0.00    -0.107 NA
ATOM     17  N   UNL     1      29.656 -22.856 -15.108  0.00  0.00    -0.084 NA
ATOM     18  N   UNL     1      29.171 -22.558 -17.140  0.00  0.00    -0.140 N 
ATOM     19  N   UNL     1      28.645 -22.543 -15.908  0.00  0.00    -0.022 NA
ATOM     20  C   UNL     1      30.735 -23.041 -15.922  0.00  0.00    +0.109 C 
ATOM     21  H   UNL     1      28.633 -22.358 -17.939  0.00  0.00    +0.197 HD
ENDBRANCH  14  20
ENDBRANCH   2   8
BRANCH   3  23
ATOM     22  C   UNL     1      34.532 -19.545 -21.936  0.00  0.00    +0.139 C 
ATOM     23  C   UNL     1      35.554 -21.023 -19.803  0.00  0.00    +0.054 C 
ATOM     24  C   UNL     1      33.682 -20.344 -21.171  0.00  0.00    +0.037 C 
ATOM     25  C   UNL     1      35.892 -19.485 -21.634  0.00  0.00    +0.037 C 
ATOM     26  C   UNL     1      34.193 -21.084 -20.104  0.00  0.00    +0.008 C 
ATOM     27  C   UNL     1      36.404 -20.224 -20.568  0.00  0.00    +0.008 C 
BRANCH  22  28
ATOM     28  O   UNL     1      34.033 -18.821 -22.975  0.00  0.00    -0.475 OA
BRANCH  28  29
ATOM     29  C   UNL     1      34.566 -17.513 -23.170  0.00  0.00    +0.205 C 
BRANCH  29  30
ATOM     30  C   UNL     1      34.666 -17.241 -24.664  0.00  0.00    +0.048 C 
BRANCH  30  31
ATOM     31  C   UNL     1      33.700 -16.141 -25.103  0.00  0.00    +0.009 C 
BRANCH  31  32
ATOM     32  C   UNL     1      33.685 -14.985 -24.099  0.00  0.00    +0.026 C 
BRANCH  32  33
ATOM     33  C   UNL     1      33.727 -13.646 -24.792  0.00  0.00    -0.022 C 
ATOM     34  C   UNL     1      33.507 -13.566 -26.167  0.00  0.00    -0.004 C 
ATOM     35  C   UNL     1      33.989 -12.490 -24.059  0.00  0.00    -0.004 C 
ATOM     36  C   UNL     1      33.547 -12.328 -26.809  0.00  0.00    -0.000 C 
ATOM     37  C   UNL     1      34.028 -11.252 -24.700  0.00  0.00    -0.000 C 
ATOM     38  C   UNL     1      33.807 -11.171 -26.074  0.00  0.00    -0.000 C 
ENDBRANCH  32  33
ENDBRANCH  31  32
ENDBRANCH  30  31
ENDBRANCH  29  30
ENDBRANCH  28  29
ENDBRANCH  22  28
ENDBRANCH   3  23
TORSDOF 9
ENDMDL
MODEL 7
REMARK VINA RESULT:     -10.6      2.492      4.892
REMARK  Name = 4887
REMARK  9 active torsions:
REMARK  status: ('A' for Active; 'I' for Inactive)
REMARK    1  A    between atoms: N_2  and  C_8
REMARK    2  A    between atoms: C_3  and  C_23
REMARK    3  A    between atoms: C_14  and  C_20
REMARK    4  A    between atoms: C_22  and  O_28
REMARK    5  A    between atoms: O_28  and  C_29
REMARK    6  A    between atoms: C_29  and  C_30
REMARK    7  A    between atoms: C_30  and  C_31
REMARK    8  A    between atoms: C_31  and  C_32
REMARK    9  A    between atoms: C_32  and  C_33
REMARK                            x       y       z     vdW  Elec       q    Type
REMARK                         _______ _______ _______ _____ _____    ______ ____
ROOT
ATOM      1  O   UNL     1      33.641 -24.324 -17.994  0.00  0.00    -0.270 OA
ATOM      2  N   UNL     1      33.474 -22.470 -16.559  0.00  0.00    -0.278 N 
ATOM      3  C   UNL     1      33.700 -23.118 -17.779  0.00  0.00    +0.250 C 
ATOM      4  H   UNL     1      33.563 -21.490 -16.567  0.00  0.00    +0.155 HD
ENDROOT
BRANCH   2   8
ATOM      5  O   UNL     1      35.391 -23.670 -15.008  0.00  0.00    -0.442 OA
ATOM      6  O   UNL     1      34.538 -25.377 -11.410  0.00  0.00    -0.286 OA
ATOM      7  C   UNL     1      34.105 -23.658 -14.533  0.00  0.00    +0.163 C 
ATOM      8  C   UNL     1      33.137 -23.045 -15.330  0.00  0.00    +0.086 C 
ATOM      9  C   UNL     1      33.743 -24.223 -13.312  0.00  0.00    +0.075 C 
ATOM     10  C   UNL     1      31.811 -23.001 -14.901  0.00  0.00    +0.018 C 
ATOM     11  C   UNL     1      32.416 -24.181 -12.878  0.00  0.00    +0.006 C 
ATOM     12  C   UNL     1      34.782 -24.862 -12.493  0.00  0.00    +0.202 C 
ATOM     13  C   UNL     1      31.450 -23.567 -13.678  0.00  0.00    +0.002 C 
ATOM     14  C   UNL     1      36.382 -24.273 -14.241  0.00  0.00    +0.213 C 
ATOM     15  C   UNL     1      36.150 -24.849 -13.049  0.00  0.00    +0.090 C 
BRANCH  14  20
ATOM     16  N   UNL     1      38.012 -23.536 -15.964  0.00  0.00    -0.107 NA
ATOM     17  N   UNL     1      38.722 -24.907 -14.306  0.00  0.00    -0.084 NA
ATOM     18  N   UNL     1      39.310 -23.859 -16.041  0.00  0.00    -0.140 N 
ATOM     19  N   UNL     1      39.774 -24.669 -15.079  0.00  0.00    -0.022 NA
ATOM     20  C   UNL     1      37.685 -24.216 -14.861  0.00  0.00    +0.109 C 
ATOM     21  H   UNL     1      39.890 -23.521 -16.761  0.00  0.00    +0.197 HD
ENDBRANCH  14  20
ENDBRANCH   2   8
BRANCH   3  23
ATOM     22  C   UNL     1      34.770 -20.563 -21.035  0.00  0.00    +0.139 C 
ATOM     23  C   UNL     1      34.072 -22.230 -18.911  0.00  0.00    +0.054 C 
ATOM     24  C   UNL     1      35.765 -21.194 -20.288  0.00  0.00    +0.037 C 
ATOM     25  C   UNL     1      33.427 -20.765 -20.721  0.00  0.00    +0.037 C 
ATOM     26  C   UNL     1      35.416 -22.027 -19.225  0.00  0.00    +0.008 C 
ATOM     27  C   UNL     1      33.077 -21.599 -19.659  0.00  0.00    +0.008 C 
BRANCH  22  28
ATOM     28  O   UNL     1      35.111 -19.751 -22.073  0.00  0.00    -0.475 OA
BRANCH  28  29
ATOM     29  C   UNL     1      35.908 -18.607 -21.768  0.00  0.00    +0.205 C 
BRANCH  29  30
ATOM     30  C   UNL     1      35.499 -17.465 -22.687  0.00  0.00    +0.048 C 
BRANCH  30  31
ATOM     31  C   UNL     1      34.688 -16.406 -21.943  0.00  0.00    +0.009 C 
BRANCH  31  32
ATOM     32  C   UNL     1      34.513 -15.144 -22.791  0.00  0.00    +0.026 C 
BRANCH  32  33
ATOM     33  C   UNL     1      33.485 -14.213 -22.199  0.00  0.00    -0.022 C 
ATOM     34  C   UNL     1      32.991 -14.446 -20.916  0.00  0.00    -0.004 C 
ATOM     35  C   UNL     1      33.027 -13.121 -22.934  0.00  0.00    -0.004 C 
ATOM     36  C   UNL     1      32.039 -13.587 -20.368  0.00  0.00    -0.000 C 
ATOM     37  C   UNL     1      32.076 -12.260 -22.387  0.00  0.00    -0.000 C 
ATOM     38  C   UNL     1      31.582 -12.493 -21.104  0.00  0.00    -0.000 C 
ENDBRANCH  32  33
ENDBRANCH  31  32
ENDBRANCH  30  31
ENDBRANCH  29  30
ENDBRANCH  28  29
ENDBRANCH  22  28
ENDBRANCH   3  23
TORSDOF 9
ENDMDL
MODEL 8
REMARK VINA RESULT:     -10.2      6.866     12.774
REMARK  Name = 4887
REMARK  9 active torsions:
REMARK  status: ('A' for Active; 'I' for Inactive)
REMARK    1  A    between atoms: N_2  and  C_8
REMARK    2  A    between atoms: C_3  and  C_23
REMARK    3  A    between atoms: C_14  and  C_20
REMARK    4  A    between atoms: C_22  and  O_28
REMARK    5  A    between atoms: O_28  and  C_29
REMARK    6  A    between atoms: C_29  and  C_30
REMARK    7  A    between atoms: C_30  and  C_31
REMARK    8  A    between atoms: C_31  and  C_32
REMARK    9  A    between atoms: C_32  and  C_33
REMARK                            x       y       z     vdW  Elec       q    Type
REMARK                         _______ _______ _______ _____ _____    ______ ____
ROOT
ATOM      1  O   UNL     1      34.442 -13.129 -21.312  0.00  0.00    -0.270 OA
ATOM      2  N   UNL     1      32.461 -12.643 -22.483  0.00  0.00    -0.278 N 
ATOM      3  C   UNL     1      33.611 -13.382 -22.179  0.00  0.00    +0.250 C 
ATOM      4  H   UNL     1      31.903 -12.994 -23.213  0.00  0.00    +0.155 HD
ENDROOT
BRANCH   2   8
ATOM      5  O   UNL     1      33.089 -10.194 -23.547  0.00  0.00    -0.442 OA
ATOM      6  O   UNL     1      31.834  -6.699 -21.877  0.00  0.00    -0.286 OA
ATOM      7  C   UNL     1      32.324 -10.216 -22.409  0.00  0.00    +0.163 C 
ATOM      8  C   UNL     1      32.011 -11.467 -21.876  0.00  0.00    +0.086 C 
ATOM      9  C   UNL     1      31.861  -9.059 -21.786  0.00  0.00    +0.075 C 
ATOM     10  C   UNL     1      31.236 -11.555 -20.720  0.00  0.00    +0.018 C 
ATOM     11  C   UNL     1      31.085  -9.142 -20.628  0.00  0.00    +0.006 C 
ATOM     12  C   UNL     1      32.207  -7.756 -22.369  0.00  0.00    +0.202 C 
ATOM     13  C   UNL     1      30.773 -10.394 -20.097  0.00  0.00    +0.002 C 
ATOM     14  C   UNL     1      33.423  -8.966 -24.107  0.00  0.00    +0.213 C 
ATOM     15  C   UNL     1      33.033  -7.787 -23.593  0.00  0.00    +0.090 C 
BRANCH  14  20
ATOM     16  N   UNL     1      35.020  -8.152 -25.825  0.00  0.00    -0.107 NA
ATOM     17  N   UNL     1      34.224 -10.266 -25.990  0.00  0.00    -0.084 NA
ATOM     18  N   UNL     1      35.490  -8.832 -26.880  0.00  0.00    -0.140 N 
ATOM     19  N   UNL     1      35.045 -10.088 -27.017  0.00  0.00    -0.022 NA
ATOM     20  C   UNL     1      34.231  -9.091 -25.297  0.00  0.00    +0.109 C 
ATOM     21  H   UNL     1      36.125  -8.432 -27.517  0.00  0.00    +0.197 HD
ENDBRANCH  14  20
ENDBRANCH   2   8
BRANCH   3  23
ATOM     22  C   UNL     1      34.265 -16.834 -24.615  0.00  0.00    +0.139 C 
ATOM     23  C   UNL     1      33.838 -14.582 -23.026  0.00  0.00    +0.054 C 
ATOM     24  C   UNL     1      34.850 -16.751 -23.351  0.00  0.00    +0.037 C 
ATOM     25  C   UNL     1      33.466 -15.791 -25.084  0.00  0.00    +0.037 C 
ATOM     26  C   UNL     1      34.637 -15.624 -22.557  0.00  0.00    +0.008 C 
ATOM     27  C   UNL     1      33.252 -14.665 -24.289  0.00  0.00    +0.008 C 
BRANCH  22  28
ATOM     28  O   UNL     1      34.471 -17.934 -25.389  0.00  0.00    -0.475 OA
BRANCH  28  29
ATOM     29  C   UNL     1      33.858 -19.151 -24.964  0.00  0.00    +0.205 C 
BRANCH  29  30
ATOM     30  C   UNL     1      34.932 -20.073 -24.404  0.00  0.00    +0.048 C 
BRANCH  30  31
ATOM     31  C   UNL     1      35.310 -19.693 -22.973  0.00  0.00    +0.009 C 
BRANCH  31  32
ATOM     32  C   UNL     1      34.071 -19.603 -22.079  0.00  0.00    +0.026 C 
BRANCH  32  33
ATOM     33  C   UNL     1      34.154 -20.560 -20.916  0.00  0.00    -0.022 C 
ATOM     34  C   UNL     1      35.398 -20.949 -20.420  0.00  0.00    -0.004 C 
ATOM     35  C   UNL     1      32.987 -21.056 -20.336  0.00  0.00    -0.004 C 
ATOM     36  C   UNL     1      35.476 -21.834 -19.346  0.00  0.00    -0.000 C 
ATOM     37  C   UNL     1      33.064 -21.941 -19.261  0.00  0.00    -0.000 C 
ATOM     38  C   UNL     1      34.308 -22.330 -18.766  0.00  0.00    -0.000 C 
ENDBRANCH  32  33
ENDBRANCH  31  32
ENDBRANCH  30  31
ENDBRANCH  29  30
ENDBRANCH  28  29
ENDBRANCH  22  28
ENDBRANCH   3  23
TORSDOF 9
ENDMDL
