MODEL 1
REMARK VINA RESULT:     -11.7      0.000      0.000
REMARK  Name = 24875320
REMARK  6 active torsions:
REMARK  status: ('A' for Active; 'I' for Inactive)
REMARK    1  A    between atoms: C_1  and  N_22
REMARK    2  A    between atoms: C_3  and  C_10
REMARK    3  A    between atoms: N_9  and  C_12
REMARK    4  A    between atoms: C_14  and  C_21
REMARK    5  A    between atoms: N_22  and  C_25
REMARK    6  A    between atoms: C_28  and  C_32
REMARK                            x       y       z     vdW  Elec       q    Type
REMARK                         _______ _______ _______ _____ _____    ______ ____
ROOT
ATOM      1  C   UNL     1      34.527 -23.148 -15.700  0.00  0.00    +0.044 C 
ATOM      2  C   UNL     1      33.245 -23.621 -15.981  0.00  0.00    -0.008 C 
ATOM      3  C   UNL     1      34.753 -22.403 -17.988  0.00  0.00    +0.055 C 
ATOM      4  C   UNL     1      35.281 -22.540 -16.704  0.00  0.00    +0.019 C 
ATOM      5  C   UNL     1      32.717 -23.485 -17.264  0.00  0.00    -0.003 C 
ATOM      6  C   UNL     1      33.470 -22.877 -18.268  0.00  0.00    +0.004 C 
ATOM      7  C   UNL     1      32.415 -24.275 -14.924  0.00  0.00    +0.032 C 
ENDROOT
BRANCH   3  10
ATOM      8  O   UNL     1      36.745 -22.049 -19.135  0.00  0.00    -0.270 OA
ATOM      9  N   UNL     1      34.852 -20.859 -19.849  0.00  0.00    -0.280 N 
ATOM     10  C   UNL     1      35.539 -21.771 -19.034  0.00  0.00    +0.250 C 
ATOM     11  H   UNL     1      33.895 -20.742 -19.649  0.00  0.00    +0.155 HD
BRANCH   9  12
ATOM     12  C   UNL     1      35.356 -20.082 -20.921  0.00  0.00    +0.050 C 
ATOM     13  C   UNL     1      34.618 -19.954 -22.098  0.00  0.00    +0.019 C 
ATOM     14  C   UNL     1      35.114 -19.190 -23.153  0.00  0.00    +0.073 C 
ATOM     15  C   UNL     1      36.590 -19.444 -20.800  0.00  0.00    +0.015 C 
ATOM     16  C   UNL     1      36.349 -18.551 -23.032  0.00  0.00    +0.004 C 
ATOM     17  C   UNL     1      37.086 -18.679 -21.855  0.00  0.00    +0.001 C 
BRANCH  14  21
ATOM     18  F   UNL     1      32.976 -19.007 -24.211  0.00  0.00    -0.166 F 
ATOM     19  F   UNL     1      34.619 -17.923 -25.120  0.00  0.00    -0.166 F 
ATOM     20  F   UNL     1      34.531 -20.091 -25.275  0.00  0.00    -0.166 F 
ATOM     21  C   UNL     1      34.325 -19.053 -24.411  0.00  0.00    +0.419 C 
ENDBRANCH  14  21
ENDBRANCH   9  12
ENDBRANCH   3  10
BRANCH   1  22
ATOM     22  N   UNL     1      35.078 -23.276 -14.406  0.00  0.00    -0.312 N 
ATOM     23  H   UNL     1      34.791 -22.571 -13.782  0.00  0.00    +0.152 HD
BRANCH  22  25
ATOM     24  N   UNL     1      36.429 -25.784 -12.057  0.00  0.00    -0.241 NA
ATOM     25  C   UNL     1      35.956 -24.216 -13.834  0.00  0.00    +0.068 C 
ATOM     26  C   UNL     1      37.176 -24.513 -14.432  0.00  0.00    +0.022 C 
ATOM     27  C   UNL     1      35.633 -24.873 -12.658  0.00  0.00    +0.113 C 
ATOM     28  C   UNL     1      38.022 -25.447 -13.844  0.00  0.00    +0.073 C 
ATOM     29  C   UNL     1      37.607 -26.048 -12.667  0.00  0.00    +0.103 C 
BRANCH  28  32
ATOM     30  O   UNL     1      40.121 -26.516 -13.863  0.00  0.00    -0.270 OA
ATOM     31  N   UNL     1      39.584 -25.259 -15.705  0.00  0.00    -0.325 N 
ATOM     32  C   UNL     1      39.302 -25.779 -14.443  0.00  0.00    +0.244 C 
ATOM     33  H   UNL     1      40.442 -25.464 -16.141  0.00  0.00    +0.145 HD
ATOM     34  H   UNL     1      38.924 -24.688 -16.160  0.00  0.00    +0.145 HD
ENDBRANCH  28  32
ENDBRANCH  22  25
ENDBRANCH   1  22
TORSDOF 6
ENDMDL
MODEL 2
REMARK VINA RESULT:     -11.3      1.473      2.033
REMARK  Name = 24875320
REMARK  6 active torsions:
REMARK  status: ('A' for Active; 'I' for Inactive)
REMARK    1  A    between atoms: C_1  and  N_22
REMARK    2  A    between atoms: C_3  and  C_10
REMARK    3  A    between atoms: N_9  and  C_12
REMARK    4  A    between atoms: C_14  and  C_21
REMARK    5  A    between atoms: N_22  and  C_25
REMARK    6  A    between atoms: C_28  and  C_32
REMARK                            x       y       z     vdW  Elec       q    Type
REMARK                         _______ _______ _______ _____ _____    ______ ____
ROOT
ATOM      1  C   UNL     1      33.475 -23.785 -16.331  0.00  0.00    +0.044 C 
ATOM      2  C   UNL     1      32.104 -23.544 -16.402  0.00  0.00    -0.008 C 
ATOM      3  C   UNL     1      33.804 -22.505 -18.354  0.00  0.00    +0.055 C 
ATOM      4  C   UNL     1      34.325 -23.266 -17.308  0.00  0.00    +0.019 C 
ATOM      5  C   UNL     1      31.582 -22.782 -17.447  0.00  0.00    -0.003 C 
ATOM      6  C   UNL     1      32.432 -22.263 -18.424  0.00  0.00    +0.004 C 
ATOM      7  C   UNL     1      31.170 -24.086 -15.369  0.00  0.00    +0.032 C 
ENDROOT
BRANCH   3  10
ATOM      8  O   UNL     1      35.771 -22.535 -19.596  0.00  0.00    -0.270 OA
ATOM      9  N   UNL     1      34.245 -20.802 -20.016  0.00  0.00    -0.280 N 
ATOM     10  C   UNL     1      34.690 -21.965 -19.372  0.00  0.00    +0.250 C 
ATOM     11  H   UNL     1      33.365 -20.465 -19.732  0.00  0.00    +0.155 HD
BRANCH   9  12
ATOM     12  C   UNL     1      34.898 -20.046 -21.021  0.00  0.00    +0.050 C 
ATOM     13  C   UNL     1      34.284 -19.853 -22.259  0.00  0.00    +0.019 C 
ATOM     14  C   UNL     1      34.927 -19.109 -23.248  0.00  0.00    +0.073 C 
ATOM     15  C   UNL     1      36.154 -19.493 -20.773  0.00  0.00    +0.015 C 
ATOM     16  C   UNL     1      36.184 -18.557 -22.999  0.00  0.00    +0.004 C 
ATOM     17  C   UNL     1      36.797 -18.749 -21.762  0.00  0.00    +0.001 C 
BRANCH  14  21
ATOM     18  F   UNL     1      32.916 -18.761 -24.496  0.00  0.00    -0.166 F 
ATOM     19  F   UNL     1      34.712 -17.792 -25.232  0.00  0.00    -0.166 F 
ATOM     20  F   UNL     1      34.483 -19.945 -25.429  0.00  0.00    -0.166 F 
ATOM     21  C   UNL     1      34.272 -18.904 -24.572  0.00  0.00    +0.419 C 
ENDBRANCH  14  21
ENDBRANCH   9  12
ENDBRANCH   3  10
BRANCH   1  22
ATOM     22  N   UNL     1      34.021 -24.553 -15.279  0.00  0.00    -0.312 N 
ATOM     23  H   UNL     1      33.370 -25.152 -14.847  0.00  0.00    +0.152 HD
BRANCH  22  25
ATOM     24  N   UNL     1      37.530 -25.591 -14.786  0.00  0.00    -0.241 NA
ATOM     25  C   UNL     1      35.313 -24.629 -14.727  0.00  0.00    +0.068 C 
ATOM     26  C   UNL     1      35.667 -23.862 -13.622  0.00  0.00    +0.022 C 
ATOM     27  C   UNL     1      36.273 -25.470 -15.267  0.00  0.00    +0.113 C 
ATOM     28  C   UNL     1      36.952 -23.958 -13.099  0.00  0.00    +0.073 C 
ATOM     29  C   UNL     1      37.838 -24.830 -13.711  0.00  0.00    +0.103 C 
BRANCH  28  32
ATOM     30  O   UNL     1      38.232 -22.295 -12.030  0.00  0.00    -0.270 OA
ATOM     31  N   UNL     1      36.705 -23.415 -10.737  0.00  0.00    -0.325 N 
ATOM     32  C   UNL     1      37.352 -23.171 -11.946  0.00  0.00    +0.244 C 
ATOM     33  H   UNL     1      36.950 -22.900  -9.935  0.00  0.00    +0.145 HD
ATOM     34  H   UNL     1      36.001 -24.101 -10.685  0.00  0.00    +0.145 HD
ENDBRANCH  28  32
ENDBRANCH  22  25
ENDBRANCH   1  22
TORSDOF 6
ENDMDL
MODEL 3
REMARK VINA RESULT:     -11.3      3.431      5.296
REMARK  Name = 24875320
REMARK  6 active torsions:
REMARK  status: ('A' for Active; 'I' for Inactive)
REMARK    1  A    between atoms: C_1  and  N_22
REMARK    2  A    between atoms: C_3  and  C_10
REMARK    3  A    between atoms: N_9  and  C_12
REMARK    4  A    between atoms: C_14  and  C_21
REMARK    5  A    between atoms: N_22  and  C_25
REMARK    6  A    between atoms: C_28  and  C_32
REMARK                            x       y       z     vdW  Elec       q    Type
REMARK                         _______ _______ _______ _____ _____    ______ ____
ROOT
ATOM      1  C   UNL     1      34.664 -23.062 -17.278  0.00  0.00    +0.044 C 
ATOM      2  C   UNL     1      35.992 -22.846 -16.911  0.00  0.00    -0.008 C 
ATOM      3  C   UNL     1      34.929 -21.535 -19.133  0.00  0.00    +0.055 C 
ATOM      4  C   UNL     1      34.133 -22.406 -18.389  0.00  0.00    +0.019 C 
ATOM      5  C   UNL     1      36.789 -21.975 -17.654  0.00  0.00    -0.003 C 
ATOM      6  C   UNL     1      36.258 -21.320 -18.765  0.00  0.00    +0.004 C 
ATOM      7  C   UNL     1      36.588 -23.536 -15.727  0.00  0.00    +0.032 C 
ENDROOT
BRANCH   3  10
ATOM      8  O   UNL     1      33.220 -21.125 -20.656  0.00  0.00    -0.270 OA
ATOM      9  N   UNL     1      35.223 -19.932 -20.921  0.00  0.00    -0.280 N 
ATOM     10  C   UNL     1      34.375 -20.851 -20.289  0.00  0.00    +0.250 C 
ATOM     11  H   UNL     1      36.113 -19.820 -20.514  0.00  0.00    +0.155 HD
BRANCH   9  12
ATOM     12  C   UNL     1      34.969 -19.143 -22.070  0.00  0.00    +0.050 C 
ATOM     13  C   UNL     1      34.880 -17.755 -21.959  0.00  0.00    +0.019 C 
ATOM     14  C   UNL     1      34.630 -16.979 -23.090  0.00  0.00    +0.073 C 
ATOM     15  C   UNL     1      34.808 -19.754 -23.314  0.00  0.00    +0.015 C 
ATOM     16  C   UNL     1      34.469 -17.591 -24.334  0.00  0.00    +0.004 C 
ATOM     17  C   UNL     1      34.558 -18.978 -24.445  0.00  0.00    +0.001 C 
BRANCH  14  21
ATOM     18  F   UNL     1      35.348 -14.823 -23.838  0.00  0.00    -0.166 F 
ATOM     19  F   UNL     1      33.280 -15.009 -23.210  0.00  0.00    -0.166 F 
ATOM     20  F   UNL     1      34.872 -15.046 -21.728  0.00  0.00    -0.166 F 
ATOM     21  C   UNL     1      34.534 -15.496 -22.972  0.00  0.00    +0.419 C 
ENDBRANCH  14  21
ENDBRANCH   9  12
ENDBRANCH   3  10
BRANCH   1  22
ATOM     22  N   UNL     1      33.843 -23.940 -16.538  0.00  0.00    -0.312 N 
ATOM     23  H   UNL     1      34.112 -24.885 -16.605  0.00  0.00    +0.152 HD
BRANCH  22  25
ATOM     24  N   UNL     1      31.744 -23.711 -13.508  0.00  0.00    -0.241 NA
ATOM     25  C   UNL     1      32.716 -23.730 -15.721  0.00  0.00    +0.068 C 
ATOM     26  C   UNL     1      31.497 -23.347 -16.269  0.00  0.00    +0.022 C 
ATOM     27  C   UNL     1      32.787 -23.897 -14.348  0.00  0.00    +0.113 C 
ATOM     28  C   UNL     1      30.400 -23.145 -15.437  0.00  0.00    +0.073 C 
ATOM     29  C   UNL     1      30.574 -23.339 -14.076  0.00  0.00    +0.103 C 
BRANCH  28  32
ATOM     30  O   UNL     1      28.312 -22.064 -15.313  0.00  0.00    -0.270 OA
ATOM     31  N   UNL     1      28.806 -23.136 -17.279  0.00  0.00    -0.325 N 
ATOM     32  C   UNL     1      29.113 -22.746 -15.977  0.00  0.00    +0.244 C 
ATOM     33  H   UNL     1      27.942 -22.882 -17.678  0.00  0.00    +0.145 HD
ATOM     34  H   UNL     1      29.453 -23.664 -17.801  0.00  0.00    +0.145 HD
ENDBRANCH  28  32
ENDBRANCH  22  25
ENDBRANCH   1  22
TORSDOF 6
ENDMDL
MODEL 4
REMARK VINA RESULT:     -11.1      2.558      5.019
REMARK  Name = 24875320
REMARK  6 active torsions:
REMARK  status: ('A' for Active; 'I' for Inactive)
REMARK    1  A    between atoms: C_1  and  N_22
REMARK    2  A    between atoms: C_3  and  C_10
REMARK    3  A    between atoms: N_9  and  C_12
REMARK    4  A    between atoms: C_14  and  C_21
REMARK    5  A    between atoms: N_22  and  C_25
REMARK    6  A    between atoms: C_28  and  C_32
REMARK                            x       y       z     vdW  Elec       q    Type
REMARK                         _______ _______ _______ _____ _____    ______ ____
ROOT
ATOM      1  C   UNL     1      35.345 -24.440 -14.916  0.00  0.00    +0.044 C 
ATOM      2  C   UNL     1      36.617 -24.799 -14.468  0.00  0.00    -0.008 C 
ATOM      3  C   UNL     1      36.336 -22.896 -16.489  0.00  0.00    +0.055 C 
ATOM      4  C   UNL     1      35.206 -23.488 -15.926  0.00  0.00    +0.019 C 
ATOM      5  C   UNL     1      37.747 -24.207 -15.030  0.00  0.00    -0.003 C 
ATOM      6  C   UNL     1      37.608 -23.255 -16.040  0.00  0.00    +0.004 C 
ATOM      7  C   UNL     1      36.796 -25.817 -13.389  0.00  0.00    +0.032 C 
ENDROOT
BRANCH   3  10
ATOM      8  O   UNL     1      36.972 -20.939 -17.574  0.00  0.00    -0.270 OA
ATOM      9  N   UNL     1      35.135 -22.114 -18.439  0.00  0.00    -0.280 N 
ATOM     10  C   UNL     1      36.190 -21.903 -17.540  0.00  0.00    +0.250 C 
ATOM     11  H   UNL     1      34.599 -22.926 -18.286  0.00  0.00    +0.155 HD
BRANCH   9  12
ATOM     12  C   UNL     1      34.738 -21.312 -19.538  0.00  0.00    +0.050 C 
ATOM     13  C   UNL     1      35.683 -20.543 -20.218  0.00  0.00    +0.019 C 
ATOM     14  C   UNL     1      35.292 -19.754 -21.299  0.00  0.00    +0.073 C 
ATOM     15  C   UNL     1      33.403 -21.292 -19.939  0.00  0.00    +0.015 C 
ATOM     16  C   UNL     1      33.955 -19.734 -21.700  0.00  0.00    +0.004 C 
ATOM     17  C   UNL     1      33.012 -20.502 -21.020  0.00  0.00    +0.001 C 
BRANCH  14  21
ATOM     18  F   UNL     1      36.130 -17.587 -21.866  0.00  0.00    -0.166 F 
ATOM     19  F   UNL     1      37.587 -19.177 -21.639  0.00  0.00    -0.166 F 
ATOM     20  F   UNL     1      36.278 -19.146 -23.375  0.00  0.00    -0.166 F 
ATOM     21  C   UNL     1      36.300 -18.932 -22.027  0.00  0.00    +0.419 C 
ENDBRANCH  14  21
ENDBRANCH   9  12
ENDBRANCH   3  10
BRANCH   1  22
ATOM     22  N   UNL     1      34.190 -25.030 -14.359  0.00  0.00    -0.312 N 
ATOM     23  H   UNL     1      34.381 -25.784 -13.756  0.00  0.00    +0.152 HD
BRANCH  22  25
ATOM     24  N   UNL     1      30.568 -24.978 -13.643  0.00  0.00    -0.241 NA
ATOM     25  C   UNL     1      32.817 -24.751 -14.498  0.00  0.00    +0.068 C 
ATOM     26  C   UNL     1      32.342 -24.006 -15.571  0.00  0.00    +0.022 C 
ATOM     27  C   UNL     1      31.897 -25.210 -13.569  0.00  0.00    +0.113 C 
ATOM     28  C   UNL     1      30.981 -23.745 -15.681  0.00  0.00    +0.073 C 
ATOM     29  C   UNL     1      30.142 -24.250 -14.700  0.00  0.00    +0.103 C 
BRANCH  28  32
ATOM     30  O   UNL     1      31.203 -22.460 -17.642  0.00  0.00    -0.270 OA
ATOM     31  N   UNL     1      29.071 -22.828 -16.884  0.00  0.00    -0.325 N 
ATOM     32  C   UNL     1      30.453 -22.970 -16.790  0.00  0.00    +0.244 C 
ATOM     33  H   UNL     1      28.678 -22.310 -17.623  0.00  0.00    +0.145 HD
ATOM     34  H   UNL     1      28.486 -23.247 -16.212  0.00  0.00    +0.145 HD
ENDBRANCH  28  32
ENDBRANCH  22  25
ENDBRANCH   1  22
TORSDOF 6
ENDMDL
MODEL 5
REMARK VINA RESULT:     -10.8      2.505      4.860
REMARK  Name = 24875320
REMARK  6 active torsions:
REMARK  status: ('A' for Active; 'I' for Inactive)
REMARK    1  A    between atoms: C_1  and  N_22
REMARK    2  A    between atoms: C_3  and  C_10
REMARK    3  A    between atoms: N_9  and  C_12
REMARK    4  A    between atoms: C_14  and  C_21
REMARK    5  A    between atoms: N_22  and  C_25
REMARK    6  A    between atoms: C_28  and  C_32
REMARK                            x       y       z     vdW  Elec       q    Type
REMARK                         _______ _______ _______ _____ _____    ______ ____
ROOT
ATOM      1  C   UNL     1      34.994 -23.552 -15.871  0.00  0.00    +0.044 C 
ATOM      2  C   UNL     1      36.141 -23.241 -15.141  0.00  0.00    -0.008 C 
ATOM      3  C   UNL     1      35.853 -22.302 -17.752  0.00  0.00    +0.055 C 
ATOM      4  C   UNL     1      34.850 -23.081 -17.176  0.00  0.00    +0.019 C 
ATOM      5  C   UNL     1      37.145 -22.462 -15.717  0.00  0.00    -0.003 C 
ATOM      6  C   UNL     1      37.000 -21.991 -17.022  0.00  0.00    +0.004 C 
ATOM      7  C   UNL     1      36.323 -23.732 -13.742  0.00  0.00    +0.032 C 
ENDROOT
BRANCH   3  10
ATOM      8  O   UNL     1      35.090 -22.506 -19.940  0.00  0.00    -0.270 OA
ATOM      9  N   UNL     1      36.295 -20.571 -19.385  0.00  0.00    -0.280 N 
ATOM     10  C   UNL     1      35.702 -21.811 -19.112  0.00  0.00    +0.250 C 
ATOM     11  H   UNL     1      36.747 -20.136 -18.625  0.00  0.00    +0.155 HD
BRANCH   9  12
ATOM     12  C   UNL     1      36.332 -19.861 -20.610  0.00  0.00    +0.050 C 
ATOM     13  C   UNL     1      35.228 -19.881 -21.463  0.00  0.00    +0.019 C 
ATOM     14  C   UNL     1      35.264 -19.182 -22.669  0.00  0.00    +0.073 C 
ATOM     15  C   UNL     1      37.473 -19.142 -20.966  0.00  0.00    +0.015 C 
ATOM     16  C   UNL     1      36.406 -18.463 -23.024  0.00  0.00    +0.004 C 
ATOM     17  C   UNL     1      37.510 -18.443 -22.172  0.00  0.00    +0.001 C 
BRANCH  14  21
ATOM     18  F   UNL     1      34.258 -19.989 -24.683  0.00  0.00    -0.166 F 
ATOM     19  F   UNL     1      32.945 -19.668 -22.987  0.00  0.00    -0.166 F 
ATOM     20  F   UNL     1      33.769 -17.965 -24.059  0.00  0.00    -0.166 F 
ATOM     21  C   UNL     1      34.085 -19.204 -23.580  0.00  0.00    +0.419 C 
ENDBRANCH  14  21
ENDBRANCH   9  12
ENDBRANCH   3  10
BRANCH   1  22
ATOM     22  N   UNL     1      33.969 -24.341 -15.305  0.00  0.00    -0.312 N 
ATOM     23  H   UNL     1      34.242 -25.268 -15.115  0.00  0.00    +0.152 HD
BRANCH  22  25
ATOM     24  N   UNL     1      30.976 -23.721 -13.232  0.00  0.00    -0.241 NA
ATOM     25  C   UNL     1      32.634 -24.061 -14.958  0.00  0.00    +0.068 C 
ATOM     26  C   UNL     1      31.668 -23.853 -15.937  0.00  0.00    +0.022 C 
ATOM     27  C   UNL     1      32.240 -23.985 -13.632  0.00  0.00    +0.113 C 
ATOM     28  C   UNL     1      30.357 -23.577 -15.564  0.00  0.00    +0.073 C 
ATOM     29  C   UNL     1      30.065 -23.524 -14.211  0.00  0.00    +0.103 C 
BRANCH  28  32
ATOM     30  O   UNL     1      29.362 -22.375 -17.329  0.00  0.00    -0.270 OA
ATOM     31  N   UNL     1      28.295 -24.287 -16.649  0.00  0.00    -0.325 N 
ATOM     32  C   UNL     1      29.326 -23.355 -16.562  0.00  0.00    +0.244 C 
ATOM     33  H   UNL     1      27.578 -24.169 -17.314  0.00  0.00    +0.145 HD
ATOM     34  H   UNL     1      28.283 -25.066 -16.047  0.00  0.00    +0.145 HD
ENDBRANCH  28  32
ENDBRANCH  22  25
ENDBRANCH   1  22
TORSDOF 6
ENDMDL
MODEL 6
REMARK VINA RESULT:     -10.7      4.897     10.429
REMARK  Name = 24875320
REMARK  6 active torsions:
REMARK  status: ('A' for Active; 'I' for Inactive)
REMARK    1  A    between atoms: C_1  and  N_22
REMARK    2  A    between atoms: C_3  and  C_10
REMARK    3  A    between atoms: N_9  and  C_12
REMARK    4  A    between atoms: C_14  and  C_21
REMARK    5  A    between atoms: N_22  and  C_25
REMARK    6  A    between atoms: C_28  and  C_32
REMARK                            x       y       z     vdW  Elec       q    Type
REMARK                         _______ _______ _______ _____ _____    ______ ____
ROOT
ATOM      1  C   UNL     1      35.196 -19.645 -21.573  0.00  0.00    +0.044 C 
ATOM      2  C   UNL     1      36.526 -19.771 -21.176  0.00  0.00    -0.008 C 
ATOM      3  C   UNL     1      34.542 -21.254 -19.893  0.00  0.00    +0.055 C 
ATOM      4  C   UNL     1      34.204 -20.387 -20.932  0.00  0.00    +0.019 C 
ATOM      5  C   UNL     1      36.866 -20.637 -20.137  0.00  0.00    -0.003 C 
ATOM      6  C   UNL     1      35.874 -21.380 -19.496  0.00  0.00    +0.004 C 
ATOM      7  C   UNL     1      37.609 -18.987 -21.844  0.00  0.00    +0.032 C 
ENDROOT
BRANCH   3  10
ATOM      8  O   UNL     1      32.496 -22.359 -19.864  0.00  0.00    -0.270 OA
ATOM      9  N   UNL     1      33.742 -22.324 -17.876  0.00  0.00    -0.280 N 
ATOM     10  C   UNL     1      33.509 -22.028 -19.226  0.00  0.00    +0.250 C 
ATOM     11  H   UNL     1      34.593 -21.995 -17.506  0.00  0.00    +0.155 HD
BRANCH   9  12
ATOM     12  C   UNL     1      32.912 -23.034 -16.972  0.00  0.00    +0.050 C 
ATOM     13  C   UNL     1      31.524 -22.950 -17.086  0.00  0.00    +0.019 C 
ATOM     14  C   UNL     1      30.707 -23.648 -16.197  0.00  0.00    +0.073 C 
ATOM     15  C   UNL     1      33.483 -23.816 -15.969  0.00  0.00    +0.015 C 
ATOM     16  C   UNL     1      31.279 -24.431 -15.193  0.00  0.00    +0.004 C 
ATOM     17  C   UNL     1      32.667 -24.515 -15.080  0.00  0.00    +0.001 C 
BRANCH  14  21
ATOM     18  F   UNL     1      28.616 -24.767 -16.505  0.00  0.00    -0.166 F 
ATOM     19  F   UNL     1      28.618 -23.021 -15.217  0.00  0.00    -0.166 F 
ATOM     20  F   UNL     1      28.829 -22.783 -17.369  0.00  0.00    -0.166 F 
ATOM     21  C   UNL     1      29.224 -23.559 -16.318  0.00  0.00    +0.419 C 
ENDBRANCH  14  21
ENDBRANCH   9  12
ENDBRANCH   3  10
BRANCH   1  22
ATOM     22  N   UNL     1      34.834 -18.771 -22.622  0.00  0.00    -0.312 N 
ATOM     23  H   UNL     1      34.696 -19.225 -23.486  0.00  0.00    +0.152 HD
BRANCH  22  25
ATOM     24  N   UNL     1      34.570 -15.257 -21.522  0.00  0.00    -0.241 NA
ATOM     25  C   UNL     1      34.632 -17.379 -22.676  0.00  0.00    +0.068 C 
ATOM     26  C   UNL     1      34.308 -16.748 -23.871  0.00  0.00    +0.022 C 
ATOM     27  C   UNL     1      34.750 -16.596 -21.539  0.00  0.00    +0.113 C 
ATOM     28  C   UNL     1      34.116 -15.371 -23.893  0.00  0.00    +0.073 C 
ATOM     29  C   UNL     1      34.256 -14.677 -22.702  0.00  0.00    +0.103 C 
BRANCH  28  32
ATOM     30  O   UNL     1      33.672 -15.292 -26.205  0.00  0.00    -0.270 OA
ATOM     31  N   UNL     1      33.551 -13.308 -25.061  0.00  0.00    -0.325 N 
ATOM     32  C   UNL     1      33.776 -14.681 -25.125  0.00  0.00    +0.244 C 
ATOM     33  H   UNL     1      33.318 -12.808 -25.876  0.00  0.00    +0.145 HD
ATOM     34  H   UNL     1      33.623 -12.837 -24.199  0.00  0.00    +0.145 HD
ENDBRANCH  28  32
ENDBRANCH  22  25
ENDBRANCH   1  22
TORSDOF 6
ENDMDL
MODEL 7
REMARK VINA RESULT:     -10.7      7.658     13.360
REMARK  Name = 24875320
REMARK  6 active torsions:
REMARK  status: ('A' for Active; 'I' for Inactive)
REMARK    1  A    between atoms: C_1  and  N_22
REMARK    2  A    between atoms: C_3  and  C_10
REMARK    3  A    between atoms: N_9  and  C_12
REMARK    4  A    between atoms: C_14  and  C_21
REMARK    5  A    between atoms: N_22  and  C_25
REMARK    6  A    between atoms: C_28  and  C_32
REMARK                            x       y       z     vdW  Elec       q    Type
REMARK                         _______ _______ _______ _____ _____    ______ ____
ROOT
ATOM      1  C   UNL     1      34.033 -12.964 -24.277  0.00  0.00    +0.044 C 
ATOM      2  C   UNL     1      33.676 -13.463 -25.529  0.00  0.00    -0.008 C 
ATOM      3  C   UNL     1      34.284 -15.220 -23.449  0.00  0.00    +0.055 C 
ATOM      4  C   UNL     1      34.337 -13.843 -23.237  0.00  0.00    +0.019 C 
ATOM      5  C   UNL     1      33.623 -14.840 -25.742  0.00  0.00    -0.003 C 
ATOM      6  C   UNL     1      33.926 -15.719 -24.702  0.00  0.00    +0.004 C 
ATOM      7  C   UNL     1      33.347 -12.545 -26.661  0.00  0.00    +0.032 C 
ENDROOT
BRANCH   3  10
ATOM      8  O   UNL     1      34.634 -15.704 -21.201  0.00  0.00    -0.270 OA
ATOM      9  N   UNL     1      34.866 -17.460 -22.741  0.00  0.00    -0.280 N 
ATOM     10  C   UNL     1      34.600 -16.136 -22.365  0.00  0.00    +0.250 C 
ATOM     11  H   UNL     1      34.799 -17.654 -23.704  0.00  0.00    +0.155 HD
BRANCH   9  12
ATOM     12  C   UNL     1      35.222 -18.556 -21.916  0.00  0.00    +0.050 C 
ATOM     13  C   UNL     1      34.236 -19.425 -21.447  0.00  0.00    +0.019 C 
ATOM     14  C   UNL     1      34.586 -20.504 -20.635  0.00  0.00    +0.073 C 
ATOM     15  C   UNL     1      36.557 -18.766 -21.572  0.00  0.00    +0.015 C 
ATOM     16  C   UNL     1      35.923 -20.713 -20.292  0.00  0.00    +0.004 C 
ATOM     17  C   UNL     1      36.907 -19.844 -20.760  0.00  0.00    +0.001 C 
BRANCH  14  21
ATOM     18  F   UNL     1      33.248 -21.274 -18.808  0.00  0.00    -0.166 F 
ATOM     19  F   UNL     1      32.335 -21.299 -20.776  0.00  0.00    -0.166 F 
ATOM     20  F   UNL     1      33.881 -22.746 -20.278  0.00  0.00    -0.166 F 
ATOM     21  C   UNL     1      33.534 -21.433 -20.134  0.00  0.00    +0.419 C 
ENDBRANCH  14  21
ENDBRANCH   9  12
ENDBRANCH   3  10
BRANCH   1  22
ATOM     22  N   UNL     1      34.093 -11.572 -24.043  0.00  0.00    -0.312 N 
ATOM     23  H   UNL     1      34.989 -11.187 -24.173  0.00  0.00    +0.152 HD
BRANCH  22  25
ATOM     24  N   UNL     1      31.298 -10.019 -22.195  0.00  0.00    -0.241 NA
ATOM     25  C   UNL     1      33.121 -10.628 -23.661  0.00  0.00    +0.068 C 
ATOM     26  C   UNL     1      33.004  -9.412 -24.325  0.00  0.00    +0.022 C 
ATOM     27  C   UNL     1      32.252 -10.881 -22.612  0.00  0.00    +0.113 C 
ATOM     28  C   UNL     1      32.035  -8.498 -23.924  0.00  0.00    +0.073 C 
ATOM     29  C   UNL     1      31.214  -8.847 -22.864  0.00  0.00    +0.103 C 
BRANCH  28  32
ATOM     30  O   UNL     1      31.621  -7.150 -25.810  0.00  0.00    -0.270 OA
ATOM     31  N   UNL     1      32.035  -6.064 -23.834  0.00  0.00    -0.325 N 
ATOM     32  C   UNL     1      31.887  -7.220 -24.597  0.00  0.00    +0.244 C 
ATOM     33  H   UNL     1      31.941  -5.179 -24.256  0.00  0.00    +0.145 HD
ATOM     34  H   UNL     1      32.233  -6.130 -22.871  0.00  0.00    +0.145 HD
ENDBRANCH  28  32
ENDBRANCH  22  25
ENDBRANCH   1  22
TORSDOF 6
ENDMDL
MODEL 8
REMARK VINA RESULT:     -10.7      7.074     12.755
REMARK  Name = 24875320
REMARK  6 active torsions:
REMARK  status: ('A' for Active; 'I' for Inactive)
REMARK    1  A    between atoms: C_1  and  N_22
REMARK    2  A    between atoms: C_3  and  C_10
REMARK    3  A    between atoms: N_9  and  C_12
REMARK    4  A    between atoms: C_14  and  C_21
REMARK    5  A    between atoms: N_22  and  C_25
REMARK    6  A    between atoms: C_28  and  C_32
REMARK                            x       y       z     vdW  Elec       q    Type
REMARK                         _______ _______ _______ _____ _____    ______ ____
ROOT
ATOM      1  C   UNL     1      34.070 -13.036 -24.517  0.00  0.00    +0.044 C 
ATOM      2  C   UNL     1      33.644 -13.575 -25.730  0.00  0.00    -0.008 C 
ATOM      3  C   UNL     1      34.277 -15.263 -23.601  0.00  0.00    +0.055 C 
ATOM      4  C   UNL     1      34.387 -13.881 -23.452  0.00  0.00    +0.019 C 
ATOM      5  C   UNL     1      33.534 -14.957 -25.880  0.00  0.00    -0.003 C 
ATOM      6  C   UNL     1      33.850 -15.802 -24.816  0.00  0.00    +0.004 C 
ATOM      7  C   UNL     1      33.299 -12.695 -26.887  0.00  0.00    +0.032 C 
ENDROOT
BRANCH   3  10
ATOM      8  O   UNL     1      34.644 -15.675 -21.342  0.00  0.00    -0.270 OA
ATOM      9  N   UNL     1      34.881 -17.476 -22.828  0.00  0.00    -0.280 N 
ATOM     10  C   UNL     1      34.606 -16.143 -22.492  0.00  0.00    +0.250 C 
ATOM     11  H   UNL     1      34.809 -17.699 -23.784  0.00  0.00    +0.155 HD
BRANCH   9  12
ATOM     12  C   UNL     1      35.249 -18.543 -21.972  0.00  0.00    +0.050 C 
ATOM     13  C   UNL     1      34.278 -19.426 -21.499  0.00  0.00    +0.019 C 
ATOM     14  C   UNL     1      34.641 -20.476 -20.656  0.00  0.00    +0.073 C 
ATOM     15  C   UNL     1      36.583 -18.712 -21.603  0.00  0.00    +0.015 C 
ATOM     16  C   UNL     1      35.976 -20.644 -20.287  0.00  0.00    +0.004 C 
ATOM     17  C   UNL     1      36.946 -19.762 -20.760  0.00  0.00    +0.001 C 
BRANCH  14  21
ATOM     18  F   UNL     1      33.350 -21.291 -18.815  0.00  0.00    -0.166 F 
ATOM     19  F   UNL     1      32.389 -21.274 -20.759  0.00  0.00    -0.166 F 
ATOM     20  F   UNL     1      33.950 -22.728 -20.332  0.00  0.00    -0.166 F 
ATOM     21  C   UNL     1      33.603 -21.420 -20.150  0.00  0.00    +0.419 C 
ENDBRANCH  14  21
ENDBRANCH   9  12
ENDBRANCH   3  10
BRANCH   1  22
ATOM     22  N   UNL     1      34.188 -11.639 -24.348  0.00  0.00    -0.312 N 
ATOM     23  H   UNL     1      35.046 -11.273 -24.662  0.00  0.00    +0.152 HD
BRANCH  22  25
ATOM     24  N   UNL     1      32.377  -8.446 -23.953  0.00  0.00    -0.241 NA
ATOM     25  C   UNL     1      33.319 -10.668 -23.817  0.00  0.00    +0.068 C 
ATOM     26  C   UNL     1      32.560 -10.929 -22.682  0.00  0.00    +0.022 C 
ATOM     27  C   UNL     1      33.192  -9.422 -24.410  0.00  0.00    +0.113 C 
ATOM     28  C   UNL     1      31.708  -9.949 -22.181  0.00  0.00    +0.073 C 
ATOM     29  C   UNL     1      31.654  -8.735 -22.847  0.00  0.00    +0.103 C 
BRANCH  28  32
ATOM     30  O   UNL     1      30.977  -9.452 -19.998  0.00  0.00    -0.270 OA
ATOM     31  N   UNL     1      30.023 -11.270 -21.019  0.00  0.00    -0.325 N 
ATOM     32  C   UNL     1      30.903 -10.191 -20.998  0.00  0.00    +0.244 C 
ATOM     33  H   UNL     1      29.461 -11.464 -20.235  0.00  0.00    +0.145 HD
ATOM     34  H   UNL     1      29.962 -11.840 -21.820  0.00  0.00    +0.145 HD
ENDBRANCH  28  32
ENDBRANCH  22  25
ENDBRANCH   1  22
TORSDOF 6
ENDMDL
MODEL 9
REMARK VINA RESULT:     -10.6     10.320     14.059
REMARK  Name = 24875320
REMARK  6 active torsions:
REMARK  status: ('A' for Active; 'I' for Inactive)
REMARK    1  A    between atoms: C_1  and  N_22
REMARK    2  A    between atoms: C_3  and  C_10
REMARK    3  A    between atoms: N_9  and  C_12
REMARK    4  A    between atoms: C_14  and  C_21
REMARK    5  A    between atoms: N_22  and  C_25
REMARK    6  A    between atoms: C_28  and  C_32
REMARK                            x       y       z     vdW  Elec       q    Type
REMARK                         _______ _______ _______ _____ _____    ______ ____
ROOT
ATOM      1  C   UNL     1      33.376 -12.604 -22.805  0.00  0.00    +0.044 C 
ATOM      2  C   UNL     1      32.329 -12.605 -21.884  0.00  0.00    -0.008 C 
ATOM      3  C   UNL     1      32.689 -10.422 -23.584  0.00  0.00    +0.055 C 
ATOM      4  C   UNL     1      33.556 -11.513 -23.656  0.00  0.00    +0.019 C 
ATOM      5  C   UNL     1      31.462 -11.515 -21.812  0.00  0.00    -0.003 C 
ATOM      6  C   UNL     1      31.642 -10.424 -22.662  0.00  0.00    +0.004 C 
ATOM      7  C   UNL     1      32.114 -13.760 -20.960  0.00  0.00    +0.032 C 
ENDROOT
BRANCH   3  10
ATOM      8  O   UNL     1      32.774  -9.453 -25.697  0.00  0.00    -0.270 OA
ATOM      9  N   UNL     1      33.184  -8.068 -23.848  0.00  0.00    -0.280 N 
ATOM     10  C   UNL     1      32.875  -9.285 -24.471  0.00  0.00    +0.250 C 
ATOM     11  H   UNL     1      33.229  -8.089 -22.864  0.00  0.00    +0.155 HD
BRANCH   9  12
ATOM     12  C   UNL     1      33.440  -6.810 -24.448  0.00  0.00    +0.050 C 
ATOM     13  C   UNL     1      32.573  -5.740 -24.224  0.00  0.00    +0.019 C 
ATOM     14  C   UNL     1      32.826  -4.502 -24.816  0.00  0.00    +0.073 C 
ATOM     15  C   UNL     1      34.559  -6.642 -25.264  0.00  0.00    +0.015 C 
ATOM     16  C   UNL     1      33.945  -4.335 -25.632  0.00  0.00    +0.004 C 
ATOM     17  C   UNL     1      34.811  -5.405 -25.856  0.00  0.00    +0.001 C 
BRANCH  14  21
ATOM     18  F   UNL     1      32.014  -2.359 -25.500  0.00  0.00    -0.166 F 
ATOM     19  F   UNL     1      30.580  -3.711 -24.594  0.00  0.00    -0.166 F 
ATOM     20  F   UNL     1      32.104  -2.762 -23.366  0.00  0.00    -0.166 F 
ATOM     21  C   UNL     1      31.900  -3.359 -24.577  0.00  0.00    +0.419 C 
ENDBRANCH  14  21
ENDBRANCH   9  12
ENDBRANCH   3  10
BRANCH   1  22
ATOM     22  N   UNL     1      34.264 -13.699 -22.891  0.00  0.00    -0.312 N 
ATOM     23  H   UNL     1      35.068 -13.602 -22.331  0.00  0.00    +0.152 HD
BRANCH  22  25
ATOM     24  N   UNL     1      33.540 -16.085 -25.615  0.00  0.00    -0.241 NA
ATOM     25  C   UNL     1      34.225 -14.901 -23.622  0.00  0.00    +0.068 C 
ATOM     26  C   UNL     1      34.802 -16.063 -23.121  0.00  0.00    +0.022 C 
ATOM     27  C   UNL     1      33.612 -14.964 -24.863  0.00  0.00    +0.113 C 
ATOM     28  C   UNL     1      34.749 -17.236 -23.866  0.00  0.00    +0.073 C 
ATOM     29  C   UNL     1      34.112 -17.195 -25.096  0.00  0.00    +0.103 C 
BRANCH  28  32
ATOM     30  O   UNL     1      34.757 -19.559 -23.479  0.00  0.00    -0.270 OA
ATOM     31  N   UNL     1      36.601 -18.389 -22.782  0.00  0.00    -0.325 N 
ATOM     32  C   UNL     1      35.341 -18.466 -23.370  0.00  0.00    +0.244 C 
ATOM     33  H   UNL     1      37.033 -19.203 -22.435  0.00  0.00    +0.145 HD
ATOM     34  H   UNL     1      37.061 -17.521 -22.713  0.00  0.00    +0.145 HD
ENDBRANCH  28  32
ENDBRANCH  22  25
ENDBRANCH   1  22
TORSDOF 6
ENDMDL
