MODEL 1
REMARK VINA RESULT:     -11.8      0.000      0.000
REMARK  Name = 24883488
REMARK  8 active torsions:
REMARK  status: ('A' for Active; 'I' for Inactive)
REMARK    1  A    between atoms: N_2  and  C_11
REMARK    2  A    between atoms: C_3  and  C_19
REMARK    3  A    between atoms: C_19  and  C_20
REMARK    4  A    between atoms: C_20  and  C_23
REMARK    5  A    between atoms: N_22  and  C_25
REMARK    6  A    between atoms: C_27  and  O_31
REMARK    7  A    between atoms: O_31  and  C_32
REMARK    8  A    between atoms: C_32  and  C_34
REMARK                            x       y       z     vdW  Elec       q    Type
REMARK                         _______ _______ _______ _____ _____    ______ ____
ROOT
ATOM      1  O   UNL     1      33.343 -24.163 -17.933  0.00  0.00    -0.275 OA
ATOM      2  N   UNL     1      34.799 -22.404 -17.356  0.00  0.00    -0.284 N 
ATOM      3  C   UNL     1      33.778 -23.025 -18.086  0.00  0.00    +0.227 C 
ATOM      4  H   UNL     1      35.033 -21.491 -17.638  0.00  0.00    +0.155 HD
ENDROOT
BRANCH   2  11
ATOM      5  O   UNL     1      33.679 -24.332 -12.759  0.00  0.00    -0.282 OA
ATOM      6  O   UNL     1      39.003 -24.537 -13.063  0.00  0.00    -0.270 OA
ATOM      7  O   UNL     1      35.086 -25.301 -10.730  0.00  0.00    -0.266 OA
ATOM      8  N   UNL     1      37.058 -24.918 -11.896  0.00  0.00    -0.246 N 
ATOM      9  C   UNL     1      35.597 -23.883 -14.067  0.00  0.00    +0.049 C 
ATOM     10  C   UNL     1      36.989 -23.944 -14.130  0.00  0.00    +0.057 C 
ATOM     11  C   UNL     1      35.527 -22.916 -16.281  0.00  0.00    +0.050 C 
ATOM     12  C   UNL     1      34.862 -23.368 -15.142  0.00  0.00    +0.018 C 
ATOM     13  C   UNL     1      37.650 -23.488 -15.276  0.00  0.00    +0.006 C 
ATOM     14  C   UNL     1      36.918 -22.975 -16.349  0.00  0.00    +0.015 C 
ATOM     15  C   UNL     1      34.895 -24.359 -12.869  0.00  0.00    +0.249 C 
ATOM     16  C   UNL     1      37.778 -24.484 -13.003  0.00  0.00    +0.252 C 
ATOM     17  C   UNL     1      35.686 -24.908 -11.720  0.00  0.00    +0.291 C 
ATOM     18  H   UNL     1      37.588 -25.277 -11.148  0.00  0.00    +0.158 HD
ENDBRANCH   2  11
BRANCH   3  19
ATOM     19  C   UNL     1      33.231 -22.133 -19.188  0.00  0.00    +0.095 C 
BRANCH  19  20
ATOM     20  C   UNL     1      34.354 -21.394 -19.911  0.00  0.00    +0.095 C 
BRANCH  20  23
ATOM     21  O   UNL     1      32.595 -20.208 -21.012  0.00  0.00    -0.275 OA
ATOM     22  N   UNL     1      34.818 -19.796 -21.653  0.00  0.00    -0.284 N 
ATOM     23  C   UNL     1      33.803 -20.407 -20.926  0.00  0.00    +0.227 C 
ATOM     24  H   UNL     1      35.738 -20.069 -21.427  0.00  0.00    +0.155 HD
BRANCH  22  25
ATOM     25  C   UNL     1      34.689 -18.830 -22.676  0.00  0.00    +0.053 C 
ATOM     26  C   UNL     1      35.005 -17.495 -22.420  0.00  0.00    +0.052 C 
ATOM     27  C   UNL     1      34.876 -16.541 -23.429  0.00  0.00    +0.140 C 
ATOM     28  C   UNL     1      34.244 -19.210 -23.942  0.00  0.00    +0.015 C 
ATOM     29  C   UNL     1      34.432 -16.923 -24.696  0.00  0.00    +0.037 C 
ATOM     30  C   UNL     1      34.115 -18.257 -24.952  0.00  0.00    +0.004 C 
BRANCH  27  31
ATOM     31  O   UNL     1      35.185 -15.240 -23.180  0.00  0.00    -0.472 OA
BRANCH  31  32
ATOM     32  C   UNL     1      34.143 -14.281 -23.355  0.00  0.00    +0.243 C 
BRANCH  32  34
ATOM     33  F   UNL     1      34.381 -14.400 -21.034  0.00  0.00    -0.230 F 
ATOM     34  C   UNL     1      33.525 -13.980 -22.008  0.00  0.00    +0.240 C 
ENDBRANCH  32  34
ENDBRANCH  31  32
ENDBRANCH  27  31
ENDBRANCH  22  25
ENDBRANCH  20  23
ENDBRANCH  19  20
ENDBRANCH   3  19
TORSDOF 8
ENDMDL
MODEL 2
REMARK VINA RESULT:     -11.7      4.376      7.446
REMARK  Name = 24883488
REMARK  8 active torsions:
REMARK  status: ('A' for Active; 'I' for Inactive)
REMARK    1  A    between atoms: N_2  and  C_11
REMARK    2  A    between atoms: C_3  and  C_19
REMARK    3  A    between atoms: C_19  and  C_20
REMARK    4  A    between atoms: C_20  and  C_23
REMARK    5  A    between atoms: N_22  and  C_25
REMARK    6  A    between atoms: C_27  and  O_31
REMARK    7  A    between atoms: O_31  and  C_32
REMARK    8  A    between atoms: C_32  and  C_34
REMARK                            x       y       z     vdW  Elec       q    Type
REMARK                         _______ _______ _______ _____ _____    ______ ____
ROOT
ATOM      1  O   UNL     1      33.860 -18.410 -24.639  0.00  0.00    -0.275 OA
ATOM      2  N   UNL     1      35.437 -17.592 -23.095  0.00  0.00    -0.284 N 
ATOM      3  C   UNL     1      34.638 -17.548 -24.244  0.00  0.00    +0.227 C 
ATOM      4  H   UNL     1      36.023 -16.814 -22.949  0.00  0.00    +0.155 HD
ENDROOT
BRANCH   2  11
ATOM      5  O   UNL     1      32.102 -20.683 -20.766  0.00  0.00    -0.282 OA
ATOM      6  O   UNL     1      36.845 -21.990 -18.699  0.00  0.00    -0.270 OA
ATOM      7  O   UNL     1      32.268 -22.593 -18.933  0.00  0.00    -0.266 OA
ATOM      8  N   UNL     1      34.568 -22.294 -18.809  0.00  0.00    -0.246 N 
ATOM      9  C   UNL     1      34.429 -20.262 -20.752  0.00  0.00    +0.049 C 
ATOM     10  C   UNL     1      35.661 -20.617 -20.201  0.00  0.00    +0.057 C 
ATOM     11  C   UNL     1      35.510 -18.598 -22.131  0.00  0.00    +0.050 C 
ATOM     12  C   UNL     1      34.350 -19.252 -21.717  0.00  0.00    +0.018 C 
ATOM     13  C   UNL     1      36.821 -19.956 -20.620  0.00  0.00    +0.006 C 
ATOM     14  C   UNL     1      36.744 -18.949 -21.584  0.00  0.00    +0.015 C 
ATOM     15  C   UNL     1      33.206 -20.950 -20.318  0.00  0.00    +0.249 C 
ATOM     16  C   UNL     1      35.759 -21.681 -19.180  0.00  0.00    +0.252 C 
ATOM     17  C   UNL     1      33.296 -22.030 -19.282  0.00  0.00    +0.291 C 
ATOM     18  H   UNL     1      34.639 -23.002 -18.129  0.00  0.00    +0.158 HD
ENDBRANCH   2  11
BRANCH   3  19
ATOM     19  C   UNL     1      34.848 -16.273 -25.045  0.00  0.00    +0.095 C 
BRANCH  19  20
ATOM     20  C   UNL     1      33.622 -15.366 -24.974  0.00  0.00    +0.095 C 
BRANCH  20  23
ATOM     21  O   UNL     1      34.714 -14.353 -23.104  0.00  0.00    -0.275 OA
ATOM     22  N   UNL     1      32.491 -13.759 -23.580  0.00  0.00    -0.284 N 
ATOM     23  C   UNL     1      33.685 -14.445 -23.766  0.00  0.00    +0.227 C 
ATOM     24  H   UNL     1      31.776 -13.947 -24.232  0.00  0.00    +0.155 HD
BRANCH  22  25
ATOM     25  C   UNL     1      32.180 -12.822 -22.568  0.00  0.00    +0.053 C 
ATOM     26  C   UNL     1      32.025 -11.474 -22.889  0.00  0.00    +0.052 C 
ATOM     27  C   UNL     1      31.719 -10.549 -21.890  0.00  0.00    +0.140 C 
ATOM     28  C   UNL     1      32.029 -13.247 -21.248  0.00  0.00    +0.015 C 
ATOM     29  C   UNL     1      31.567 -10.975 -20.569  0.00  0.00    +0.037 C 
ATOM     30  C   UNL     1      31.722 -12.324 -20.249  0.00  0.00    +0.004 C 
BRANCH  27  31
ATOM     31  O   UNL     1      31.568  -9.234 -22.202  0.00  0.00    -0.472 OA
BRANCH  31  32
ATOM     32  C   UNL     1      32.756  -8.486 -22.457  0.00  0.00    +0.243 C 
BRANCH  32  34
ATOM     33  F   UNL     1      32.741  -7.896 -20.197  0.00  0.00    -0.230 F 
ATOM     34  C   UNL     1      32.854  -7.366 -21.447  0.00  0.00    +0.240 C 
ENDBRANCH  32  34
ENDBRANCH  31  32
ENDBRANCH  27  31
ENDBRANCH  22  25
ENDBRANCH  20  23
ENDBRANCH  19  20
ENDBRANCH   3  19
TORSDOF 8
ENDMDL
MODEL 3
REMARK VINA RESULT:     -11.5      4.325     12.572
REMARK  Name = 24883488
REMARK  8 active torsions:
REMARK  status: ('A' for Active; 'I' for Inactive)
REMARK    1  A    between atoms: N_2  and  C_11
REMARK    2  A    between atoms: C_3  and  C_19
REMARK    3  A    between atoms: C_19  and  C_20
REMARK    4  A    between atoms: C_20  and  C_23
REMARK    5  A    between atoms: N_22  and  C_25
REMARK    6  A    between atoms: C_27  and  O_31
REMARK    7  A    between atoms: O_31  and  C_32
REMARK    8  A    between atoms: C_32  and  C_34
REMARK                            x       y       z     vdW  Elec       q    Type
REMARK                         _______ _______ _______ _____ _____    ______ ____
ROOT
ATOM      1  O   UNL     1      33.458 -15.915 -25.707  0.00  0.00    -0.275 OA
ATOM      2  N   UNL     1      34.160 -15.267 -23.555  0.00  0.00    -0.284 N 
ATOM      3  C   UNL     1      34.051 -16.128 -24.653  0.00  0.00    +0.227 C 
ATOM      4  H   UNL     1      34.656 -15.619 -22.781  0.00  0.00    +0.155 HD
ENDROOT
BRANCH   2  11
ATOM      5  O   UNL     1      35.025 -10.744 -25.768  0.00  0.00    -0.282 OA
ATOM      6  O   UNL     1      31.215  -9.789 -22.156  0.00  0.00    -0.270 OA
ATOM      7  O   UNL     1      34.049  -8.294 -25.487  0.00  0.00    -0.266 OA
ATOM      8  N   UNL     1      32.623  -9.038 -23.812  0.00  0.00    -0.246 N 
ATOM      9  C   UNL     1      33.637 -11.649 -24.081  0.00  0.00    +0.049 C 
ATOM     10  C   UNL     1      32.640 -11.382 -23.142  0.00  0.00    +0.057 C 
ATOM     11  C   UNL     1      33.656 -13.973 -23.417  0.00  0.00    +0.050 C 
ATOM     12  C   UNL     1      34.148 -12.945 -24.221  0.00  0.00    +0.018 C 
ATOM     13  C   UNL     1      32.152 -12.419 -22.338  0.00  0.00    +0.006 C 
ATOM     14  C   UNL     1      32.660 -13.712 -22.478  0.00  0.00    +0.015 C 
ATOM     15  C   UNL     1      34.156 -10.568 -24.929  0.00  0.00    +0.249 C 
ATOM     16  C   UNL     1      32.092 -10.019 -22.983  0.00  0.00    +0.252 C 
ATOM     17  C   UNL     1      33.606  -9.182 -24.774  0.00  0.00    +0.291 C 
ATOM     18  H   UNL     1      32.255  -8.131 -23.702  0.00  0.00    +0.158 HD
ENDBRANCH   2  11
BRANCH   3  19
ATOM     19  C   UNL     1      34.740 -17.462 -24.413  0.00  0.00    +0.095 C 
BRANCH  19  20
ATOM     20  C   UNL     1      35.778 -17.356 -23.299  0.00  0.00    +0.095 C 
BRANCH  20  23
ATOM     21  O   UNL     1      35.015 -17.231 -21.037  0.00  0.00    -0.275 OA
ATOM     22  N   UNL     1      35.091 -19.327 -22.097  0.00  0.00    -0.284 N 
ATOM     23  C   UNL     1      35.260 -17.951 -22.000  0.00  0.00    +0.227 C 
ATOM     24  H   UNL     1      35.321 -19.733 -22.965  0.00  0.00    +0.155 HD
BRANCH  22  25
ATOM     25  C   UNL     1      34.630 -20.214 -21.098  0.00  0.00    +0.053 C 
ATOM     26  C   UNL     1      35.544 -20.908 -20.304  0.00  0.00    +0.052 C 
ATOM     27  C   UNL     1      35.088 -21.784 -19.319  0.00  0.00    +0.140 C 
ATOM     28  C   UNL     1      33.261 -20.396 -20.905  0.00  0.00    +0.015 C 
ATOM     29  C   UNL     1      33.718 -21.966 -19.127  0.00  0.00    +0.037 C 
ATOM     30  C   UNL     1      32.804 -21.272 -19.920  0.00  0.00    +0.004 C 
BRANCH  27  31
ATOM     31  O   UNL     1      35.979 -22.462 -18.545  0.00  0.00    -0.472 OA
BRANCH  31  32
ATOM     32  C   UNL     1      36.785 -21.690 -17.656  0.00  0.00    +0.243 C 
BRANCH  32  34
ATOM     33  F   UNL     1      38.229 -23.032 -16.403  0.00  0.00    -0.230 F 
ATOM     34  C   UNL     1      36.988 -22.472 -16.378  0.00  0.00    +0.240 C 
ENDBRANCH  32  34
ENDBRANCH  31  32
ENDBRANCH  27  31
ENDBRANCH  22  25
ENDBRANCH  20  23
ENDBRANCH  19  20
ENDBRANCH   3  19
TORSDOF 8
ENDMDL
MODEL 4
REMARK VINA RESULT:     -11.5      4.611      7.843
REMARK  Name = 24883488
REMARK  8 active torsions:
REMARK  status: ('A' for Active; 'I' for Inactive)
REMARK    1  A    between atoms: N_2  and  C_11
REMARK    2  A    between atoms: C_3  and  C_19
REMARK    3  A    between atoms: C_19  and  C_20
REMARK    4  A    between atoms: C_20  and  C_23
REMARK    5  A    between atoms: N_22  and  C_25
REMARK    6  A    between atoms: C_27  and  O_31
REMARK    7  A    between atoms: O_31  and  C_32
REMARK    8  A    between atoms: C_32  and  C_34
REMARK                            x       y       z     vdW  Elec       q    Type
REMARK                         _______ _______ _______ _____ _____    ______ ____
ROOT
ATOM      1  O   UNL     1      34.060 -18.272 -25.033  0.00  0.00    -0.275 OA
ATOM      2  N   UNL     1      35.131 -17.270 -23.191  0.00  0.00    -0.284 N 
ATOM      3  C   UNL     1      34.539 -17.299 -24.460  0.00  0.00    +0.227 C 
ATOM      4  H   UNL     1      35.486 -16.398 -22.902  0.00  0.00    +0.155 HD
ENDROOT
BRANCH   2  11
ATOM      5  O   UNL     1      32.003 -20.539 -20.818  0.00  0.00    -0.282 OA
ATOM      6  O   UNL     1      36.889 -21.844 -19.112  0.00  0.00    -0.270 OA
ATOM      7  O   UNL     1      32.318 -22.531 -19.095  0.00  0.00    -0.266 OA
ATOM      8  N   UNL     1      34.615 -22.190 -19.097  0.00  0.00    -0.246 N 
ATOM      9  C   UNL     1      34.319 -20.071 -20.925  0.00  0.00    +0.049 C 
ATOM     10  C   UNL     1      35.588 -20.425 -20.469  0.00  0.00    +0.057 C 
ATOM     11  C   UNL     1      35.282 -18.319 -22.284  0.00  0.00    +0.050 C 
ATOM     12  C   UNL     1      34.162 -19.017 -21.833  0.00  0.00    +0.018 C 
ATOM     13  C   UNL     1      36.709 -19.721 -20.925  0.00  0.00    +0.006 C 
ATOM     14  C   UNL     1      36.553 -18.670 -21.832  0.00  0.00    +0.015 C 
ATOM     15  C   UNL     1      33.137 -20.804 -20.452  0.00  0.00    +0.249 C 
ATOM     16  C   UNL     1      35.769 -21.535 -19.510  0.00  0.00    +0.252 C 
ATOM     17  C   UNL     1      33.311 -21.931 -19.478  0.00  0.00    +0.291 C 
ATOM     18  H   UNL     1      34.741 -22.929 -18.459  0.00  0.00    +0.158 HD
ENDBRANCH   2  11
BRANCH   3  19
ATOM     19  C   UNL     1      34.571 -15.941 -25.142  0.00  0.00    +0.095 C 
BRANCH  19  20
ATOM     20  C   UNL     1      33.418 -15.058 -24.672  0.00  0.00    +0.095 C 
BRANCH  20  23
ATOM     21  O   UNL     1      34.452 -13.617 -23.070  0.00  0.00    -0.275 OA
ATOM     22  N   UNL     1      33.719 -12.708 -25.109  0.00  0.00    -0.284 N 
ATOM     23  C   UNL     1      33.919 -13.713 -24.171  0.00  0.00    +0.227 C 
ATOM     24  H   UNL     1      33.292 -12.981 -25.954  0.00  0.00    +0.155 HD
BRANCH  22  25
ATOM     25  C   UNL     1      34.056 -11.340 -24.996  0.00  0.00    +0.053 C 
ATOM     26  C   UNL     1      33.445 -10.549 -24.022  0.00  0.00    +0.052 C 
ATOM     27  C   UNL     1      33.777  -9.199 -23.911  0.00  0.00    +0.140 C 
ATOM     28  C   UNL     1      34.998 -10.780 -25.858  0.00  0.00    +0.015 C 
ATOM     29  C   UNL     1      34.721  -8.639 -24.774  0.00  0.00    +0.037 C 
ATOM     30  C   UNL     1      35.331  -9.430 -25.748  0.00  0.00    +0.004 C 
BRANCH  27  31
ATOM     31  O   UNL     1      33.182  -8.427 -22.962  0.00  0.00    -0.472 OA
BRANCH  31  32
ATOM     32  C   UNL     1      31.942  -8.892 -22.431  0.00  0.00    +0.243 C 
BRANCH  32  34
ATOM     33  F   UNL     1      32.549  -7.651 -20.547  0.00  0.00    -0.230 F 
ATOM     34  C   UNL     1      32.010  -8.844 -20.921  0.00  0.00    +0.240 C 
ENDBRANCH  32  34
ENDBRANCH  31  32
ENDBRANCH  27  31
ENDBRANCH  22  25
ENDBRANCH  20  23
ENDBRANCH  19  20
ENDBRANCH   3  19
TORSDOF 8
ENDMDL
MODEL 5
REMARK VINA RESULT:     -11.3      2.797      4.130
REMARK  Name = 24883488
REMARK  8 active torsions:
REMARK  status: ('A' for Active; 'I' for Inactive)
REMARK    1  A    between atoms: N_2  and  C_11
REMARK    2  A    between atoms: C_3  and  C_19
REMARK    3  A    between atoms: C_19  and  C_20
REMARK    4  A    between atoms: C_20  and  C_23
REMARK    5  A    between atoms: N_22  and  C_25
REMARK    6  A    between atoms: C_27  and  O_31
REMARK    7  A    between atoms: O_31  and  C_32
REMARK    8  A    between atoms: C_32  and  C_34
REMARK                            x       y       z     vdW  Elec       q    Type
REMARK                         _______ _______ _______ _____ _____    ______ ____
ROOT
ATOM      1  O   UNL     1      33.294 -21.381 -19.627  0.00  0.00    -0.275 OA
ATOM      2  N   UNL     1      34.595 -22.828 -18.302  0.00  0.00    -0.284 N 
ATOM      3  C   UNL     1      34.344 -21.964 -19.375  0.00  0.00    +0.227 C 
ATOM      4  H   UNL     1      35.494 -23.228 -18.274  0.00  0.00    +0.155 HD
ENDROOT
BRANCH   2  11
ATOM      5  O   UNL     1      29.553 -22.645 -17.497  0.00  0.00    -0.282 OA
ATOM      6  O   UNL     1      31.563 -24.844 -13.069  0.00  0.00    -0.270 OA
ATOM      7  O   UNL     1      27.936 -23.355 -15.517  0.00  0.00    -0.266 OA
ATOM      8  N   UNL     1      29.754 -24.103 -14.281  0.00  0.00    -0.246 N 
ATOM      9  C   UNL     1      31.499 -23.362 -16.361  0.00  0.00    +0.049 C 
ATOM     10  C   UNL     1      32.008 -23.938 -15.196  0.00  0.00    +0.057 C 
ATOM     11  C   UNL     1      33.733 -23.196 -17.269  0.00  0.00    +0.050 C 
ATOM     12  C   UNL     1      32.360 -22.989 -17.399  0.00  0.00    +0.018 C 
ATOM     13  C   UNL     1      33.387 -24.143 -15.071  0.00  0.00    +0.006 C 
ATOM     14  C   UNL     1      34.246 -23.773 -16.107  0.00  0.00    +0.015 C 
ATOM     15  C   UNL     1      30.054 -23.143 -16.501  0.00  0.00    +0.249 C 
ATOM     16  C   UNL     1      31.111 -24.336 -14.091  0.00  0.00    +0.252 C 
ATOM     17  C   UNL     1      29.137 -23.543 -15.385  0.00  0.00    +0.291 C 
ATOM     18  H   UNL     1      29.161 -24.370 -13.542  0.00  0.00    +0.158 HD
ENDBRANCH   2  11
BRANCH   3  19
ATOM     19  C   UNL     1      35.545 -21.821 -20.295  0.00  0.00    +0.095 C 
BRANCH  19  20
ATOM     20  C   UNL     1      36.429 -20.649 -19.874  0.00  0.00    +0.095 C 
BRANCH  20  23
ATOM     21  O   UNL     1      37.507 -18.947 -21.160  0.00  0.00    -0.275 OA
ATOM     22  N   UNL     1      35.261 -19.466 -21.618  0.00  0.00    -0.284 N 
ATOM     23  C   UNL     1      36.474 -19.577 -20.949  0.00  0.00    +0.227 C 
ATOM     24  H   UNL     1      34.546 -20.076 -21.323  0.00  0.00    +0.155 HD
BRANCH  22  25
ATOM     25  C   UNL     1      34.931 -18.584 -22.671  0.00  0.00    +0.053 C 
ATOM     26  C   UNL     1      35.136 -17.212 -22.522  0.00  0.00    +0.052 C 
ATOM     27  C   UNL     1      34.809 -16.340 -23.562  0.00  0.00    +0.140 C 
ATOM     28  C   UNL     1      34.401 -19.084 -23.860  0.00  0.00    +0.015 C 
ATOM     29  C   UNL     1      34.279 -16.842 -24.751  0.00  0.00    +0.037 C 
ATOM     30  C   UNL     1      34.074 -18.214 -24.900  0.00  0.00    +0.004 C 
BRANCH  27  31
ATOM     31  O   UNL     1      35.008 -15.002 -23.417  0.00  0.00    -0.472 OA
BRANCH  31  32
ATOM     32  C   UNL     1      33.848 -14.172 -23.398  0.00  0.00    +0.243 C 
BRANCH  32  34
ATOM     33  F   UNL     1      34.504 -14.171 -21.156  0.00  0.00    -0.230 F 
ATOM     34  C   UNL     1      33.427 -13.955 -21.962  0.00  0.00    +0.240 C 
ENDBRANCH  32  34
ENDBRANCH  31  32
ENDBRANCH  27  31
ENDBRANCH  22  25
ENDBRANCH  20  23
ENDBRANCH  19  20
ENDBRANCH   3  19
TORSDOF 8
ENDMDL
MODEL 6
REMARK VINA RESULT:     -11.3      4.200     11.784
REMARK  Name = 24883488
REMARK  8 active torsions:
REMARK  status: ('A' for Active; 'I' for Inactive)
REMARK    1  A    between atoms: N_2  and  C_11
REMARK    2  A    between atoms: C_3  and  C_19
REMARK    3  A    between atoms: C_19  and  C_20
REMARK    4  A    between atoms: C_20  and  C_23
REMARK    5  A    between atoms: N_22  and  C_25
REMARK    6  A    between atoms: C_27  and  O_31
REMARK    7  A    between atoms: O_31  and  C_32
REMARK    8  A    between atoms: C_32  and  C_34
REMARK                            x       y       z     vdW  Elec       q    Type
REMARK                         _______ _______ _______ _____ _____    ______ ____
ROOT
ATOM      1  O   UNL     1      33.703 -15.946 -25.861  0.00  0.00    -0.275 OA
ATOM      2  N   UNL     1      34.145 -15.379 -23.619  0.00  0.00    -0.284 N 
ATOM      3  C   UNL     1      34.128 -16.215 -24.742  0.00  0.00    +0.227 C 
ATOM      4  H   UNL     1      34.503 -15.776 -22.792  0.00  0.00    +0.155 HD
ENDROOT
BRANCH   2  11
ATOM      5  O   UNL     1      31.325 -12.673 -20.328  0.00  0.00    -0.282 OA
ATOM      6  O   UNL     1      32.747  -9.177 -24.101  0.00  0.00    -0.270 OA
ATOM      7  O   UNL     1      30.527 -10.148 -20.165  0.00  0.00    -0.266 OA
ATOM      8  N   UNL     1      31.639  -9.653 -22.143  0.00  0.00    -0.246 N 
ATOM      9  C   UNL     1      32.503 -12.324 -22.349  0.00  0.00    +0.049 C 
ATOM     10  C   UNL     1      32.866 -11.397 -23.326  0.00  0.00    +0.057 C 
ATOM     11  C   UNL     1      33.717 -14.054 -23.521  0.00  0.00    +0.050 C 
ATOM     12  C   UNL     1      32.927 -13.654 -22.444  0.00  0.00    +0.018 C 
ATOM     13  C   UNL     1      33.659 -11.804 -24.405  0.00  0.00    +0.006 C 
ATOM     14  C   UNL     1      34.083 -13.131 -24.500  0.00  0.00    +0.015 C 
ATOM     15  C   UNL     1      31.671 -11.906 -21.213  0.00  0.00    +0.249 C 
ATOM     16  C   UNL     1      32.425  -9.989 -23.239  0.00  0.00    +0.252 C 
ATOM     17  C   UNL     1      31.219 -10.480 -21.117  0.00  0.00    +0.291 C 
ATOM     18  H   UNL     1      31.348  -8.715 -22.090  0.00  0.00    +0.158 HD
ENDBRANCH   2  11
BRANCH   3  19
ATOM     19  C   UNL     1      34.683 -17.598 -24.440  0.00  0.00    +0.095 C 
BRANCH  19  20
ATOM     20  C   UNL     1      35.760 -17.539 -23.360  0.00  0.00    +0.095 C 
BRANCH  20  23
ATOM     21  O   UNL     1      35.074 -17.343 -21.079  0.00  0.00    -0.275 OA
ATOM     22  N   UNL     1      35.002 -19.454 -22.110  0.00  0.00    -0.284 N 
ATOM     23  C   UNL     1      35.249 -18.088 -22.039  0.00  0.00    +0.227 C 
ATOM     24  H   UNL     1      35.183 -19.882 -22.978  0.00  0.00    +0.155 HD
BRANCH  22  25
ATOM     25  C   UNL     1      34.523 -20.301 -21.085  0.00  0.00    +0.053 C 
ATOM     26  C   UNL     1      35.421 -21.039 -20.313  0.00  0.00    +0.052 C 
ATOM     27  C   UNL     1      34.948 -21.875 -19.301  0.00  0.00    +0.140 C 
ATOM     28  C   UNL     1      33.153 -20.400 -20.846  0.00  0.00    +0.015 C 
ATOM     29  C   UNL     1      33.576 -21.973 -19.062  0.00  0.00    +0.037 C 
ATOM     30  C   UNL     1      32.679 -21.236 -19.835  0.00  0.00    +0.004 C 
BRANCH  27  31
ATOM     31  O   UNL     1      35.823 -22.595 -18.548  0.00  0.00    -0.472 OA
BRANCH  31  32
ATOM     32  C   UNL     1      35.792 -22.382 -17.138  0.00  0.00    +0.243 C 
BRANCH  32  34
ATOM     33  F   UNL     1      37.535 -20.827 -17.178  0.00  0.00    -0.230 F 
ATOM     34  C   UNL     1      37.188 -22.041 -16.666  0.00  0.00    +0.240 C 
ENDBRANCH  32  34
ENDBRANCH  31  32
ENDBRANCH  27  31
ENDBRANCH  22  25
ENDBRANCH  20  23
ENDBRANCH  19  20
ENDBRANCH   3  19
TORSDOF 8
ENDMDL
MODEL 7
REMARK VINA RESULT:     -11.2      3.149      6.141
REMARK  Name = 24883488
REMARK  8 active torsions:
REMARK  status: ('A' for Active; 'I' for Inactive)
REMARK    1  A    between atoms: N_2  and  C_11
REMARK    2  A    between atoms: C_3  and  C_19
REMARK    3  A    between atoms: C_19  and  C_20
REMARK    4  A    between atoms: C_20  and  C_23
REMARK    5  A    between atoms: N_22  and  C_25
REMARK    6  A    between atoms: C_27  and  O_31
REMARK    7  A    between atoms: O_31  and  C_32
REMARK    8  A    between atoms: C_32  and  C_34
REMARK                            x       y       z     vdW  Elec       q    Type
REMARK                         _______ _______ _______ _____ _____    ______ ____
ROOT
ATOM      1  O   UNL     1      35.202 -17.317 -21.044  0.00  0.00    -0.275 OA
ATOM      2  N   UNL     1      34.792 -19.359 -22.142  0.00  0.00    -0.284 N 
ATOM      3  C   UNL     1      35.217 -18.028 -22.043  0.00  0.00    +0.227 C 
ATOM      4  H   UNL     1      34.855 -19.765 -23.036  0.00  0.00    +0.155 HD
ENDROOT
BRANCH   2  11
ATOM      5  O   UNL     1      36.773 -22.053 -18.280  0.00  0.00    -0.282 OA
ATOM      6  O   UNL     1      31.512 -22.892 -17.969  0.00  0.00    -0.270 OA
ATOM      7  O   UNL     1      35.790 -23.612 -16.372  0.00  0.00    -0.266 OA
ATOM      8  N   UNL     1      33.638 -23.256 -17.170  0.00  0.00    -0.246 N 
ATOM      9  C   UNL     1      34.647 -21.597 -19.208  0.00  0.00    +0.049 C 
ATOM     10  C   UNL     1      33.274 -21.827 -19.112  0.00  0.00    +0.057 C 
ATOM     11  C   UNL     1      34.288 -20.182 -21.134  0.00  0.00    +0.050 C 
ATOM     12  C   UNL     1      35.157 -20.775 -20.219  0.00  0.00    +0.018 C 
ATOM     13  C   UNL     1      32.407 -21.229 -20.033  0.00  0.00    +0.006 C 
ATOM     14  C   UNL     1      32.915 -20.407 -21.042  0.00  0.00    +0.015 C 
ATOM     15  C   UNL     1      35.564 -22.220 -18.245  0.00  0.00    +0.249 C 
ATOM     16  C   UNL     1      32.721 -22.694 -18.050  0.00  0.00    +0.252 C 
ATOM     17  C   UNL     1      35.012 -23.102 -17.165  0.00  0.00    +0.291 C 
ATOM     18  H   UNL     1      33.265 -23.832 -16.465  0.00  0.00    +0.158 HD
ENDBRANCH   2  11
BRANCH   3  19
ATOM     19  C   UNL     1      35.702 -17.478 -23.374  0.00  0.00    +0.095 C 
BRANCH  19  20
ATOM     20  C   UNL     1      34.609 -17.553 -24.437  0.00  0.00    +0.095 C 
BRANCH  20  23
ATOM     21  O   UNL     1      33.519 -15.926 -25.807  0.00  0.00    -0.275 OA
ATOM     22  N   UNL     1      34.072 -15.361 -23.594  0.00  0.00    -0.284 N 
ATOM     23  C   UNL     1      34.009 -16.184 -24.711  0.00  0.00    +0.227 C 
ATOM     24  H   UNL     1      34.484 -15.753 -22.789  0.00  0.00    +0.155 HD
BRANCH  22  25
ATOM     25  C   UNL     1      33.616 -14.029 -23.474  0.00  0.00    +0.053 C 
ATOM     26  C   UNL     1      32.674 -13.699 -22.499  0.00  0.00    +0.052 C 
ATOM     27  C   UNL     1      32.224 -12.384 -22.381  0.00  0.00    +0.140 C 
ATOM     28  C   UNL     1      34.108 -13.044 -24.330  0.00  0.00    +0.015 C 
ATOM     29  C   UNL     1      32.716 -11.398 -23.238  0.00  0.00    +0.037 C 
ATOM     30  C   UNL     1      33.659 -11.729 -24.212  0.00  0.00    +0.004 C 
BRANCH  27  31
ATOM     31  O   UNL     1      31.305 -12.061 -21.431  0.00  0.00    -0.472 OA
BRANCH  31  32
ATOM     32  C   UNL     1      30.935 -10.687 -21.326  0.00  0.00    +0.243 C 
BRANCH  32  34
ATOM     33  F   UNL     1      31.599 -11.196 -19.144  0.00  0.00    -0.230 F 
ATOM     34  C   UNL     1      31.427 -10.150 -20.000  0.00  0.00    +0.240 C 
ENDBRANCH  32  34
ENDBRANCH  31  32
ENDBRANCH  27  31
ENDBRANCH  22  25
ENDBRANCH  20  23
ENDBRANCH  19  20
ENDBRANCH   3  19
TORSDOF 8
ENDMDL
MODEL 8
REMARK VINA RESULT:     -11.1      4.924     11.899
REMARK  Name = 24883488
REMARK  8 active torsions:
REMARK  status: ('A' for Active; 'I' for Inactive)
REMARK    1  A    between atoms: N_2  and  C_11
REMARK    2  A    between atoms: C_3  and  C_19
REMARK    3  A    between atoms: C_19  and  C_20
REMARK    4  A    between atoms: C_20  and  C_23
REMARK    5  A    between atoms: N_22  and  C_25
REMARK    6  A    between atoms: C_27  and  O_31
REMARK    7  A    between atoms: O_31  and  C_32
REMARK    8  A    between atoms: C_32  and  C_34
REMARK                            x       y       z     vdW  Elec       q    Type
REMARK                         _______ _______ _______ _____ _____    ______ ____
ROOT
ATOM      1  O   UNL     1      33.479 -15.592 -25.893  0.00  0.00    -0.275 OA
ATOM      2  N   UNL     1      34.271 -14.998 -23.757  0.00  0.00    -0.284 N 
ATOM      3  C   UNL     1      34.123 -15.828 -24.875  0.00  0.00    +0.227 C 
ATOM      4  H   UNL     1      34.807 -15.366 -23.017  0.00  0.00    +0.155 HD
ENDROOT
BRANCH   2  11
ATOM      5  O   UNL     1      31.299 -12.750 -20.263  0.00  0.00    -0.282 OA
ATOM      6  O   UNL     1      32.457  -8.886 -23.756  0.00  0.00    -0.270 OA
ATOM      7  O   UNL     1      30.334 -10.305 -19.904  0.00  0.00    -0.266 OA
ATOM      8  N   UNL     1      31.397  -9.586 -21.839  0.00  0.00    -0.246 N 
ATOM      9  C   UNL     1      32.437 -12.168 -22.252  0.00  0.00    +0.049 C 
ATOM     10  C   UNL     1      32.730 -11.146 -23.155  0.00  0.00    +0.057 C 
ATOM     11  C   UNL     1      33.757 -13.717 -23.557  0.00  0.00    +0.050 C 
ATOM     12  C   UNL     1      32.948 -13.455 -22.450  0.00  0.00    +0.018 C 
ATOM     13  C   UNL     1      33.541 -11.415 -24.264  0.00  0.00    +0.006 C 
ATOM     14  C   UNL     1      34.053 -12.699 -24.462  0.00  0.00    +0.015 C 
ATOM     15  C   UNL     1      31.586 -11.896 -21.086  0.00  0.00    +0.249 C 
ATOM     16  C   UNL     1      32.196  -9.782 -22.959  0.00  0.00    +0.252 C 
ATOM     17  C   UNL     1      31.039 -10.515 -20.879  0.00  0.00    +0.291 C 
ATOM     18  H   UNL     1      31.043  -8.675 -21.713  0.00  0.00    +0.158 HD
ENDBRANCH   2  11
BRANCH   3  19
ATOM     19  C   UNL     1      34.840 -17.157 -24.707  0.00  0.00    +0.095 C 
BRANCH  19  20
ATOM     20  C   UNL     1      33.849 -18.317 -24.642  0.00  0.00    +0.095 C 
BRANCH  20  23
ATOM     21  O   UNL     1      35.058 -20.348 -24.286  0.00  0.00    -0.275 OA
ATOM     22  N   UNL     1      34.034 -19.298 -22.450  0.00  0.00    -0.284 N 
ATOM     23  C   UNL     1      34.383 -19.453 -23.786  0.00  0.00    +0.227 C 
ATOM     24  H   UNL     1      33.502 -18.498 -22.230  0.00  0.00    +0.155 HD
BRANCH  22  25
ATOM     25  C   UNL     1      34.351 -20.151 -21.368  0.00  0.00    +0.053 C 
ATOM     26  C   UNL     1      33.337 -20.843 -20.705  0.00  0.00    +0.052 C 
ATOM     27  C   UNL     1      33.650 -21.685 -19.637  0.00  0.00    +0.140 C 
ATOM     28  C   UNL     1      35.677 -20.300 -20.964  0.00  0.00    +0.015 C 
ATOM     29  C   UNL     1      34.978 -21.834 -19.233  0.00  0.00    +0.037 C 
ATOM     30  C   UNL     1      35.991 -21.142 -19.896  0.00  0.00    +0.004 C 
BRANCH  27  31
ATOM     31  O   UNL     1      32.662 -22.360 -18.989  0.00  0.00    -0.472 OA
BRANCH  31  32
ATOM     32  C   UNL     1      33.050 -23.176 -17.885  0.00  0.00    +0.243 C 
BRANCH  32  34
ATOM     33  F   UNL     1      30.911 -22.414 -17.338  0.00  0.00    -0.230 F 
ATOM     34  C   UNL     1      31.920 -23.207 -16.881  0.00  0.00    +0.240 C 
ENDBRANCH  32  34
ENDBRANCH  31  32
ENDBRANCH  27  31
ENDBRANCH  22  25
ENDBRANCH  20  23
ENDBRANCH  19  20
ENDBRANCH   3  19
TORSDOF 8
ENDMDL
MODEL 9
REMARK VINA RESULT:     -11.1      5.067     12.667
REMARK  Name = 24883488
REMARK  8 active torsions:
REMARK  status: ('A' for Active; 'I' for Inactive)
REMARK    1  A    between atoms: N_2  and  C_11
REMARK    2  A    between atoms: C_3  and  C_19
REMARK    3  A    between atoms: C_19  and  C_20
REMARK    4  A    between atoms: C_20  and  C_23
REMARK    5  A    between atoms: N_22  and  C_25
REMARK    6  A    between atoms: C_27  and  O_31
REMARK    7  A    between atoms: O_31  and  C_32
REMARK    8  A    between atoms: C_32  and  C_34
REMARK                            x       y       z     vdW  Elec       q    Type
REMARK                         _______ _______ _______ _____ _____    ______ ____
ROOT
ATOM      1  O   UNL     1      33.730 -15.318 -25.907  0.00  0.00    -0.275 OA
ATOM      2  N   UNL     1      34.132 -14.980 -23.612  0.00  0.00    -0.284 N 
ATOM      3  C   UNL     1      34.186 -15.677 -24.826  0.00  0.00    +0.227 C 
ATOM      4  H   UNL     1      34.531 -15.437 -22.837  0.00  0.00    +0.155 HD
ENDROOT
BRANCH   2  11
ATOM      5  O   UNL     1      34.575 -10.319 -25.657  0.00  0.00    -0.282 OA
ATOM      6  O   UNL     1      31.083  -9.731 -21.664  0.00  0.00    -0.270 OA
ATOM      7  O   UNL     1      33.517  -7.938 -25.160  0.00  0.00    -0.266 OA
ATOM      8  N   UNL     1      32.293  -8.832 -23.401  0.00  0.00    -0.246 N 
ATOM      9  C   UNL     1      33.395 -11.373 -23.899  0.00  0.00    +0.049 C 
ATOM     10  C   UNL     1      32.481 -11.201 -22.859  0.00  0.00    +0.057 C 
ATOM     11  C   UNL     1      33.584 -13.722 -23.361  0.00  0.00    +0.050 C 
ATOM     12  C   UNL     1      33.950 -12.632 -24.152  0.00  0.00    +0.018 C 
ATOM     13  C   UNL     1      32.118 -12.298 -22.069  0.00  0.00    +0.006 C 
ATOM     14  C   UNL     1      32.670 -13.556 -22.322  0.00  0.00    +0.015 C 
ATOM     15  C   UNL     1      33.781 -10.228 -24.733  0.00  0.00    +0.249 C 
ATOM     16  C   UNL     1      31.888  -9.877 -22.579  0.00  0.00    +0.252 C 
ATOM     17  C   UNL     1      33.186  -8.880 -24.456  0.00  0.00    +0.291 C 
ATOM     18  H   UNL     1      31.895  -7.952 -23.211  0.00  0.00    +0.158 HD
ENDBRANCH   2  11
BRANCH   3  19
ATOM     19  C   UNL     1      34.869 -17.028 -24.687  0.00  0.00    +0.095 C 
BRANCH  19  20
ATOM     20  C   UNL     1      33.850 -18.165 -24.675  0.00  0.00    +0.095 C 
BRANCH  20  23
ATOM     21  O   UNL     1      34.931 -20.275 -24.373  0.00  0.00    -0.275 OA
ATOM     22  N   UNL     1      34.059 -19.165 -22.494  0.00  0.00    -0.284 N 
ATOM     23  C   UNL     1      34.340 -19.338 -23.843  0.00  0.00    +0.227 C 
ATOM     24  H   UNL     1      33.593 -18.332 -22.251  0.00  0.00    +0.155 HD
BRANCH  22  25
ATOM     25  C   UNL     1      34.363 -20.042 -21.428  0.00  0.00    +0.053 C 
ATOM     26  C   UNL     1      33.338 -20.726 -20.773  0.00  0.00    +0.052 C 
ATOM     27  C   UNL     1      33.637 -21.591 -19.720  0.00  0.00    +0.140 C 
ATOM     28  C   UNL     1      35.687 -20.223 -21.029  0.00  0.00    +0.015 C 
ATOM     29  C   UNL     1      34.963 -21.772 -19.323  0.00  0.00    +0.037 C 
ATOM     30  C   UNL     1      35.988 -21.089 -19.977  0.00  0.00    +0.004 C 
BRANCH  27  31
ATOM     31  O   UNL     1      32.638 -22.258 -19.081  0.00  0.00    -0.472 OA
BRANCH  31  32
ATOM     32  C   UNL     1      33.013 -23.100 -17.993  0.00  0.00    +0.243 C 
BRANCH  32  34
ATOM     33  F   UNL     1      32.385 -23.615 -15.803  0.00  0.00    -0.230 F 
ATOM     34  C   UNL     1      31.904 -23.091 -16.965  0.00  0.00    +0.240 C 
ENDBRANCH  32  34
ENDBRANCH  31  32
ENDBRANCH  27  31
ENDBRANCH  22  25
ENDBRANCH  20  23
ENDBRANCH  19  20
ENDBRANCH   3  19
TORSDOF 8
ENDMDL
