MODEL 1
REMARK VINA RESULT:     -12.1      0.000      0.000
REMARK  Name = 118161062
REMARK  4 active torsions:
REMARK  status: ('A' for Active; 'I' for Inactive)
REMARK    1  A    between atoms: N_1  and  C_26
REMARK    2  A    between atoms: C_7  and  C_15
REMARK    3  A    between atoms: C_21  and  N_28
REMARK    4  A    between atoms: N_27  and  C_35
REMARK                            x       y       z     vdW  Elec       q    Type
REMARK                         _______ _______ _______ _____ _____    ______ ____
ROOT
ATOM      1  N   UNL     1      36.020 -23.233 -16.505  0.00  0.00    -0.286 N 
ATOM      2  N   UNL     1      34.555 -24.096 -13.218  0.00  0.00    -0.260 N 
ATOM      3  N   UNL     1      33.813 -23.620 -15.842  0.00  0.00    -0.384 NA
ATOM      4  N   UNL     1      36.712 -23.764 -13.672  0.00  0.00    -0.224 NA
ATOM      5  C   UNL     1      35.094 -23.543 -15.537  0.00  0.00    +0.216 C 
ATOM      6  C   UNL     1      35.496 -23.793 -14.166  0.00  0.00    +0.180 C 
ATOM      7  C   UNL     1      32.883 -23.938 -14.852  0.00  0.00    +0.162 C 
ATOM      8  C   UNL     1      33.221 -24.167 -13.564  0.00  0.00    +0.159 C 
ATOM      9  C   UNL     1      35.215 -24.271 -12.034  0.00  0.00    +0.088 C 
ATOM     10  C   UNL     1      36.544 -24.062 -12.341  0.00  0.00    +0.117 C 
ATOM     11  H   UNL     1      36.919 -23.613 -16.383  0.00  0.00    +0.155 HD
ENDROOT
BRANCH   7  15
ATOM     12  N   UNL     1      30.701 -24.948 -14.684  0.00  0.00    -0.386 NA
ATOM     13  N   UNL     1      29.654 -23.147 -16.561  0.00  0.00    -0.257 NA
ATOM     14  N   UNL     1      28.543 -25.956 -14.512  0.00  0.00    -0.335 N 
ATOM     15  C   UNL     1      31.460 -23.994 -15.257  0.00  0.00    +0.178 C 
ATOM     16  C   UNL     1      30.946 -23.109 -16.179  0.00  0.00    +0.128 C 
ATOM     17  C   UNL     1      29.409 -24.986 -15.065  0.00  0.00    +0.179 C 
ATOM     18  C   UNL     1      28.895 -24.101 -15.987  0.00  0.00    +0.199 C 
ATOM     19  H   UNL     1      28.884 -26.601 -13.851  0.00  0.00    +0.144 HD
ATOM     20  H   UNL     1      27.598 -25.986 -14.788  0.00  0.00    +0.144 HD
ENDBRANCH   7  15
BRANCH   1  26
ATOM     21  C   UNL     1      35.462 -20.856 -19.923  0.00  0.00    +0.048 C 
ATOM     22  C   UNL     1      34.462 -21.739 -19.517  0.00  0.00    +0.016 C 
ATOM     23  C   UNL     1      36.648 -20.763 -19.194  0.00  0.00    +0.016 C 
ATOM     24  C   UNL     1      34.646 -22.528 -18.381  0.00  0.00    +0.016 C 
ATOM     25  C   UNL     1      36.832 -21.552 -18.058  0.00  0.00    +0.016 C 
ATOM     26  C   UNL     1      35.832 -22.434 -17.651  0.00  0.00    +0.050 C 
BRANCH  21  28
ATOM     27  N   UNL     1      34.857 -18.249 -23.222  0.00  0.00    +0.394 N 
ATOM     28  N   UNL     1      35.277 -20.066 -21.062  0.00  0.00    -0.312 N 
ATOM     29  C   UNL     1      36.221 -18.608 -22.811  0.00  0.00    -0.055 C 
ATOM     30  C   UNL     1      33.962 -19.396 -23.035  0.00  0.00    -0.055 C 
ATOM     31  C   UNL     1      36.257 -19.006 -21.334  0.00  0.00    +0.068 C 
ATOM     32  C   UNL     1      33.921 -19.822 -21.566  0.00  0.00    +0.068 C 
ATOM     33  H   UNL     1      34.529 -17.470 -22.653  0.00  0.00    -0.079 HD
BRANCH  27  35
ATOM     34  O   UNL     1      33.395 -16.570 -25.497  0.00  0.00    -0.358 OA
ATOM     35  C   UNL     1      34.863 -17.863 -24.644  0.00  0.00    +0.002 C 
ATOM     36  C   UNL     1      33.446 -17.990 -25.204  0.00  0.00    +0.124 C 
ATOM     37  C   UNL     1      34.620 -16.356 -24.750  0.00  0.00    +0.124 C 
ENDBRANCH  27  35
ENDBRANCH  21  28
ENDBRANCH   1  26
TORSDOF 4
ENDMDL
MODEL 2
REMARK VINA RESULT:     -11.8      0.683      1.245
REMARK  Name = 118161062
REMARK  4 active torsions:
REMARK  status: ('A' for Active; 'I' for Inactive)
REMARK    1  A    between atoms: N_1  and  C_26
REMARK    2  A    between atoms: C_7  and  C_15
REMARK    3  A    between atoms: C_21  and  N_28
REMARK    4  A    between atoms: N_27  and  C_35
REMARK                            x       y       z     vdW  Elec       q    Type
REMARK                         _______ _______ _______ _____ _____    ______ ____
ROOT
ATOM      1  N   UNL     1      36.493 -23.108 -16.275  0.00  0.00    -0.286 N 
ATOM      2  N   UNL     1      35.149 -23.983 -12.939  0.00  0.00    -0.260 N 
ATOM      3  N   UNL     1      34.331 -23.636 -15.561  0.00  0.00    -0.384 NA
ATOM      4  N   UNL     1      37.269 -23.508 -13.443  0.00  0.00    -0.224 NA
ATOM      5  C   UNL     1      35.608 -23.457 -15.282  0.00  0.00    +0.216 C 
ATOM      6  C   UNL     1      36.051 -23.639 -13.912  0.00  0.00    +0.180 C 
ATOM      7  C   UNL     1      33.444 -23.992 -14.546  0.00  0.00    +0.162 C 
ATOM      8  C   UNL     1      33.820 -24.161 -13.258  0.00  0.00    +0.159 C 
ATOM      9  C   UNL     1      35.840 -24.077 -11.764  0.00  0.00    +0.088 C 
ATOM     10  C   UNL     1      37.145 -23.780 -12.101  0.00  0.00    +0.117 C 
ATOM     11  H   UNL     1      37.419 -23.418 -16.160  0.00  0.00    +0.155 HD
ENDROOT
BRANCH   7  15
ATOM     12  N   UNL     1      31.546 -23.353 -15.888  0.00  0.00    -0.386 NA
ATOM     13  N   UNL     1      29.935 -25.278 -14.637  0.00  0.00    -0.257 NA
ATOM     14  N   UNL     1      29.670 -22.712 -17.219  0.00  0.00    -0.335 N 
ATOM     15  C   UNL     1      32.022 -24.163 -14.923  0.00  0.00    +0.178 C 
ATOM     16  C   UNL     1      31.232 -25.109 -14.308  0.00  0.00    +0.128 C 
ATOM     17  C   UNL     1      30.250 -23.521 -16.217  0.00  0.00    +0.179 C 
ATOM     18  C   UNL     1      29.459 -24.468 -15.603  0.00  0.00    +0.199 C 
ATOM     19  H   UNL     1      30.213 -22.028 -17.675  0.00  0.00    +0.144 HD
ATOM     20  H   UNL     1      28.724 -22.833 -17.463  0.00  0.00    +0.144 HD
ENDBRANCH   7  15
BRANCH   1  26
ATOM     21  C   UNL     1      35.706 -20.875 -19.744  0.00  0.00    +0.048 C 
ATOM     22  C   UNL     1      34.812 -21.864 -19.334  0.00  0.00    +0.016 C 
ATOM     23  C   UNL     1      36.861 -20.627 -19.002  0.00  0.00    +0.016 C 
ATOM     24  C   UNL     1      35.072 -22.605 -18.182  0.00  0.00    +0.016 C 
ATOM     25  C   UNL     1      37.121 -21.369 -17.850  0.00  0.00    +0.016 C 
ATOM     26  C   UNL     1      36.228 -22.358 -17.439  0.00  0.00    +0.050 C 
BRANCH  21  28
ATOM     27  N   UNL     1      34.876 -18.407 -23.102  0.00  0.00    +0.394 N 
ATOM     28  N   UNL     1      35.445 -20.132 -20.901  0.00  0.00    -0.312 N 
ATOM     29  C   UNL     1      36.265 -18.730 -22.755  0.00  0.00    -0.055 C 
ATOM     30  C   UNL     1      34.010 -19.558 -22.820  0.00  0.00    -0.055 C 
ATOM     31  C   UNL     1      36.390 -19.070 -21.268  0.00  0.00    +0.068 C 
ATOM     32  C   UNL     1      34.059 -19.927 -21.336  0.00  0.00    +0.068 C 
ATOM     33  H   UNL     1      34.567 -17.611 -22.544  0.00  0.00    -0.079 HD
BRANCH  27  35
ATOM     34  O   UNL     1      33.129 -17.058 -25.396  0.00  0.00    -0.358 OA
ATOM     35  C   UNL     1      34.795 -18.076 -24.535  0.00  0.00    +0.002 C 
ATOM     36  C   UNL     1      33.406 -18.441 -25.057  0.00  0.00    +0.124 C 
ATOM     37  C   UNL     1      34.319 -16.630 -24.685  0.00  0.00    +0.124 C 
ENDBRANCH  27  35
ENDBRANCH  21  28
ENDBRANCH   1  26
TORSDOF 4
ENDMDL
MODEL 3
REMARK VINA RESULT:     -10.4      1.401      2.052
REMARK  Name = 118161062
REMARK  4 active torsions:
REMARK  status: ('A' for Active; 'I' for Inactive)
REMARK    1  A    between atoms: N_1  and  C_26
REMARK    2  A    between atoms: C_7  and  C_15
REMARK    3  A    between atoms: C_21  and  N_28
REMARK    4  A    between atoms: N_27  and  C_35
REMARK                            x       y       z     vdW  Elec       q    Type
REMARK                         _______ _______ _______ _____ _____    ______ ____
ROOT
ATOM      1  N   UNL     1      36.422 -22.546 -18.058  0.00  0.00    -0.286 N 
ATOM      2  N   UNL     1      35.495 -23.784 -14.695  0.00  0.00    -0.260 N 
ATOM      3  N   UNL     1      34.346 -23.015 -17.093  0.00  0.00    -0.384 NA
ATOM      4  N   UNL     1      37.556 -23.394 -15.454  0.00  0.00    -0.224 NA
ATOM      5  C   UNL     1      35.661 -22.968 -16.994  0.00  0.00    +0.216 C 
ATOM      6  C   UNL     1      36.276 -23.371 -15.743  0.00  0.00    +0.180 C 
ATOM      7  C   UNL     1      33.584 -23.448 -16.009  0.00  0.00    +0.162 C 
ATOM      8  C   UNL     1      34.123 -23.821 -14.827  0.00  0.00    +0.159 C 
ATOM      9  C   UNL     1      36.336 -24.091 -13.662  0.00  0.00    +0.088 C 
ATOM     10  C   UNL     1      37.600 -23.843 -14.155  0.00  0.00    +0.117 C 
ATOM     11  H   UNL     1      37.324 -22.934 -18.128  0.00  0.00    +0.155 HD
ENDROOT
BRANCH   7  15
ATOM     12  N   UNL     1      31.416 -24.292 -15.380  0.00  0.00    -0.386 NA
ATOM     13  N   UNL     1      30.161 -22.668 -17.292  0.00  0.00    -0.257 NA
ATOM     14  N   UNL     1      29.271 -25.133 -14.752  0.00  0.00    -0.335 N 
ATOM     15  C   UNL     1      32.113 -23.463 -16.181  0.00  0.00    +0.178 C 
ATOM     16  C   UNL     1      31.498 -22.666 -17.120  0.00  0.00    +0.128 C 
ATOM     17  C   UNL     1      30.079 -24.294 -15.551  0.00  0.00    +0.179 C 
ATOM     18  C   UNL     1      29.462 -23.496 -16.490  0.00  0.00    +0.199 C 
ATOM     19  H   UNL     1      29.685 -25.714 -14.073  0.00  0.00    +0.144 HD
ATOM     20  H   UNL     1      28.294 -25.138 -14.874  0.00  0.00    +0.144 HD
ENDBRANCH   7  15
BRANCH   1  26
ATOM     21  C   UNL     1      35.351 -19.791 -21.042  0.00  0.00    +0.048 C 
ATOM     22  C   UNL     1      36.638 -19.773 -20.505  0.00  0.00    +0.016 C 
ATOM     23  C   UNL     1      34.419 -20.725 -20.587  0.00  0.00    +0.016 C 
ATOM     24  C   UNL     1      36.995 -20.688 -19.515  0.00  0.00    +0.016 C 
ATOM     25  C   UNL     1      34.776 -21.640 -19.597  0.00  0.00    +0.016 C 
ATOM     26  C   UNL     1      36.063 -21.622 -19.061  0.00  0.00    +0.050 C 
BRANCH  21  28
ATOM     27  N   UNL     1      34.493 -17.060 -24.181  0.00  0.00    +0.394 N 
ATOM     28  N   UNL     1      34.994 -18.873 -22.035  0.00  0.00    -0.312 N 
ATOM     29  C   UNL     1      33.867 -18.388 -24.173  0.00  0.00    -0.055 C 
ATOM     30  C   UNL     1      34.627 -16.562 -22.808  0.00  0.00    -0.055 C 
ATOM     31  C   UNL     1      34.716 -19.385 -23.383  0.00  0.00    +0.068 C 
ATOM     32  C   UNL     1      35.501 -17.498 -21.971  0.00  0.00    +0.068 C 
ATOM     33  H   UNL     1      35.418 -17.128 -24.605  0.00  0.00    -0.079 HD
BRANCH  27  35
ATOM     34  O   UNL     1      33.915 -14.013 -24.897  0.00  0.00    -0.358 OA
ATOM     35  C   UNL     1      33.655 -16.130 -24.957  0.00  0.00    +0.002 C 
ATOM     36  C   UNL     1      33.224 -14.972 -24.057  0.00  0.00    +0.124 C 
ATOM     37  C   UNL     1      34.555 -15.090 -25.627  0.00  0.00    +0.124 C 
ENDBRANCH  27  35
ENDBRANCH  21  28
ENDBRANCH   1  26
TORSDOF 4
ENDMDL
