MODEL 1
REMARK VINA RESULT:     -11.5      0.000      0.000
REMARK  Name = 11610553
REMARK  5 active torsions:
REMARK  status: ('A' for Active; 'I' for Inactive)
REMARK    1  A    between atoms: C_1  and  C_9
REMARK    2  A    between atoms: C_4  and  O_19
REMARK    3  A    between atoms: C_10  and  C_14
REMARK    4  A    between atoms: O_19  and  C_20
REMARK    5  A    between atoms: C_20  and  C_22
REMARK                            x       y       z     vdW  Elec       q    Type
REMARK                         _______ _______ _______ _____ _____    ______ ____
ROOT
ATOM      1  C   UNL     1      34.436 -22.999 -16.629  0.00  0.00    +0.015 C 
ATOM      2  C   UNL     1      33.557 -23.051 -17.711  0.00  0.00    +0.004 C 
ATOM      3  C   UNL     1      35.708 -22.450 -16.788  0.00  0.00    +0.004 C 
ATOM      4  C   UNL     1      35.222 -22.006 -19.104  0.00  0.00    +0.139 C 
ATOM      5  C   UNL     1      33.952 -22.552 -18.953  0.00  0.00    +0.037 C 
ATOM      6  C   UNL     1      36.102 -21.952 -18.029  0.00  0.00    +0.037 C 
ENDROOT
BRANCH   1   9
ATOM      7  N   UNL     1      32.858 -23.141 -14.751  0.00  0.00    -0.236 N 
ATOM      8  N   UNL     1      32.644 -23.724 -13.559  0.00  0.00    -0.180 NA
ATOM      9  C   UNL     1      34.028 -23.515 -15.345  0.00  0.00    +0.067 C 
ATOM     10  C   UNL     1      34.621 -24.404 -14.480  0.00  0.00    +0.036 C 
ATOM     11  C   UNL     1      33.724 -24.493 -13.399  0.00  0.00    +0.119 C 
ATOM     12  H   UNL     1      32.228 -22.505 -15.159  0.00  0.00    +0.174 HD
BRANCH  10  14
ATOM     13  N   UNL     1      38.332 -26.327 -15.133  0.00  0.00    -0.242 NA
ATOM     14  C   UNL     1      35.876 -25.054 -14.702  0.00  0.00    +0.006 C 
ATOM     15  C   UNL     1      37.064 -24.437 -14.318  0.00  0.00    +0.021 C 
ATOM     16  C   UNL     1      35.921 -26.310 -15.302  0.00  0.00    +0.021 C 
ATOM     17  C   UNL     1      38.253 -25.108 -14.553  0.00  0.00    +0.099 C 
ATOM     18  C   UNL     1      37.161 -26.898 -15.494  0.00  0.00    +0.099 C 
ENDBRANCH  10  14
ENDBRANCH   1   9
BRANCH   4  19
ATOM     19  O   UNL     1      35.609 -21.517 -20.324  0.00  0.00    -0.468 OA
BRANCH  19  20
ATOM     20  C   UNL     1      36.148 -20.202 -20.345  0.00  0.00    +0.264 C 
BRANCH  20  22
ATOM     21  N   UNL     1      35.544 -18.121 -21.423  0.00  0.00    -0.406 NA
ATOM     22  C   UNL     1      35.617 -19.467 -21.530  0.00  0.00    +0.152 C 
ATOM     23  C   UNL     1      34.650 -18.058 -23.659  0.00  0.00    +0.026 C 
ATOM     24  C   UNL     1      35.068 -17.423 -22.471  0.00  0.00    +0.113 C 
ATOM     25  C   UNL     1      35.232 -20.176 -22.650  0.00  0.00    +0.031 C 
ATOM     26  C   UNL     1      34.741 -19.455 -23.728  0.00  0.00    +0.005 C 
ATOM     27  C   UNL     1      34.157 -17.299 -24.735  0.00  0.00    +0.002 C 
ATOM     28  C   UNL     1      34.977 -16.035 -22.404  0.00  0.00    +0.085 C 
ATOM     29  C   UNL     1      34.077 -15.913 -24.640  0.00  0.00    -0.004 C 
ATOM     30  C   UNL     1      34.487 -15.280 -23.473  0.00  0.00    -0.019 C 
ENDBRANCH  20  22
ENDBRANCH  19  20
ENDBRANCH   4  19
TORSDOF 5
ENDMDL
MODEL 2
REMARK VINA RESULT:     -11.4      4.459     12.125
REMARK  Name = 11610553
REMARK  5 active torsions:
REMARK  status: ('A' for Active; 'I' for Inactive)
REMARK    1  A    between atoms: C_1  and  C_9
REMARK    2  A    between atoms: C_4  and  O_19
REMARK    3  A    between atoms: C_10  and  C_14
REMARK    4  A    between atoms: O_19  and  C_20
REMARK    5  A    between atoms: C_20  and  C_22
REMARK                            x       y       z     vdW  Elec       q    Type
REMARK                         _______ _______ _______ _____ _____    ______ ____
ROOT
ATOM      1  C   UNL     1      33.262 -13.388 -23.327  0.00  0.00    +0.015 C 
ATOM      2  C   UNL     1      33.102 -13.969 -24.586  0.00  0.00    +0.004 C 
ATOM      3  C   UNL     1      34.026 -14.032 -22.354  0.00  0.00    +0.004 C 
ATOM      4  C   UNL     1      34.467 -15.829 -23.894  0.00  0.00    +0.139 C 
ATOM      5  C   UNL     1      33.707 -15.194 -24.869  0.00  0.00    +0.037 C 
ATOM      6  C   UNL     1      34.631 -15.256 -22.637  0.00  0.00    +0.037 C 
ENDROOT
BRANCH   1   9
ATOM      7  N   UNL     1      31.680 -11.991 -22.069  0.00  0.00    -0.236 N 
ATOM      8  N   UNL     1      31.211 -10.739 -21.935  0.00  0.00    -0.180 NA
ATOM      9  C   UNL     1      32.636 -12.122 -23.034  0.00  0.00    +0.067 C 
ATOM     10  C   UNL     1      32.804 -10.867 -23.568  0.00  0.00    +0.036 C 
ATOM     11  C   UNL     1      31.901 -10.057 -22.853  0.00  0.00    +0.119 C 
ATOM     12  H   UNL     1      31.364 -12.745 -21.521  0.00  0.00    +0.174 HD
BRANCH  10  14
ATOM     13  N   UNL     1      35.502  -9.892 -26.677  0.00  0.00    -0.242 NA
ATOM     14  C   UNL     1      33.716 -10.537 -24.620  0.00  0.00    +0.006 C 
ATOM     15  C   UNL     1      34.845  -9.766 -24.354  0.00  0.00    +0.021 C 
ATOM     16  C   UNL     1      33.484 -10.984 -25.918  0.00  0.00    +0.021 C 
ATOM     17  C   UNL     1      35.698  -9.474 -25.405  0.00  0.00    +0.099 C 
ATOM     18  C   UNL     1      34.397 -10.637 -26.901  0.00  0.00    +0.099 C 
ENDBRANCH  10  14
ENDBRANCH   1   9
BRANCH   4  19
ATOM     19  O   UNL     1      35.061 -17.032 -24.173  0.00  0.00    -0.468 OA
BRANCH  19  20
ATOM     20  C   UNL     1      34.311 -18.202 -23.875  0.00  0.00    +0.264 C 
BRANCH  20  22
ATOM     21  N   UNL     1      34.146 -19.767 -22.036  0.00  0.00    -0.406 NA
ATOM     22  C   UNL     1      34.938 -18.912 -22.722  0.00  0.00    +0.152 C 
ATOM     23  C   UNL     1      36.020 -20.244 -20.598  0.00  0.00    +0.026 C 
ATOM     24  C   UNL     1      34.676 -20.425 -20.988  0.00  0.00    +0.113 C 
ATOM     25  C   UNL     1      36.262 -18.670 -22.416  0.00  0.00    +0.031 C 
ATOM     26  C   UNL     1      36.806 -19.349 -21.336  0.00  0.00    +0.005 C 
ATOM     27  C   UNL     1      36.541 -20.948 -19.499  0.00  0.00    +0.002 C 
ATOM     28  C   UNL     1      33.896 -21.315 -20.254  0.00  0.00    +0.085 C 
ATOM     29  C   UNL     1      35.738 -21.831 -18.783  0.00  0.00    -0.004 C 
ATOM     30  C   UNL     1      34.414 -22.014 -19.161  0.00  0.00    -0.019 C 
ENDBRANCH  20  22
ENDBRANCH  19  20
ENDBRANCH   4  19
TORSDOF 5
ENDMDL
MODEL 3
REMARK VINA RESULT:     -11.2      1.590      2.486
REMARK  Name = 11610553
REMARK  5 active torsions:
REMARK  status: ('A' for Active; 'I' for Inactive)
REMARK    1  A    between atoms: C_1  and  C_9
REMARK    2  A    between atoms: C_4  and  O_19
REMARK    3  A    between atoms: C_10  and  C_14
REMARK    4  A    between atoms: O_19  and  C_20
REMARK    5  A    between atoms: C_20  and  C_22
REMARK                            x       y       z     vdW  Elec       q    Type
REMARK                         _______ _______ _______ _____ _____    ______ ____
ROOT
ATOM      1  C   UNL     1      33.406 -22.184 -18.652  0.00  0.00    +0.015 C 
ATOM      2  C   UNL     1      34.777 -22.379 -18.819  0.00  0.00    +0.004 C 
ATOM      3  C   UNL     1      32.712 -21.335 -19.514  0.00  0.00    +0.004 C 
ATOM      4  C   UNL     1      34.755 -20.879 -20.703  0.00  0.00    +0.139 C 
ATOM      5  C   UNL     1      35.453 -21.724 -19.848  0.00  0.00    +0.037 C 
ATOM      6  C   UNL     1      33.388 -20.680 -20.543  0.00  0.00    +0.037 C 
ENDROOT
BRANCH   1   9
ATOM      7  N   UNL     1      31.349 -23.005 -17.588  0.00  0.00    -0.236 N 
ATOM      8  N   UNL     1      30.873 -23.663 -16.517  0.00  0.00    -0.180 NA
ATOM      9  C   UNL     1      32.706 -22.861 -17.588  0.00  0.00    +0.067 C 
ATOM     10  C   UNL     1      33.148 -23.467 -16.436  0.00  0.00    +0.036 C 
ATOM     11  C   UNL     1      31.976 -23.942 -15.817  0.00  0.00    +0.119 C 
ATOM     12  H   UNL     1      30.773 -22.660 -18.306  0.00  0.00    +0.174 HD
BRANCH  10  14
ATOM     13  N   UNL     1      37.192 -23.725 -15.220  0.00  0.00    -0.242 NA
ATOM     14  C   UNL     1      34.516 -23.554 -16.026  0.00  0.00    +0.006 C 
ATOM     15  C   UNL     1      35.279 -22.399 -15.875  0.00  0.00    +0.021 C 
ATOM     16  C   UNL     1      35.096 -24.795 -15.771  0.00  0.00    +0.021 C 
ATOM     17  C   UNL     1      36.598 -22.536 -15.475  0.00  0.00    +0.099 C 
ATOM     18  C   UNL     1      36.423 -24.825 -15.376  0.00  0.00    +0.099 C 
ENDBRANCH  10  14
ENDBRANCH   1   9
BRANCH   4  19
ATOM     19  O   UNL     1      35.420 -20.235 -21.714  0.00  0.00    -0.468 OA
BRANCH  19  20
ATOM     20  C   UNL     1      35.842 -18.903 -21.457  0.00  0.00    +0.264 C 
BRANCH  20  22
ATOM     21  N   UNL     1      35.105 -16.698 -22.132  0.00  0.00    -0.406 NA
ATOM     22  C   UNL     1      35.268 -17.992 -22.490  0.00  0.00    +0.152 C 
ATOM     23  C   UNL     1      34.218 -16.271 -24.331  0.00  0.00    +0.026 C 
ATOM     24  C   UNL     1      34.588 -15.847 -23.037  0.00  0.00    +0.113 C 
ATOM     25  C   UNL     1      34.936 -18.499 -23.730  0.00  0.00    +0.031 C 
ATOM     26  C   UNL     1      34.403 -17.620 -24.661  0.00  0.00    +0.005 C 
ATOM     27  C   UNL     1      33.681 -15.355 -25.252  0.00  0.00    +0.002 C 
ATOM     28  C   UNL     1      34.404 -14.506 -22.710  0.00  0.00    +0.085 C 
ATOM     29  C   UNL     1      33.507 -14.020 -24.898  0.00  0.00    -0.004 C 
ATOM     30  C   UNL     1      33.869 -13.596 -23.625  0.00  0.00    -0.019 C 
ENDBRANCH  20  22
ENDBRANCH  19  20
ENDBRANCH   4  19
TORSDOF 5
ENDMDL
MODEL 4
REMARK VINA RESULT:     -11.1      1.076      1.995
REMARK  Name = 11610553
REMARK  5 active torsions:
REMARK  status: ('A' for Active; 'I' for Inactive)
REMARK    1  A    between atoms: C_1  and  C_9
REMARK    2  A    between atoms: C_4  and  O_19
REMARK    3  A    between atoms: C_10  and  C_14
REMARK    4  A    between atoms: O_19  and  C_20
REMARK    5  A    between atoms: C_20  and  C_22
REMARK                            x       y       z     vdW  Elec       q    Type
REMARK                         _______ _______ _______ _____ _____    ______ ____
ROOT
ATOM      1  C   UNL     1      35.168 -23.073 -15.917  0.00  0.00    +0.015 C 
ATOM      2  C   UNL     1      36.406 -22.446 -16.061  0.00  0.00    +0.004 C 
ATOM      3  C   UNL     1      34.287 -23.134 -16.997  0.00  0.00    +0.004 C 
ATOM      4  C   UNL     1      35.878 -21.945 -18.357  0.00  0.00    +0.139 C 
ATOM      5  C   UNL     1      36.761 -21.880 -17.286  0.00  0.00    +0.037 C 
ATOM      6  C   UNL     1      34.642 -22.568 -18.220  0.00  0.00    +0.037 C 
ENDROOT
BRANCH   1   9
ATOM      7  N   UNL     1      33.649 -23.318 -14.001  0.00  0.00    -0.236 N 
ATOM      8  N   UNL     1      33.471 -23.964 -12.837  0.00  0.00    -0.180 NA
ATOM      9  C   UNL     1      34.800 -23.658 -14.651  0.00  0.00    +0.067 C 
ATOM     10  C   UNL     1      35.418 -24.592 -13.855  0.00  0.00    +0.036 C 
ATOM     11  C   UNL     1      34.555 -24.740 -12.752  0.00  0.00    +0.119 C 
ATOM     12  H   UNL     1      33.007 -22.660 -14.354  0.00  0.00    +0.174 HD
BRANCH  10  14
ATOM     13  N   UNL     1      39.106 -26.471 -14.730  0.00  0.00    -0.242 NA
ATOM     14  C   UNL     1      36.666 -25.228 -14.150  0.00  0.00    +0.006 C 
ATOM     15  C   UNL     1      36.716 -26.291 -15.048  0.00  0.00    +0.021 C 
ATOM     16  C   UNL     1      37.839 -24.788 -13.543  0.00  0.00    +0.021 C 
ATOM     17  C   UNL     1      37.948 -26.873 -15.301  0.00  0.00    +0.099 C 
ATOM     18  C   UNL     1      39.021 -25.437 -13.863  0.00  0.00    +0.099 C 
ENDBRANCH  10  14
ENDBRANCH   1   9
BRANCH   4  19
ATOM     19  O   UNL     1      36.228 -21.389 -19.560  0.00  0.00    -0.468 OA
BRANCH  19  20
ATOM     20  C   UNL     1      35.245 -21.412 -20.587  0.00  0.00    +0.264 C 
BRANCH  20  22
ATOM     21  N   UNL     1      34.536 -20.069 -22.471  0.00  0.00    -0.406 NA
ATOM     22  C   UNL     1      35.307 -20.139 -21.361  0.00  0.00    +0.152 C 
ATOM     23  C   UNL     1      35.373 -17.838 -22.829  0.00  0.00    +0.026 C 
ATOM     24  C   UNL     1      34.567 -18.935 -23.197  0.00  0.00    +0.113 C 
ATOM     25  C   UNL     1      36.126 -19.118 -20.923  0.00  0.00    +0.031 C 
ATOM     26  C   UNL     1      36.156 -17.952 -21.673  0.00  0.00    +0.005 C 
ATOM     27  C   UNL     1      35.381 -16.669 -23.611  0.00  0.00    +0.002 C 
ATOM     28  C   UNL     1      33.789 -18.820 -24.346  0.00  0.00    +0.085 C 
ATOM     29  C   UNL     1      34.593 -16.582 -24.755  0.00  0.00    -0.004 C 
ATOM     30  C   UNL     1      33.797 -17.659 -25.123  0.00  0.00    -0.019 C 
ENDBRANCH  20  22
ENDBRANCH  19  20
ENDBRANCH   4  19
TORSDOF 5
ENDMDL
MODEL 5
REMARK VINA RESULT:     -10.9      8.163     14.429
REMARK  Name = 11610553
REMARK  5 active torsions:
REMARK  status: ('A' for Active; 'I' for Inactive)
REMARK    1  A    between atoms: C_1  and  C_9
REMARK    2  A    between atoms: C_4  and  O_19
REMARK    3  A    between atoms: C_10  and  C_14
REMARK    4  A    between atoms: O_19  and  C_20
REMARK    5  A    between atoms: C_20  and  C_22
REMARK                            x       y       z     vdW  Elec       q    Type
REMARK                         _______ _______ _______ _____ _____    ______ ____
ROOT
ATOM      1  C   UNL     1      33.734  -8.717 -25.204  0.00  0.00    +0.015 C 
ATOM      2  C   UNL     1      32.863  -9.232 -26.164  0.00  0.00    +0.004 C 
ATOM      3  C   UNL     1      34.761  -9.511 -24.696  0.00  0.00    +0.004 C 
ATOM      4  C   UNL     1      34.045 -11.329 -26.103  0.00  0.00    +0.139 C 
ATOM      5  C   UNL     1      33.019 -10.543 -26.614  0.00  0.00    +0.037 C 
ATOM      6  C   UNL     1      34.917 -10.822 -25.146  0.00  0.00    +0.037 C 
ENDROOT
BRANCH   1   9
ATOM      7  N   UNL     1      33.954  -6.285 -25.485  0.00  0.00    -0.236 N 
ATOM      8  N   UNL     1      33.727  -5.102 -24.890  0.00  0.00    -0.180 NA
ATOM      9  C   UNL     1      33.572  -7.361 -24.737  0.00  0.00    +0.067 C 
ATOM     10  C   UNL     1      33.059  -6.845 -23.572  0.00  0.00    +0.036 C 
ATOM     11  C   UNL     1      33.180  -5.450 -23.722  0.00  0.00    +0.119 C 
ATOM     12  H   UNL     1      34.358  -6.369 -26.378  0.00  0.00    +0.174 HD
BRANCH  10  14
ATOM     13  N   UNL     1      31.512  -9.139 -20.371  0.00  0.00    -0.242 NA
ATOM     14  C   UNL     1      32.535  -7.620 -22.489  0.00  0.00    +0.006 C 
ATOM     15  C   UNL     1      31.620  -8.641 -22.735  0.00  0.00    +0.021 C 
ATOM     16  C   UNL     1      32.937  -7.362 -21.181  0.00  0.00    +0.021 C 
ATOM     17  C   UNL     1      31.143  -9.363 -21.653  0.00  0.00    +0.099 C 
ATOM     18  C   UNL     1      32.401  -8.141 -20.168  0.00  0.00    +0.099 C 
ENDBRANCH  10  14
ENDBRANCH   1   9
BRANCH   4  19
ATOM     19  O   UNL     1      34.198 -12.617 -26.546  0.00  0.00    -0.468 OA
BRANCH  19  20
ATOM     20  C   UNL     1      33.166 -13.536 -26.214  0.00  0.00    +0.264 C 
BRANCH  20  22
ATOM     21  N   UNL     1      33.638 -15.824 -25.584  0.00  0.00    -0.406 NA
ATOM     22  C   UNL     1      33.680 -14.522 -25.220  0.00  0.00    +0.152 C 
ATOM     23  C   UNL     1      34.602 -16.382 -23.447  0.00  0.00    +0.026 C 
ATOM     24  C   UNL     1      34.093 -16.744 -24.712  0.00  0.00    +0.113 C 
ATOM     25  C   UNL     1      34.160 -14.073 -24.007  0.00  0.00    +0.031 C 
ATOM     26  C   UNL     1      34.627 -15.023 -23.110  0.00  0.00    +0.005 C 
ATOM     27  C   UNL     1      35.068 -17.369 -22.561  0.00  0.00    +0.002 C 
ATOM     28  C   UNL     1      34.069 -18.095 -25.045  0.00  0.00    +0.085 C 
ATOM     29  C   UNL     1      35.032 -18.713 -22.921  0.00  0.00    -0.004 C 
ATOM     30  C   UNL     1      34.532 -19.076 -24.164  0.00  0.00    -0.019 C 
ENDBRANCH  20  22
ENDBRANCH  19  20
ENDBRANCH   4  19
TORSDOF 5
ENDMDL
MODEL 6
REMARK VINA RESULT:     -10.7      4.844     12.321
REMARK  Name = 11610553
REMARK  5 active torsions:
REMARK  status: ('A' for Active; 'I' for Inactive)
REMARK    1  A    between atoms: C_1  and  C_9
REMARK    2  A    between atoms: C_4  and  O_19
REMARK    3  A    between atoms: C_10  and  C_14
REMARK    4  A    between atoms: O_19  and  C_20
REMARK    5  A    between atoms: C_20  and  C_22
REMARK                            x       y       z     vdW  Elec       q    Type
REMARK                         _______ _______ _______ _____ _____    ______ ____
ROOT
ATOM      1  C   UNL     1      33.820 -12.607 -24.442  0.00  0.00    +0.015 C 
ATOM      2  C   UNL     1      33.442 -13.525 -25.422  0.00  0.00    +0.004 C 
ATOM      3  C   UNL     1      34.278 -13.058 -23.204  0.00  0.00    +0.004 C 
ATOM      4  C   UNL     1      33.978 -15.335 -23.927  0.00  0.00    +0.139 C 
ATOM      5  C   UNL     1      33.521 -14.893 -25.163  0.00  0.00    +0.037 C 
ATOM      6  C   UNL     1      34.357 -14.425 -22.945  0.00  0.00    +0.037 C 
ENDROOT
BRANCH   1   9
ATOM      7  N   UNL     1      34.338 -10.622 -25.794  0.00  0.00    -0.236 N 
ATOM      8  N   UNL     1      34.153  -9.293 -25.881  0.00  0.00    -0.180 NA
ATOM      9  C   UNL     1      33.737 -11.192 -24.709  0.00  0.00    +0.067 C 
ATOM     10  C   UNL     1      33.116 -10.164 -24.041  0.00  0.00    +0.036 C 
ATOM     11  C   UNL     1      33.407  -9.020 -24.808  0.00  0.00    +0.119 C 
ATOM     12  H   UNL     1      34.858 -11.136 -26.452  0.00  0.00    +0.174 HD
BRANCH  10  14
ATOM     13  N   UNL     1      30.875 -10.584 -20.477  0.00  0.00    -0.242 NA
ATOM     14  C   UNL     1      32.359 -10.306 -22.835  0.00  0.00    +0.006 C 
ATOM     15  C   UNL     1      32.223  -9.231 -21.960  0.00  0.00    +0.021 C 
ATOM     16  C   UNL     1      31.750 -11.520 -22.527  0.00  0.00    +0.021 C 
ATOM     17  C   UNL     1      31.479  -9.419 -20.807  0.00  0.00    +0.099 C 
ATOM     18  C   UNL     1      31.027 -11.606 -21.347  0.00  0.00    +0.099 C 
ENDBRANCH  10  14
ENDBRANCH   1   9
BRANCH   4  19
ATOM     19  O   UNL     1      34.056 -16.679 -23.672  0.00  0.00    -0.468 OA
BRANCH  19  20
ATOM     20  C   UNL     1      35.346 -17.272 -23.752  0.00  0.00    +0.264 C 
BRANCH  20  22
ATOM     21  N   UNL     1      34.339 -18.924 -22.297  0.00  0.00    -0.406 NA
ATOM     22  C   UNL     1      35.479 -18.312 -22.690  0.00  0.00    +0.152 C 
ATOM     23  C   UNL     1      35.649 -20.223 -20.747  0.00  0.00    +0.026 C 
ATOM     24  C   UNL     1      34.419 -19.867 -21.339  0.00  0.00    +0.113 C 
ATOM     25  C   UNL     1      36.726 -18.593 -22.170  0.00  0.00    +0.031 C 
ATOM     26  C   UNL     1      36.807 -19.564 -21.183  0.00  0.00    +0.005 C 
ATOM     27  C   UNL     1      35.697 -21.212 -19.750  0.00  0.00    +0.002 C 
ATOM     28  C   UNL     1      33.270 -20.522 -20.906  0.00  0.00    +0.085 C 
ATOM     29  C   UNL     1      34.532 -21.851 -19.335  0.00  0.00    -0.004 C 
ATOM     30  C   UNL     1      33.317 -21.505 -19.914  0.00  0.00    -0.019 C 
ENDBRANCH  20  22
ENDBRANCH  19  20
ENDBRANCH   4  19
TORSDOF 5
ENDMDL
MODEL 7
REMARK VINA RESULT:     -10.6      1.857      3.590
REMARK  Name = 11610553
REMARK  5 active torsions:
REMARK  status: ('A' for Active; 'I' for Inactive)
REMARK    1  A    between atoms: C_1  and  C_9
REMARK    2  A    between atoms: C_4  and  O_19
REMARK    3  A    between atoms: C_10  and  C_14
REMARK    4  A    between atoms: O_19  and  C_20
REMARK    5  A    between atoms: C_20  and  C_22
REMARK                            x       y       z     vdW  Elec       q    Type
REMARK                         _______ _______ _______ _____ _____    ______ ____
ROOT
ATOM      1  C   UNL     1      34.338 -23.152 -16.647  0.00  0.00    +0.015 C 
ATOM      2  C   UNL     1      35.544 -22.575 -17.045  0.00  0.00    +0.004 C 
ATOM      3  C   UNL     1      33.239 -23.135 -17.506  0.00  0.00    +0.004 C 
ATOM      4  C   UNL     1      34.551 -21.966 -19.153  0.00  0.00    +0.139 C 
ATOM      5  C   UNL     1      35.650 -21.980 -18.303  0.00  0.00    +0.037 C 
ATOM      6  C   UNL     1      33.345 -22.541 -18.763  0.00  0.00    +0.037 C 
ENDROOT
BRANCH   1   9
ATOM      7  N   UNL     1      35.325 -24.096 -14.604  0.00  0.00    -0.236 N 
ATOM      8  N   UNL     1      35.030 -24.659 -13.420  0.00  0.00    -0.180 NA
ATOM      9  C   UNL     1      34.228 -23.767 -15.347  0.00  0.00    +0.067 C 
ATOM     10  C   UNL     1      33.140 -24.141 -14.595  0.00  0.00    +0.036 C 
ATOM     11  C   UNL     1      33.694 -24.684 -13.420  0.00  0.00    +0.119 C 
ATOM     12  H   UNL     1      36.247 -23.935 -14.908  0.00  0.00    +0.174 HD
BRANCH  10  14
ATOM     13  N   UNL     1      29.100 -23.668 -15.759  0.00  0.00    -0.242 NA
ATOM     14  C   UNL     1      31.773 -23.981 -14.990  0.00  0.00    +0.006 C 
ATOM     15  C   UNL     1      31.032 -25.080 -15.413  0.00  0.00    +0.021 C 
ATOM     16  C   UNL     1      31.174 -22.725 -14.951  0.00  0.00    +0.021 C 
ATOM     17  C   UNL     1      29.713 -24.874 -15.784  0.00  0.00    +0.099 C 
ATOM     18  C   UNL     1      29.849 -22.623 -15.343  0.00  0.00    +0.099 C 
ENDBRANCH  10  14
ENDBRANCH   1   9
BRANCH   4  19
ATOM     19  O   UNL     1      34.655 -21.382 -20.388  0.00  0.00    -0.468 OA
BRANCH  19  20
ATOM     20  C   UNL     1      35.665 -20.395 -20.547  0.00  0.00    +0.264 C 
BRANCH  20  22
ATOM     21  N   UNL     1      35.232 -18.157 -21.359  0.00  0.00    -0.406 NA
ATOM     22  C   UNL     1      35.289 -19.475 -21.659  0.00  0.00    +0.152 C 
ATOM     23  C   UNL     1      34.602 -17.733 -23.646  0.00  0.00    +0.026 C 
ATOM     24  C   UNL     1      34.894 -17.295 -22.337  0.00  0.00    +0.113 C 
ATOM     25  C   UNL     1      35.021 -19.996 -22.909  0.00  0.00    +0.031 C 
ATOM     26  C   UNL     1      34.672 -19.106 -23.914  0.00  0.00    +0.005 C 
ATOM     27  C   UNL     1      34.253 -16.806 -24.643  0.00  0.00    +0.002 C 
ATOM     28  C   UNL     1      34.825 -15.930 -22.073  0.00  0.00    +0.085 C 
ATOM     29  C   UNL     1      34.190 -15.446 -24.351  0.00  0.00    -0.004 C 
ATOM     30  C   UNL     1      34.476 -15.009 -23.064  0.00  0.00    -0.019 C 
ENDBRANCH  20  22
ENDBRANCH  19  20
ENDBRANCH   4  19
TORSDOF 5
ENDMDL
MODEL 8
REMARK VINA RESULT:     -10.5      2.690      4.523
REMARK  Name = 11610553
REMARK  5 active torsions:
REMARK  status: ('A' for Active; 'I' for Inactive)
REMARK    1  A    between atoms: C_1  and  C_9
REMARK    2  A    between atoms: C_4  and  O_19
REMARK    3  A    between atoms: C_10  and  C_14
REMARK    4  A    between atoms: O_19  and  C_20
REMARK    5  A    between atoms: C_20  and  C_22
REMARK                            x       y       z     vdW  Elec       q    Type
REMARK                         _______ _______ _______ _____ _____    ______ ____
ROOT
ATOM      1  C   UNL     1      32.849 -23.375 -16.473  0.00  0.00    +0.015 C 
ATOM      2  C   UNL     1      34.212 -23.281 -16.754  0.00  0.00    +0.004 C 
ATOM      3  C   UNL     1      31.913 -22.922 -17.403  0.00  0.00    +0.004 C 
ATOM      4  C   UNL     1      33.700 -22.284 -18.885  0.00  0.00    +0.139 C 
ATOM      5  C   UNL     1      34.638 -22.733 -17.964  0.00  0.00    +0.037 C 
ATOM      6  C   UNL     1      32.339 -22.375 -18.612  0.00  0.00    +0.037 C 
ENDROOT
BRANCH   1   9
ATOM      7  N   UNL     1      33.286 -24.332 -14.253  0.00  0.00    -0.236 N 
ATOM      8  N   UNL     1      32.694 -24.835 -13.156  0.00  0.00    -0.180 NA
ATOM      9  C   UNL     1      32.408 -23.940 -15.222  0.00  0.00    +0.067 C 
ATOM     10  C   UNL     1      31.155 -24.207 -14.723  0.00  0.00    +0.036 C 
ATOM     11  C   UNL     1      31.394 -24.756 -13.449  0.00  0.00    +0.119 C 
ATOM     12  H   UNL     1      34.262 -24.252 -14.348  0.00  0.00    +0.174 HD
BRANCH  10  14
ATOM     13  N   UNL     1      27.522 -23.455 -16.756  0.00  0.00    -0.242 NA
ATOM     14  C   UNL     1      29.926 -23.953 -15.410  0.00  0.00    +0.006 C 
ATOM     15  C   UNL     1      29.299 -22.715 -15.294  0.00  0.00    +0.021 C 
ATOM     16  C   UNL     1      29.347 -24.941 -16.203  0.00  0.00    +0.021 C 
ATOM     17  C   UNL     1      28.111 -22.518 -15.979  0.00  0.00    +0.099 C 
ATOM     18  C   UNL     1      28.156 -24.645 -16.847  0.00  0.00    +0.099 C 
ENDBRANCH  10  14
ENDBRANCH   1   9
BRANCH   4  19
ATOM     19  O   UNL     1      34.119 -21.746 -20.074  0.00  0.00    -0.468 OA
BRANCH  19  20
ATOM     20  C   UNL     1      35.438 -21.220 -20.110  0.00  0.00    +0.264 C 
BRANCH  20  22
ATOM     21  N   UNL     1      34.601 -20.106 -22.089  0.00  0.00    -0.406 NA
ATOM     22  C   UNL     1      35.492 -20.080 -21.071  0.00  0.00    +0.152 C 
ATOM     23  C   UNL     1      35.537 -18.029 -22.872  0.00  0.00    +0.026 C 
ATOM     24  C   UNL     1      34.621 -19.096 -22.978  0.00  0.00    +0.113 C 
ATOM     25  C   UNL     1      36.425 -19.080 -20.885  0.00  0.00    +0.031 C 
ATOM     26  C   UNL     1      36.443 -18.041 -21.803  0.00  0.00    +0.005 C 
ATOM     27  C   UNL     1      35.530 -16.990 -23.818  0.00  0.00    +0.002 C 
ATOM     28  C   UNL     1      33.721 -19.082 -24.040  0.00  0.00    +0.085 C 
ATOM     29  C   UNL     1      34.619 -17.002 -24.871  0.00  0.00    -0.004 C 
ATOM     30  C   UNL     1      33.714 -18.050 -24.982  0.00  0.00    -0.019 C 
ENDBRANCH  20  22
ENDBRANCH  19  20
ENDBRANCH   4  19
TORSDOF 5
ENDMDL
MODEL 9
REMARK VINA RESULT:      -9.7      7.052     14.854
REMARK  Name = 11610553
REMARK  5 active torsions:
REMARK  status: ('A' for Active; 'I' for Inactive)
REMARK    1  A    between atoms: C_1  and  C_9
REMARK    2  A    between atoms: C_4  and  O_19
REMARK    3  A    between atoms: C_10  and  C_14
REMARK    4  A    between atoms: O_19  and  C_20
REMARK    5  A    between atoms: C_20  and  C_22
REMARK                            x       y       z     vdW  Elec       q    Type
REMARK                         _______ _______ _______ _____ _____    ______ ____
ROOT
ATOM      1  C   UNL     1      34.484  -8.949 -25.398  0.00  0.00    +0.015 C 
ATOM      2  C   UNL     1      34.787  -9.734 -26.510  0.00  0.00    +0.004 C 
ATOM      3  C   UNL     1      34.094  -9.554 -24.203  0.00  0.00    +0.004 C 
ATOM      4  C   UNL     1      34.309 -11.719 -25.234  0.00  0.00    +0.139 C 
ATOM      5  C   UNL     1      34.698 -11.124 -26.428  0.00  0.00    +0.037 C 
ATOM      6  C   UNL     1      34.006 -10.943 -24.120  0.00  0.00    +0.037 C 
ENDROOT
BRANCH   1   9
ATOM      7  N   UNL     1      35.397  -6.888 -26.375  0.00  0.00    -0.236 N 
ATOM      8  N   UNL     1      35.350  -5.547 -26.312  0.00  0.00    -0.180 NA
ATOM      9  C   UNL     1      34.575  -7.512 -25.483  0.00  0.00    +0.067 C 
ATOM     10  C   UNL     1      33.946  -6.508 -24.787  0.00  0.00    +0.036 C 
ATOM     11  C   UNL     1      34.462  -5.320 -25.340  0.00  0.00    +0.119 C 
ATOM     12  H   UNL     1      35.972  -7.376 -27.008  0.00  0.00    +0.174 HD
BRANCH  10  14
ATOM     13  N   UNL     1      31.114  -7.097 -21.699  0.00  0.00    -0.242 NA
ATOM     14  C   UNL     1      32.988  -6.706 -23.742  0.00  0.00    +0.006 C 
ATOM     15  C   UNL     1      31.631  -6.799 -24.042  0.00  0.00    +0.021 C 
ATOM     16  C   UNL     1      33.405  -6.810 -22.417  0.00  0.00    +0.021 C 
ATOM     17  C   UNL     1      30.744  -6.992 -22.996  0.00  0.00    +0.099 C 
ATOM     18  C   UNL     1      32.438  -7.002 -21.443  0.00  0.00    +0.099 C 
ENDBRANCH  10  14
ENDBRANCH   1   9
BRANCH   4  19
ATOM     19  O   UNL     1      34.222 -13.084 -25.153  0.00  0.00    -0.468 OA
BRANCH  19  20
ATOM     20  C   UNL     1      33.955 -13.635 -23.870  0.00  0.00    +0.264 C 
BRANCH  20  22
ATOM     21  N   UNL     1      34.617 -15.693 -22.783  0.00  0.00    -0.406 NA
ATOM     22  C   UNL     1      34.153 -15.113 -23.913  0.00  0.00    +0.152 C 
ATOM     23  C   UNL     1      34.544 -17.815 -23.922  0.00  0.00    +0.026 C 
ATOM     24  C   UNL     1      34.811 -17.025 -22.784  0.00  0.00    +0.113 C 
ATOM     25  C   UNL     1      33.865 -15.801 -25.074  0.00  0.00    +0.031 C 
ATOM     26  C   UNL     1      34.065 -17.174 -25.072  0.00  0.00    +0.005 C 
ATOM     27  C   UNL     1      34.758 -19.204 -23.889  0.00  0.00    +0.002 C 
ATOM     28  C   UNL     1      35.287 -17.664 -21.642  0.00  0.00    +0.085 C 
ATOM     29  C   UNL     1      35.235 -19.815 -22.733  0.00  0.00    -0.004 C 
ATOM     30  C   UNL     1      35.500 -19.044 -21.609  0.00  0.00    -0.019 C 
ENDBRANCH  20  22
ENDBRANCH  19  20
ENDBRANCH   4  19
TORSDOF 5
ENDMDL
