MODEL 1
REMARK VINA RESULT:     -12.5      0.000      0.000
REMARK  Name = 5288710
REMARK  3 active torsions:
REMARK  status: ('A' for Active; 'I' for Inactive)
REMARK    1  A    between atoms: C_6  and  N_18
REMARK    2  A    between atoms: C_9  and  C_15
REMARK    3  A    between atoms: N_18  and  C_29
REMARK                            x       y       z     vdW  Elec       q    Type
REMARK                         _______ _______ _______ _____ _____    ______ ____
ROOT
ATOM      1  O   UNL     1      34.839 -24.057 -16.274  0.00  0.00    -0.270 OA
ATOM      2  N   UNL     1      32.851 -24.272 -15.016  0.00  0.00    -0.280 N 
ATOM      3  C   UNL     1      31.349 -23.297 -16.459  0.00  0.00    +0.019 C 
ATOM      4  C   UNL     1      32.677 -23.265 -17.063  0.00  0.00    +0.069 C 
ATOM      5  C   UNL     1      31.512 -23.918 -15.217  0.00  0.00    +0.051 C 
ATOM      6  C   UNL     1      33.040 -22.770 -18.249  0.00  0.00    +0.066 C 
ATOM      7  C   UNL     1      33.642 -23.904 -16.108  0.00  0.00    +0.251 C 
ATOM      8  C   UNL     1      30.104 -22.862 -16.873  0.00  0.00    +0.005 C 
ATOM      9  C   UNL     1      29.022 -23.063 -16.010  0.00  0.00    +0.036 C 
ATOM     10  C   UNL     1      30.457 -24.128 -14.351  0.00  0.00    +0.015 C 
ATOM     11  C   UNL     1      29.195 -23.690 -14.762  0.00  0.00    +0.004 C 
ATOM     12  H   UNL     1      33.191 -24.721 -14.208  0.00  0.00    +0.155 HD
ENDROOT
BRANCH   9  15
ATOM     13  O   UNL     1      27.534 -22.371 -17.728  0.00  0.00    -0.431 OA
ATOM     14  N   UNL     1      25.580 -21.969 -16.661  0.00  0.00    -0.203 NA
ATOM     15  C   UNL     1      27.705 -22.621 -16.405  0.00  0.00    +0.166 C 
ATOM     16  C   UNL     1      26.528 -22.380 -15.758  0.00  0.00    +0.140 C 
ATOM     17  C   UNL     1      26.230 -21.984 -17.802  0.00  0.00    +0.285 C 
ENDBRANCH   9  15
BRANCH   6  18
ATOM     18  N   UNL     1      34.275 -22.748 -18.795  0.00  0.00    -0.311 N 
ATOM     19  H   UNL     1      34.824 -23.551 -18.641  0.00  0.00    +0.152 HD
BRANCH  18  29
ATOM     20  S   UNL     1      35.251 -18.082 -22.850  0.00  0.00    -0.002 S 
ATOM     21  O   UNL     1      35.410 -18.595 -24.197  0.00  0.00    -0.172 OA
ATOM     22  O   UNL     1      35.027 -16.673 -22.596  0.00  0.00    -0.172 OA
ATOM     23  C   UNL     1      33.954 -19.013 -22.051  0.00  0.00    +0.177 C 
ATOM     24  C   UNL     1      36.658 -18.612 -21.886  0.00  0.00    +0.177 C 
ATOM     25  C   UNL     1      34.711 -19.923 -21.145  0.00  0.00    +0.000 C 
ATOM     26  C   UNL     1      36.093 -19.718 -21.061  0.00  0.00    -0.001 C 
ATOM     27  C   UNL     1      34.103 -20.926 -20.393  0.00  0.00    +0.012 C 
ATOM     28  C   UNL     1      36.870 -20.517 -20.224  0.00  0.00    -0.002 C 
ATOM     29  C   UNL     1      34.882 -21.728 -19.558  0.00  0.00    +0.048 C 
ATOM     30  C   UNL     1      36.262 -21.524 -19.474  0.00  0.00    +0.014 C 
ENDBRANCH  18  29
ENDBRANCH   6  18
TORSDOF 3
ENDMDL
MODEL 2
REMARK VINA RESULT:     -11.4      3.499      8.935
REMARK  Name = 5288710
REMARK  3 active torsions:
REMARK  status: ('A' for Active; 'I' for Inactive)
REMARK    1  A    between atoms: C_6  and  N_18
REMARK    2  A    between atoms: C_9  and  C_15
REMARK    3  A    between atoms: N_18  and  C_29
REMARK                            x       y       z     vdW  Elec       q    Type
REMARK                         _______ _______ _______ _____ _____    ______ ____
ROOT
ATOM      1  O   UNL     1      36.134 -22.416 -18.069  0.00  0.00    -0.270 OA
ATOM      2  N   UNL     1      36.971 -20.656 -19.404  0.00  0.00    -0.280 N 
ATOM      3  C   UNL     1      35.201 -20.359 -20.843  0.00  0.00    +0.019 C 
ATOM      4  C   UNL     1      34.879 -21.433 -19.909  0.00  0.00    +0.069 C 
ATOM      5  C   UNL     1      36.481 -19.922 -20.491  0.00  0.00    +0.051 C 
ATOM      6  C   UNL     1      33.766 -22.170 -19.838  0.00  0.00    +0.066 C 
ATOM      7  C   UNL     1      36.044 -21.613 -18.980  0.00  0.00    +0.251 C 
ATOM      8  C   UNL     1      34.519 -19.775 -21.893  0.00  0.00    +0.005 C 
ATOM      9  C   UNL     1      35.153 -18.739 -22.587  0.00  0.00    +0.036 C 
ATOM     10  C   UNL     1      37.125 -18.901 -21.162  0.00  0.00    +0.015 C 
ATOM     11  C   UNL     1      36.443 -18.306 -22.226  0.00  0.00    +0.004 C 
ATOM     12  H   UNL     1      37.854 -20.515 -18.992  0.00  0.00    +0.155 HD
ENDROOT
BRANCH   9  15
ATOM     13  O   UNL     1      34.623 -16.758 -23.786  0.00  0.00    -0.431 OA
ATOM     14  N   UNL     1      33.313 -17.457 -25.493  0.00  0.00    -0.203 NA
ATOM     15  C   UNL     1      34.475 -18.104 -23.693  0.00  0.00    +0.166 C 
ATOM     16  C   UNL     1      33.686 -18.529 -24.721  0.00  0.00    +0.140 C 
ATOM     17  C   UNL     1      33.895 -16.444 -24.893  0.00  0.00    +0.285 C 
ENDBRANCH   9  15
BRANCH   6  18
ATOM     18  N   UNL     1      33.483 -23.162 -18.967  0.00  0.00    -0.311 N 
ATOM     19  H   UNL     1      33.910 -24.029 -19.154  0.00  0.00    +0.152 HD
BRANCH  18  29
ATOM     20  S   UNL     1      31.296 -23.782 -13.136  0.00  0.00    -0.002 S 
ATOM     21  O   UNL     1      30.822 -25.133 -12.905  0.00  0.00    -0.172 OA
ATOM     22  O   UNL     1      31.515 -22.857 -12.043  0.00  0.00    -0.172 OA
ATOM     23  C   UNL     1      32.795 -23.879 -14.102  0.00  0.00    +0.177 C 
ATOM     24  C   UNL     1      30.208 -23.007 -14.321  0.00  0.00    +0.177 C 
ATOM     25  C   UNL     1      32.336 -23.481 -15.463  0.00  0.00    +0.000 C 
ATOM     26  C   UNL     1      31.013 -23.036 -15.576  0.00  0.00    -0.001 C 
ATOM     27  C   UNL     1      33.160 -23.522 -16.586  0.00  0.00    +0.012 C 
ATOM     28  C   UNL     1      30.512 -22.631 -16.811  0.00  0.00    -0.002 C 
ATOM     29  C   UNL     1      32.656 -23.121 -17.824  0.00  0.00    +0.048 C 
ATOM     30  C   UNL     1      31.336 -22.676 -17.936  0.00  0.00    +0.014 C 
ENDBRANCH  18  29
ENDBRANCH   6  18
TORSDOF 3
ENDMDL
MODEL 3
REMARK VINA RESULT:     -11.1      1.407      1.913
REMARK  Name = 5288710
REMARK  3 active torsions:
REMARK  status: ('A' for Active; 'I' for Inactive)
REMARK    1  A    between atoms: C_6  and  N_18
REMARK    2  A    between atoms: C_9  and  C_15
REMARK    3  A    between atoms: N_18  and  C_29
REMARK                            x       y       z     vdW  Elec       q    Type
REMARK                         _______ _______ _______ _____ _____    ______ ____
ROOT
ATOM      1  O   UNL     1      36.776 -22.764 -16.933  0.00  0.00    -0.270 OA
ATOM      2  N   UNL     1      35.094 -23.493 -15.443  0.00  0.00    -0.280 N 
ATOM      3  C   UNL     1      33.224 -23.128 -16.730  0.00  0.00    +0.019 C 
ATOM      4  C   UNL     1      34.406 -22.731 -17.487  0.00  0.00    +0.069 C 
ATOM      5  C   UNL     1      33.699 -23.583 -15.497  0.00  0.00    +0.051 C 
ATOM      6  C   UNL     1      34.473 -22.230 -18.724  0.00  0.00    +0.066 C 
ATOM      7  C   UNL     1      35.615 -22.976 -16.632  0.00  0.00    +0.251 C 
ATOM      8  C   UNL     1      31.870 -23.125 -17.008  0.00  0.00    +0.005 C 
ATOM      9  C   UNL     1      30.999 -23.591 -16.018  0.00  0.00    +0.036 C 
ATOM     10  C   UNL     1      32.857 -24.048 -14.505  0.00  0.00    +0.015 C 
ATOM     11  C   UNL     1      31.487 -24.048 -14.778  0.00  0.00    +0.004 C 
ATOM     12  H   UNL     1      35.638 -23.760 -14.667  0.00  0.00    +0.155 HD
ENDROOT
BRANCH   9  15
ATOM     13  O   UNL     1      29.117 -22.658 -17.128  0.00  0.00    -0.431 OA
ATOM     14  N   UNL     1      27.366 -23.908 -16.427  0.00  0.00    -0.203 NA
ATOM     15  C   UNL     1      29.577 -23.603 -16.268  0.00  0.00    +0.166 C 
ATOM     16  C   UNL     1      28.523 -24.359 -15.844  0.00  0.00    +0.140 C 
ATOM     17  C   UNL     1      27.779 -22.908 -17.171  0.00  0.00    +0.285 C 
ENDBRANCH   9  15
BRANCH   6  18
ATOM     18  N   UNL     1      35.577 -21.866 -19.412  0.00  0.00    -0.311 N 
ATOM     19  H   UNL     1      36.380 -22.412 -19.250  0.00  0.00    +0.152 HD
BRANCH  18  29
ATOM     20  S   UNL     1      34.584 -17.754 -24.025  0.00  0.00    -0.002 S 
ATOM     21  O   UNL     1      34.859 -18.353 -25.316  0.00  0.00    -0.172 OA
ATOM     22  O   UNL     1      33.868 -16.500 -23.907  0.00  0.00    -0.172 OA
ATOM     23  C   UNL     1      33.757 -18.973 -23.014  0.00  0.00    +0.177 C 
ATOM     24  C   UNL     1      36.128 -17.608 -23.141  0.00  0.00    +0.177 C 
ATOM     25  C   UNL     1      34.836 -19.418 -22.087  0.00  0.00    +0.000 C 
ATOM     26  C   UNL     1      36.048 -18.721 -22.151  0.00  0.00    -0.001 C 
ATOM     27  C   UNL     1      34.674 -20.462 -21.177  0.00  0.00    +0.012 C 
ATOM     28  C   UNL     1      37.101 -19.065 -21.306  0.00  0.00    -0.002 C 
ATOM     29  C   UNL     1      35.730 -20.809 -20.334  0.00  0.00    +0.048 C 
ATOM     30  C   UNL     1      36.940 -20.113 -20.399  0.00  0.00    +0.014 C 
ENDBRANCH  18  29
ENDBRANCH   6  18
TORSDOF 3
ENDMDL
MODEL 4
REMARK VINA RESULT:     -10.9      3.410      6.817
REMARK  Name = 5288710
REMARK  3 active torsions:
REMARK  status: ('A' for Active; 'I' for Inactive)
REMARK    1  A    between atoms: C_6  and  N_18
REMARK    2  A    between atoms: C_9  and  C_15
REMARK    3  A    between atoms: N_18  and  C_29
REMARK                            x       y       z     vdW  Elec       q    Type
REMARK                         _______ _______ _______ _____ _____    ______ ____
ROOT
ATOM      1  O   UNL     1      31.927 -22.926 -15.658  0.00  0.00    -0.270 OA
ATOM      2  N   UNL     1      33.344 -23.782 -13.973  0.00  0.00    -0.280 N 
ATOM      3  C   UNL     1      35.260 -24.139 -15.195  0.00  0.00    +0.019 C 
ATOM      4  C   UNL     1      34.230 -23.596 -16.075  0.00  0.00    +0.069 C 
ATOM      5  C   UNL     1      34.669 -24.231 -13.931  0.00  0.00    +0.051 C 
ATOM      6  C   UNL     1      34.308 -23.325 -17.380  0.00  0.00    +0.066 C 
ATOM      7  C   UNL     1      32.989 -23.371 -15.261  0.00  0.00    +0.251 C 
ATOM      8  C   UNL     1      36.571 -24.529 -15.391  0.00  0.00    +0.005 C 
ATOM      9  C   UNL     1      37.280 -25.016 -14.289  0.00  0.00    +0.036 C 
ATOM     10  C   UNL     1      35.351 -24.709 -12.829  0.00  0.00    +0.015 C 
ATOM     11  C   UNL     1      36.677 -25.105 -13.020  0.00  0.00    +0.004 C 
ATOM     12  H   UNL     1      32.741 -23.760 -13.196  0.00  0.00    +0.155 HD
ENDROOT
BRANCH   9  15
ATOM     13  O   UNL     1      39.131 -26.285 -13.508  0.00  0.00    -0.431 OA
ATOM     14  N   UNL     1      40.774 -25.876 -15.008  0.00  0.00    -0.203 NA
ATOM     15  C   UNL     1      38.652 -25.435 -14.453  0.00  0.00    +0.166 C 
ATOM     16  C   UNL     1      39.641 -25.187 -15.359  0.00  0.00    +0.140 C 
ATOM     17  C   UNL     1      40.413 -26.503 -13.912  0.00  0.00    +0.285 C 
ENDBRANCH   9  15
BRANCH   6  18
ATOM     18  N   UNL     1      33.345 -22.822 -18.182  0.00  0.00    -0.311 N 
ATOM     19  H   UNL     1      32.435 -23.160 -18.019  0.00  0.00    +0.152 HD
BRANCH  18  29
ATOM     20  S   UNL     1      35.666 -18.676 -22.255  0.00  0.00    -0.002 S 
ATOM     21  O   UNL     1      35.828 -17.377 -21.630  0.00  0.00    -0.172 OA
ATOM     22  O   UNL     1      36.280 -18.988 -23.529  0.00  0.00    -0.172 OA
ATOM     23  C   UNL     1      36.154 -19.923 -21.073  0.00  0.00    +0.177 C 
ATOM     24  C   UNL     1      33.918 -19.020 -22.372  0.00  0.00    +0.177 C 
ATOM     25  C   UNL     1      34.846 -20.469 -20.611  0.00  0.00    +0.000 C 
ATOM     26  C   UNL     1      33.703 -20.008 -21.275  0.00  0.00    -0.001 C 
ATOM     27  C   UNL     1      34.732 -21.405 -19.586  0.00  0.00    +0.012 C 
ATOM     28  C   UNL     1      32.443 -20.482 -20.914  0.00  0.00    -0.002 C 
ATOM     29  C   UNL     1      33.470 -21.876 -19.222  0.00  0.00    +0.048 C 
ATOM     30  C   UNL     1      32.329 -21.416 -19.884  0.00  0.00    +0.014 C 
ENDBRANCH  18  29
ENDBRANCH   6  18
TORSDOF 3
ENDMDL
MODEL 5
REMARK VINA RESULT:     -10.8      3.345      5.672
REMARK  Name = 5288710
REMARK  3 active torsions:
REMARK  status: ('A' for Active; 'I' for Inactive)
REMARK    1  A    between atoms: C_6  and  N_18
REMARK    2  A    between atoms: C_9  and  C_15
REMARK    3  A    between atoms: N_18  and  C_29
REMARK                            x       y       z     vdW  Elec       q    Type
REMARK                         _______ _______ _______ _____ _____    ______ ____
ROOT
ATOM      1  O   UNL     1      32.465 -22.033 -20.351  0.00  0.00    -0.270 OA
ATOM      2  N   UNL     1      32.263 -22.789 -18.122  0.00  0.00    -0.280 N 
ATOM      3  C   UNL     1      34.470 -22.742 -17.475  0.00  0.00    +0.019 C 
ATOM      4  C   UNL     1      34.372 -22.298 -18.862  0.00  0.00    +0.069 C 
ATOM      5  C   UNL     1      33.161 -23.027 -17.075  0.00  0.00    +0.051 C 
ATOM      6  C   UNL     1      35.352 -21.914 -19.685  0.00  0.00    +0.066 C 
ATOM      7  C   UNL     1      32.927 -22.336 -19.266  0.00  0.00    +0.251 C 
ATOM      8  C   UNL     1      35.527 -22.903 -16.600  0.00  0.00    +0.005 C 
ATOM      9  C   UNL     1      35.242 -23.361 -15.309  0.00  0.00    +0.036 C 
ATOM     10  C   UNL     1      32.858 -23.478 -15.806  0.00  0.00    +0.015 C 
ATOM     11  C   UNL     1      33.921 -23.645 -14.915  0.00  0.00    +0.004 C 
ATOM     12  H   UNL     1      31.290 -22.924 -18.060  0.00  0.00    +0.155 HD
ENDROOT
BRANCH   9  15
ATOM     13  O   UNL     1      36.110 -23.046 -13.120  0.00  0.00    -0.431 OA
ATOM     14  N   UNL     1      38.160 -24.001 -13.177  0.00  0.00    -0.203 NA
ATOM     15  C   UNL     1      36.319 -23.545 -14.365  0.00  0.00    +0.166 C 
ATOM     16  C   UNL     1      37.555 -24.122 -14.402  0.00  0.00    +0.140 C 
ATOM     17  C   UNL     1      37.261 -23.360 -12.465  0.00  0.00    +0.285 C 
ENDBRANCH   9  15
BRANCH   6  18
ATOM     18  N   UNL     1      35.245 -21.506 -20.967  0.00  0.00    -0.311 N 
ATOM     19  H   UNL     1      35.196 -22.222 -21.640  0.00  0.00    +0.152 HD
BRANCH  18  29
ATOM     20  S   UNL     1      34.268 -16.535 -24.643  0.00  0.00    -0.002 S 
ATOM     21  O   UNL     1      35.313 -16.421 -25.642  0.00  0.00    -0.172 OA
ATOM     22  O   UNL     1      33.034 -15.782 -24.745  0.00  0.00    -0.172 OA
ATOM     23  C   UNL     1      33.859 -18.265 -24.465  0.00  0.00    +0.177 C 
ATOM     24  C   UNL     1      34.993 -16.217 -23.043  0.00  0.00    +0.177 C 
ATOM     25  C   UNL     1      34.521 -18.629 -23.180  0.00  0.00    +0.000 C 
ATOM     26  C   UNL     1      35.101 -17.583 -22.453  0.00  0.00    -0.001 C 
ATOM     27  C   UNL     1      34.565 -19.932 -22.689  0.00  0.00    +0.012 C 
ATOM     28  C   UNL     1      35.726 -17.838 -21.234  0.00  0.00    -0.002 C 
ATOM     29  C   UNL     1      35.194 -20.188 -21.470  0.00  0.00    +0.048 C 
ATOM     30  C   UNL     1      35.773 -19.144 -20.745  0.00  0.00    +0.014 C 
ENDBRANCH  18  29
ENDBRANCH   6  18
TORSDOF 3
ENDMDL
MODEL 6
REMARK VINA RESULT:     -10.7      2.618      5.417
REMARK  Name = 5288710
REMARK  3 active torsions:
REMARK  status: ('A' for Active; 'I' for Inactive)
REMARK    1  A    between atoms: C_6  and  N_18
REMARK    2  A    between atoms: C_9  and  C_15
REMARK    3  A    between atoms: N_18  and  C_29
REMARK                            x       y       z     vdW  Elec       q    Type
REMARK                         _______ _______ _______ _____ _____    ______ ____
ROOT
ATOM      1  O   UNL     1      31.370 -22.648 -18.030  0.00  0.00    -0.270 OA
ATOM      2  N   UNL     1      31.487 -23.405 -15.796  0.00  0.00    -0.280 N 
ATOM      3  C   UNL     1      33.761 -23.659 -15.570  0.00  0.00    +0.019 C 
ATOM      4  C   UNL     1      33.468 -23.185 -16.919  0.00  0.00    +0.069 C 
ATOM      5  C   UNL     1      32.523 -23.775 -14.932  0.00  0.00    +0.051 C 
ATOM      6  C   UNL     1      34.321 -22.920 -17.912  0.00  0.00    +0.066 C 
ATOM      7  C   UNL     1      31.981 -23.026 -17.048  0.00  0.00    +0.251 C 
ATOM      8  C   UNL     1      34.932 -23.972 -14.905  0.00  0.00    +0.005 C 
ATOM      9  C   UNL     1      34.832 -24.407 -13.579  0.00  0.00    +0.036 C 
ATOM     10  C   UNL     1      32.403 -24.202 -13.624  0.00  0.00    +0.015 C 
ATOM     11  C   UNL     1      33.581 -24.522 -12.944  0.00  0.00    +0.004 C 
ATOM     12  H   UNL     1      30.533 -23.412 -15.554  0.00  0.00    +0.155 HD
ENDROOT
BRANCH   9  15
ATOM     13  O   UNL     1      36.827 -25.688 -13.418  0.00  0.00    -0.431 OA
ATOM     14  N   UNL     1      37.776 -25.022 -11.475  0.00  0.00    -0.203 NA
ATOM     15  C   UNL     1      36.031 -24.746 -12.850  0.00  0.00    +0.166 C 
ATOM     16  C   UNL     1      36.601 -24.342 -11.678  0.00  0.00    +0.140 C 
ATOM     17  C   UNL     1      37.855 -25.798 -12.532  0.00  0.00    +0.285 C 
ENDBRANCH   9  15
BRANCH   6  18
ATOM     18  N   UNL     1      34.034 -22.482 -19.157  0.00  0.00    -0.311 N 
ATOM     19  H   UNL     1      33.280 -22.930 -19.604  0.00  0.00    +0.152 HD
BRANCH  18  29
ATOM     20  S   UNL     1      35.154 -17.792 -23.147  0.00  0.00    -0.002 S 
ATOM     21  O   UNL     1      35.319 -18.293 -24.497  0.00  0.00    -0.172 OA
ATOM     22  O   UNL     1      34.954 -16.382 -22.879  0.00  0.00    -0.172 OA
ATOM     23  C   UNL     1      33.828 -18.705 -22.374  0.00  0.00    +0.177 C 
ATOM     24  C   UNL     1      36.537 -18.360 -22.171  0.00  0.00    +0.177 C 
ATOM     25  C   UNL     1      34.555 -19.640 -21.469  0.00  0.00    +0.000 C 
ATOM     26  C   UNL     1      35.940 -19.464 -21.365  0.00  0.00    -0.001 C 
ATOM     27  C   UNL     1      33.918 -20.639 -20.736  0.00  0.00    +0.012 C 
ATOM     28  C   UNL     1      36.690 -20.287 -20.528  0.00  0.00    -0.002 C 
ATOM     29  C   UNL     1      34.670 -21.466 -19.901  0.00  0.00    +0.048 C 
ATOM     30  C   UNL     1      36.053 -21.290 -19.797  0.00  0.00    +0.014 C 
ENDBRANCH  18  29
ENDBRANCH   6  18
TORSDOF 3
ENDMDL
MODEL 7
REMARK VINA RESULT:     -10.6      3.240      8.637
REMARK  Name = 5288710
REMARK  3 active torsions:
REMARK  status: ('A' for Active; 'I' for Inactive)
REMARK    1  A    between atoms: C_6  and  N_18
REMARK    2  A    between atoms: C_9  and  C_15
REMARK    3  A    between atoms: N_18  and  C_29
REMARK                            x       y       z     vdW  Elec       q    Type
REMARK                         _______ _______ _______ _____ _____    ______ ____
ROOT
ATOM      1  O   UNL     1      36.784 -21.976 -17.894  0.00  0.00    -0.270 OA
ATOM      2  N   UNL     1      37.323 -20.260 -19.424  0.00  0.00    -0.280 N 
ATOM      3  C   UNL     1      35.463 -20.321 -20.776  0.00  0.00    +0.019 C 
ATOM      4  C   UNL     1      35.327 -21.334 -19.734  0.00  0.00    +0.069 C 
ATOM      5  C   UNL     1      36.692 -19.698 -20.540  0.00  0.00    +0.051 C 
ATOM      6  C   UNL     1      34.323 -22.193 -19.534  0.00  0.00    +0.066 C 
ATOM      7  C   UNL     1      36.548 -21.280 -18.864  0.00  0.00    +0.251 C 
ATOM      8  C   UNL     1      34.662 -19.927 -21.831  0.00  0.00    +0.005 C 
ATOM      9  C   UNL     1      35.124 -18.892 -22.650  0.00  0.00    +0.036 C 
ATOM     10  C   UNL     1      37.166 -18.673 -21.335  0.00  0.00    +0.015 C 
ATOM     11  C   UNL     1      36.363 -18.270 -22.405  0.00  0.00    +0.004 C 
ATOM     12  H   UNL     1      38.199 -19.973 -19.079  0.00  0.00    +0.155 HD
ENDROOT
BRANCH   9  15
ATOM     13  O   UNL     1      33.342 -19.306 -24.166  0.00  0.00    -0.431 OA
ATOM     14  N   UNL     1      33.276 -17.468 -25.483  0.00  0.00    -0.203 NA
ATOM     15  C   UNL     1      34.318 -18.452 -23.764  0.00  0.00    +0.166 C 
ATOM     16  C   UNL     1      34.280 -17.342 -24.557  0.00  0.00    +0.140 C 
ATOM     17  C   UNL     1      32.760 -18.643 -25.203  0.00  0.00    +0.285 C 
ENDBRANCH   9  15
BRANCH   6  18
ATOM     18  N   UNL     1      34.211 -23.126 -18.564  0.00  0.00    -0.311 N 
ATOM     19  H   UNL     1      34.885 -23.843 -18.583  0.00  0.00    +0.152 HD
BRANCH  18  29
ATOM     20  S   UNL     1      28.832 -23.116 -15.364  0.00  0.00    -0.002 S 
ATOM     21  O   UNL     1      28.418 -21.760 -15.059  0.00  0.00    -0.172 OA
ATOM     22  O   UNL     1      27.928 -24.238 -15.218  0.00  0.00    -0.172 OA
ATOM     23  C   UNL     1      29.490 -23.134 -17.024  0.00  0.00    +0.177 C 
ATOM     24  C   UNL     1      30.317 -23.464 -14.434  0.00  0.00    +0.177 C 
ATOM     25  C   UNL     1      30.962 -23.202 -16.795  0.00  0.00    +0.000 C 
ATOM     26  C   UNL     1      31.385 -23.371 -15.471  0.00  0.00    -0.001 C 
ATOM     27  C   UNL     1      31.897 -23.123 -17.825  0.00  0.00    +0.012 C 
ATOM     28  C   UNL     1      32.743 -23.461 -15.175  0.00  0.00    -0.002 C 
ATOM     29  C   UNL     1      33.257 -23.208 -17.527  0.00  0.00    +0.048 C 
ATOM     30  C   UNL     1      33.679 -23.377 -16.206  0.00  0.00    +0.014 C 
ENDBRANCH  18  29
ENDBRANCH   6  18
TORSDOF 3
ENDMDL
MODEL 8
REMARK VINA RESULT:     -10.1      6.501     10.609
REMARK  Name = 5288710
REMARK  3 active torsions:
REMARK  status: ('A' for Active; 'I' for Inactive)
REMARK    1  A    between atoms: C_6  and  N_18
REMARK    2  A    between atoms: C_9  and  C_15
REMARK    3  A    between atoms: N_18  and  C_29
REMARK                            x       y       z     vdW  Elec       q    Type
REMARK                         _______ _______ _______ _____ _____    ______ ____
ROOT
ATOM      1  O   UNL     1      33.529 -14.964 -25.995  0.00  0.00    -0.270 OA
ATOM      2  N   UNL     1      33.709 -17.289 -25.615  0.00  0.00    -0.280 N 
ATOM      3  C   UNL     1      34.621 -17.287 -23.504  0.00  0.00    +0.019 C 
ATOM      4  C   UNL     1      34.425 -15.907 -23.937  0.00  0.00    +0.069 C 
ATOM      5  C   UNL     1      34.169 -18.084 -24.559  0.00  0.00    +0.051 C 
ATOM      6  C   UNL     1      34.704 -14.779 -23.279  0.00  0.00    +0.066 C 
ATOM      7  C   UNL     1      33.830 -15.928 -25.316  0.00  0.00    +0.251 C 
ATOM      8  C   UNL     1      35.122 -17.859 -22.350  0.00  0.00    +0.005 C 
ATOM      9  C   UNL     1      35.161 -19.255 -22.278  0.00  0.00    +0.036 C 
ATOM     10  C   UNL     1      34.199 -19.464 -24.509  0.00  0.00    +0.015 C 
ATOM     11  C   UNL     1      34.704 -20.050 -23.346  0.00  0.00    +0.004 C 
ATOM     12  H   UNL     1      33.346 -17.642 -26.459  0.00  0.00    +0.155 HD
ENDROOT
BRANCH   9  15
ATOM     13  O   UNL     1      34.953 -20.935 -20.610  0.00  0.00    -0.431 OA
ATOM     14  N   UNL     1      36.754 -20.637 -19.274  0.00  0.00    -0.203 NA
ATOM     15  C   UNL     1      35.679 -19.893 -21.091  0.00  0.00    +0.166 C 
ATOM     16  C   UNL     1      36.766 -19.711 -20.287  0.00  0.00    +0.140 C 
ATOM     17  C   UNL     1      35.664 -21.328 -19.518  0.00  0.00    +0.285 C 
ENDBRANCH   9  15
BRANCH   6  18
ATOM     18  N   UNL     1      34.517 -13.508 -23.694  0.00  0.00    -0.311 N 
ATOM     19  H   UNL     1      35.124 -13.197 -24.404  0.00  0.00    +0.152 HD
BRANCH  18  29
ATOM     20  S   UNL     1      31.372  -8.191 -22.689  0.00  0.00    -0.002 S 
ATOM     21  O   UNL     1      32.009  -7.405 -21.650  0.00  0.00    -0.172 OA
ATOM     22  O   UNL     1      30.360  -7.625 -23.557  0.00  0.00    -0.172 OA
ATOM     23  C   UNL     1      32.653  -8.905 -23.708  0.00  0.00    +0.177 C 
ATOM     24  C   UNL     1      30.707  -9.669 -21.937  0.00  0.00    +0.177 C 
ATOM     25  C   UNL     1      32.678 -10.326 -23.257  0.00  0.00    +0.000 C 
ATOM     26  C   UNL     1      31.684 -10.717 -22.353  0.00  0.00    -0.001 C 
ATOM     27  C   UNL     1      33.619 -11.250 -23.707  0.00  0.00    +0.012 C 
ATOM     28  C   UNL     1      31.629 -12.032 -21.896  0.00  0.00    -0.002 C 
ATOM     29  C   UNL     1      33.566 -12.566 -23.246  0.00  0.00    +0.048 C 
ATOM     30  C   UNL     1      32.573 -12.956 -22.343  0.00  0.00    +0.014 C 
ENDBRANCH  18  29
ENDBRANCH   6  18
TORSDOF 3
ENDMDL
MODEL 9
REMARK VINA RESULT:     -10.1      3.997      6.651
REMARK  Name = 5288710
REMARK  3 active torsions:
REMARK  status: ('A' for Active; 'I' for Inactive)
REMARK    1  A    between atoms: C_6  and  N_18
REMARK    2  A    between atoms: C_9  and  C_15
REMARK    3  A    between atoms: N_18  and  C_29
REMARK                            x       y       z     vdW  Elec       q    Type
REMARK                         _______ _______ _______ _____ _____    ______ ____
ROOT
ATOM      1  O   UNL     1      33.018 -19.763 -22.218  0.00  0.00    -0.270 OA
ATOM      2  N   UNL     1      32.591 -21.239 -20.424  0.00  0.00    -0.280 N 
ATOM      3  C   UNL     1      34.688 -21.355 -19.485  0.00  0.00    +0.019 C 
ATOM      4  C   UNL     1      34.734 -20.467 -20.643  0.00  0.00    +0.069 C 
ATOM      5  C   UNL     1      33.364 -21.795 -19.398  0.00  0.00    +0.051 C 
ATOM      6  C   UNL     1      35.779 -19.799 -21.138  0.00  0.00    +0.066 C 
ATOM      7  C   UNL     1      33.359 -20.405 -21.242  0.00  0.00    +0.251 C 
ATOM      8  C   UNL     1      35.634 -21.776 -18.570  0.00  0.00    +0.005 C 
ATOM      9  C   UNL     1      35.222 -22.654 -17.562  0.00  0.00    +0.036 C 
ATOM     10  C   UNL     1      32.936 -22.661 -18.410  0.00  0.00    +0.015 C 
ATOM     11  C   UNL     1      33.886 -23.092 -17.482  0.00  0.00    +0.004 C 
ATOM     12  H   UNL     1      31.631 -21.414 -20.553  0.00  0.00    +0.155 HD
ENDROOT
BRANCH   9  15
ATOM     13  O   UNL     1      35.890 -24.302 -15.986  0.00  0.00    -0.431 OA
ATOM     14  N   UNL     1      37.852 -23.537 -15.161  0.00  0.00    -0.203 NA
ATOM     15  C   UNL     1      36.180 -23.120 -16.588  0.00  0.00    +0.166 C 
ATOM     16  C   UNL     1      37.364 -22.656 -16.092  0.00  0.00    +0.140 C 
ATOM     17  C   UNL     1      36.943 -24.484 -15.142  0.00  0.00    +0.285 C 
ENDBRANCH   9  15
BRANCH   6  18
ATOM     18  N   UNL     1      35.807 -18.981 -22.212  0.00  0.00    -0.311 N 
ATOM     19  H   UNL     1      36.274 -19.331 -23.004  0.00  0.00    +0.152 HD
BRANCH  18  29
ATOM     20  S   UNL     1      33.525 -13.671 -24.613  0.00  0.00    -0.002 S 
ATOM     21  O   UNL     1      34.600 -12.789 -25.026  0.00  0.00    -0.172 OA
ATOM     22  O   UNL     1      32.155 -13.445 -25.028  0.00  0.00    -0.172 OA
ATOM     23  C   UNL     1      33.979 -15.341 -25.053  0.00  0.00    +0.177 C 
ATOM     24  C   UNL     1      33.561 -13.793 -22.832  0.00  0.00    +0.177 C 
ATOM     25  C   UNL     1      34.376 -15.930 -23.742  0.00  0.00    +0.000 C 
ATOM     26  C   UNL     1      34.163 -15.139 -22.607  0.00  0.00    -0.001 C 
ATOM     27  C   UNL     1      34.920 -17.207 -23.615  0.00  0.00    +0.012 C 
ATOM     28  C   UNL     1      34.492 -15.623 -21.343  0.00  0.00    -0.002 C 
ATOM     29  C   UNL     1      35.253 -17.690 -22.349  0.00  0.00    +0.048 C 
ATOM     30  C   UNL     1      35.040 -16.900 -21.216  0.00  0.00    +0.014 C 
ENDBRANCH  18  29
ENDBRANCH   6  18
TORSDOF 3
ENDMDL
