MODEL 1
REMARK VINA RESULT:     -12.0      0.000      0.000
REMARK  Name = 24941248
REMARK  7 active torsions:
REMARK  status: ('A' for Active; 'I' for Inactive)
REMARK    1  A    between atoms: N_2  and  C_24
REMARK    2  A    between atoms: C_6  and  C_14
REMARK    3  A    between atoms: C_13  and  C_19
REMARK    4  A    between atoms: C_19  and  C_20
REMARK    5  A    between atoms: C_20  and  C_21
REMARK    6  A    between atoms: C_21  and  O_22
REMARK    7  A    between atoms: C_24  and  C_26
REMARK                            x       y       z     vdW  Elec       q    Type
REMARK                         _______ _______ _______ _____ _____    ______ ____
ROOT
ATOM      1  O   UNL     1      33.582 -15.710 -26.216  0.00  0.00    -0.352 OA
ATOM      2  N   UNL     1      35.501 -17.788 -21.582  0.00  0.00    -0.316 N 
ATOM      3  N   UNL     1      33.173 -14.436 -25.843  0.00  0.00    -0.077 NA
ATOM      4  N   UNL     1      35.070 -18.099 -23.903  0.00  0.00    -0.226 NA
ATOM      5  C   UNL     1      34.031 -15.522 -24.028  0.00  0.00    +0.062 A 
ATOM      6  C   UNL     1      33.448 -14.344 -24.538  0.00  0.00    +0.123 A 
ATOM      7  C   UNL     1      35.011 -17.287 -22.816  0.00  0.00    +0.129 C 
ATOM      8  C   UNL     1      34.506 -15.990 -22.802  0.00  0.00    +0.039 C 
ATOM      9  C   UNL     1      34.092 -16.354 -25.133  0.00  0.00    +0.196 A 
ATOM     10  C   UNL     1      34.606 -17.636 -25.089  0.00  0.00    +0.140 C 
ATOM     11  H   UNL     1      35.465 -17.208 -20.787  0.00  0.00    +0.148 HD
ENDROOT
BRANCH   6  14
ATOM     12 CL   UNL     1      33.855  -9.217 -24.187  0.00  0.00    -0.082 Cl
ATOM     13  C   UNL     1      32.117 -12.027 -21.933  0.00  0.00    -0.021 C 
ATOM     14  C   UNL     1      33.147 -13.137 -23.815  0.00  0.00    +0.021 C 
ATOM     15  C   UNL     1      32.409 -13.197 -22.633  0.00  0.00    -0.003 C 
ATOM     16  C   UNL     1      32.564 -10.796 -22.414  0.00  0.00    +0.007 C 
ATOM     17  C   UNL     1      33.595 -11.906 -24.295  0.00  0.00    +0.013 C 
ATOM     18  C   UNL     1      33.303 -10.735 -23.595  0.00  0.00    +0.057 C 
BRANCH  13  19
ATOM     19  C   UNL     1      31.326 -12.091 -20.670  0.00  0.00    +0.029 C 
BRANCH  19  20
ATOM     20  C   UNL     1      30.793 -10.715 -20.247  0.00  0.00    +0.036 C 
BRANCH  20  21
ATOM     21  C   UNL     1      31.373 -10.260 -18.916  0.00  0.00    +0.138 C 
BRANCH  21  22
ATOM     22  O   UNL     1      32.562  -9.521 -19.162  0.00  0.00    -0.382 OA
ATOM     23  H   UNL     1      32.763  -8.967 -18.392  0.00  0.00    +0.210 HD
ENDBRANCH  21  22
ENDBRANCH  20  21
ENDBRANCH  19  20
ENDBRANCH  13  19
ENDBRANCH   6  14
BRANCH   2  24
ATOM     24  C   UNL     1      36.045 -19.099 -21.446  0.00  0.00    +0.093 C 
ATOM     25  C   UNL     1      37.343 -19.031 -20.646  0.00  0.00    +0.026 C 
BRANCH  24  26
ATOM     26  C   UNL     1      35.020 -20.029 -20.833  0.00  0.00    -0.005 C 
ATOM     27  C   UNL     1      35.435 -21.096 -20.037  0.00  0.00    -0.003 C 
ATOM     28  C   UNL     1      33.660 -19.818 -21.063  0.00  0.00    -0.003 C 
ATOM     29  C   UNL     1      34.490 -21.954 -19.472  0.00  0.00    -0.000 C 
ATOM     30  C   UNL     1      32.717 -20.675 -20.498  0.00  0.00    -0.000 C 
ATOM     31  C   UNL     1      33.131 -21.743 -19.702  0.00  0.00    -0.000 C 
ENDBRANCH  24  26
ENDBRANCH   2  24
TORSDOF 7
ENDMDL
MODEL 2
REMARK VINA RESULT:     -11.5      1.927      3.004
REMARK  Name = 24941248
REMARK  7 active torsions:
REMARK  status: ('A' for Active; 'I' for Inactive)
REMARK    1  A    between atoms: N_2  and  C_24
REMARK    2  A    between atoms: C_6  and  C_14
REMARK    3  A    between atoms: C_13  and  C_19
REMARK    4  A    between atoms: C_19  and  C_20
REMARK    5  A    between atoms: C_20  and  C_21
REMARK    6  A    between atoms: C_21  and  O_22
REMARK    7  A    between atoms: C_24  and  C_26
REMARK                            x       y       z     vdW  Elec       q    Type
REMARK                         _______ _______ _______ _____ _____    ______ ____
ROOT
ATOM      1  O   UNL     1      33.564 -15.630 -26.201  0.00  0.00    -0.352 OA
ATOM      2  N   UNL     1      35.470 -17.771 -21.590  0.00  0.00    -0.316 N 
ATOM      3  N   UNL     1      33.132 -14.369 -25.807  0.00  0.00    -0.077 NA
ATOM      4  N   UNL     1      35.064 -18.042 -23.921  0.00  0.00    -0.226 NA
ATOM      5  C   UNL     1      33.989 -15.478 -24.006  0.00  0.00    +0.062 A 
ATOM      6  C   UNL     1      33.394 -14.299 -24.498  0.00  0.00    +0.123 A 
ATOM      7  C   UNL     1      34.984 -17.252 -22.819  0.00  0.00    +0.129 C 
ATOM      8  C   UNL     1      34.460 -15.963 -22.785  0.00  0.00    +0.039 C 
ATOM      9  C   UNL     1      34.073 -16.287 -25.126  0.00  0.00    +0.196 A 
ATOM     10  C   UNL     1      34.605 -17.563 -25.102  0.00  0.00    +0.140 C 
ATOM     11  H   UNL     1      35.417 -17.206 -20.784  0.00  0.00    +0.148 HD
ENDROOT
BRANCH   6  14
ATOM     12 CL   UNL     1      31.277 -12.185 -20.299  0.00  0.00    -0.082 Cl
ATOM     13  C   UNL     1      33.103 -10.705 -23.536  0.00  0.00    -0.021 C 
ATOM     14  C   UNL     1      33.069 -13.110 -23.754  0.00  0.00    +0.021 C 
ATOM     15  C   UNL     1      33.417 -11.857 -24.257  0.00  0.00    -0.003 C 
ATOM     16  C   UNL     1      32.441 -10.807 -22.312  0.00  0.00    +0.007 C 
ATOM     17  C   UNL     1      32.407 -13.212 -22.530  0.00  0.00    +0.013 C 
ATOM     18  C   UNL     1      32.094 -12.060 -21.809  0.00  0.00    +0.057 C 
BRANCH  13  19
ATOM     19  C   UNL     1      33.476  -9.364 -24.073  0.00  0.00    +0.029 C 
BRANCH  19  20
ATOM     20  C   UNL     1      33.841  -9.416 -25.562  0.00  0.00    +0.036 C 
BRANCH  20  21
ATOM     21  C   UNL     1      35.275  -8.973 -25.816  0.00  0.00    +0.138 C 
BRANCH  21  22
ATOM     22  O   UNL     1      36.120 -10.116 -25.793  0.00  0.00    -0.382 OA
ATOM     23  H   UNL     1      36.594 -10.184 -26.636  0.00  0.00    +0.210 HD
ENDBRANCH  21  22
ENDBRANCH  20  21
ENDBRANCH  19  20
ENDBRANCH  13  19
ENDBRANCH   6  14
BRANCH   2  24
ATOM     24  C   UNL     1      36.031 -19.076 -21.475  0.00  0.00    +0.093 C 
ATOM     25  C   UNL     1      37.346 -18.998 -20.704  0.00  0.00    +0.026 C 
BRANCH  24  26
ATOM     26  C   UNL     1      35.031 -20.021 -20.844  0.00  0.00    -0.005 C 
ATOM     27  C   UNL     1      33.665 -19.823 -21.037  0.00  0.00    -0.003 C 
ATOM     28  C   UNL     1      35.477 -21.092 -20.069  0.00  0.00    -0.003 C 
ATOM     29  C   UNL     1      32.743 -20.693 -20.455  0.00  0.00    -0.000 C 
ATOM     30  C   UNL     1      34.556 -21.963 -19.487  0.00  0.00    -0.000 C 
ATOM     31  C   UNL     1      33.189 -21.764 -19.681  0.00  0.00    -0.000 C 
ENDBRANCH  24  26
ENDBRANCH   2  24
TORSDOF 7
ENDMDL
MODEL 3
REMARK VINA RESULT:     -10.5      7.639     12.733
REMARK  Name = 24941248
REMARK  7 active torsions:
REMARK  status: ('A' for Active; 'I' for Inactive)
REMARK    1  A    between atoms: N_2  and  C_24
REMARK    2  A    between atoms: C_6  and  C_14
REMARK    3  A    between atoms: C_13  and  C_19
REMARK    4  A    between atoms: C_19  and  C_20
REMARK    5  A    between atoms: C_20  and  C_21
REMARK    6  A    between atoms: C_21  and  O_22
REMARK    7  A    between atoms: C_24  and  C_26
REMARK                            x       y       z     vdW  Elec       q    Type
REMARK                         _______ _______ _______ _____ _____    ______ ____
ROOT
ATOM      1  O   UNL     1      31.178 -24.173 -15.139  0.00  0.00    -0.352 OA
ATOM      2  N   UNL     1      34.326 -22.080 -19.036  0.00  0.00    -0.316 N 
ATOM      3  N   UNL     1      32.097 -24.613 -14.195  0.00  0.00    -0.077 NA
ATOM      4  N   UNL     1      32.124 -22.557 -18.263  0.00  0.00    -0.226 NA
ATOM      5  C   UNL     1      33.204 -23.679 -15.958  0.00  0.00    +0.062 A 
ATOM      6  C   UNL     1      33.297 -24.310 -14.702  0.00  0.00    +0.123 A 
ATOM      7  C   UNL     1      33.463 -22.615 -18.044  0.00  0.00    +0.129 C 
ATOM      8  C   UNL     1      34.075 -23.159 -16.918  0.00  0.00    +0.039 C 
ATOM      9  C   UNL     1      31.841 -23.617 -16.187  0.00  0.00    +0.196 A 
ATOM     10  C   UNL     1      31.287 -23.063 -17.326  0.00  0.00    +0.140 C 
ATOM     11  H   UNL     1      35.299 -22.116 -18.887  0.00  0.00    +0.148 HD
ENDROOT
BRANCH   6  14
ATOM     12 CL   UNL     1      35.863 -24.274 -10.230  0.00  0.00    -0.082 Cl
ATOM     13  C   UNL     1      36.729 -25.551 -13.921  0.00  0.00    -0.021 C 
ATOM     14  C   UNL     1      34.496 -24.630 -13.973  0.00  0.00    +0.021 C 
ATOM     15  C   UNL     1      35.567 -25.240 -14.627  0.00  0.00    -0.003 C 
ATOM     16  C   UNL     1      36.820 -25.252 -12.561  0.00  0.00    +0.007 C 
ATOM     17  C   UNL     1      34.588 -24.331 -12.614  0.00  0.00    +0.013 C 
ATOM     18  C   UNL     1      35.749 -24.643 -11.908  0.00  0.00    +0.057 C 
BRANCH  13  19
ATOM     19  C   UNL     1      37.873 -26.205 -14.619  0.00  0.00    +0.029 C 
BRANCH  19  20
ATOM     20  C   UNL     1      39.226 -25.810 -14.012  0.00  0.00    +0.036 C 
BRANCH  20  21
ATOM     21  C   UNL     1      40.180 -25.246 -15.055  0.00  0.00    +0.138 C 
BRANCH  21  22
ATOM     22  O   UNL     1      40.176 -26.100 -16.191  0.00  0.00    -0.382 OA
ATOM     23  H   UNL     1      39.266 -26.371 -16.388  0.00  0.00    +0.210 HD
ENDBRANCH  21  22
ENDBRANCH  20  21
ENDBRANCH  19  20
ENDBRANCH  13  19
ENDBRANCH   6  14
BRANCH   2  24
ATOM     24  C   UNL     1      33.841 -21.493 -20.241  0.00  0.00    +0.093 C 
ATOM     25  C   UNL     1      32.475 -20.861 -19.985  0.00  0.00    +0.026 C 
BRANCH  24  26
ATOM     26  C   UNL     1      34.853 -20.512 -20.790  0.00  0.00    -0.005 C 
ATOM     27  C   UNL     1      36.163 -20.523 -20.314  0.00  0.00    -0.003 C 
ATOM     28  C   UNL     1      34.475 -19.596 -21.773  0.00  0.00    -0.003 C 
ATOM     29  C   UNL     1      37.097 -19.617 -20.820  0.00  0.00    -0.000 C 
ATOM     30  C   UNL     1      35.408 -18.691 -22.278  0.00  0.00    -0.000 C 
ATOM     31  C   UNL     1      36.719 -18.702 -21.803  0.00  0.00    -0.000 C 
ENDBRANCH  24  26
ENDBRANCH   2  24
TORSDOF 7
ENDMDL
