MODEL 1
REMARK VINA RESULT:     -12.2      0.000      0.000
REMARK  Name = 66599893
REMARK  9 active torsions:
REMARK  status: ('A' for Active; 'I' for Inactive)
REMARK    1  A    between atoms: C_1  and  C_2
REMARK    2  A    between atoms: C_1  and  C_22
REMARK    3  A    between atoms: C_1  and  C_34
REMARK    4  A    between atoms: C_5  and  C_8
REMARK    5  A    between atoms: C_8  and  O_9
REMARK    6  A    between atoms: O_9  and  C_11
REMARK    7  A    between atoms: C_11  and  C_12
REMARK    8  A    between atoms: N_21  and  C_25
REMARK    9  A    between atoms: C_34  and  N_35
REMARK                            x       y       z     vdW  Elec       q    Type
REMARK                         _______ _______ _______ _____ _____    ______ ____
ROOT
ATOM      1  C   UNL     1      35.144 -17.388 -23.448  0.00  0.00    +0.077 C 
ENDROOT
BRANCH   1   2
ATOM      2  C   UNL     1      35.198 -18.508 -22.421  0.00  0.00    -0.016 C 
ATOM      3  C   UNL     1      36.418 -18.880 -21.856  0.00  0.00    -0.004 C 
ATOM      4  C   UNL     1      34.026 -19.164 -22.042  0.00  0.00    -0.004 C 
ATOM      5  C   UNL     1      35.296 -20.564 -20.537  0.00  0.00    +0.021 C 
ATOM      6  C   UNL     1      36.467 -19.909 -20.916  0.00  0.00    -0.001 C 
ATOM      7  C   UNL     1      34.075 -20.193 -21.101  0.00  0.00    -0.001 C 
BRANCH   5   8
ATOM      8  C   UNL     1      35.348 -21.663 -19.529  0.00  0.00    +0.235 C 
BRANCH   8   9
ATOM      9  O   UNL     1      34.078 -21.789 -18.902  0.00  0.00    -0.440 OA
BRANCH   9  11
ATOM     10  O   UNL     1      33.751 -23.991 -19.487  0.00  0.00    -0.245 OA
ATOM     11  C   UNL     1      33.634 -23.060 -18.705  0.00  0.00    +0.341 C 
BRANCH  11  12
ATOM     12  C   UNL     1      32.966 -23.185 -17.384  0.00  0.00    +0.072 C 
ATOM     13  C   UNL     1      33.706 -23.387 -16.220  0.00  0.00    -0.016 C 
ATOM     14  C   UNL     1      31.664 -23.415 -14.928  0.00  0.00    -0.022 C 
ATOM     15  C   UNL     1      33.055 -23.502 -14.991  0.00  0.00    -0.008 C 
ATOM     16  C   UNL     1      31.576 -23.098 -17.322  0.00  0.00    +0.006 C 
ATOM     17  C   UNL     1      30.924 -23.213 -16.093  0.00  0.00    -0.004 C 
ATOM     18  C   UNL     1      35.196 -23.483 -16.258  0.00  0.00    +0.031 C 
ATOM     19  C   UNL     1      30.967 -23.539 -13.616  0.00  0.00    +0.031 C 
ENDBRANCH  11  12
ENDBRANCH   9  11
ENDBRANCH   8   9
ENDBRANCH   5   8
ENDBRANCH   1   2
BRANCH   1  22
ATOM     20  O   UNL     1      34.850 -15.889 -21.574  0.00  0.00    -0.275 OA
ATOM     21  N   UNL     1      34.139 -15.180 -23.700  0.00  0.00    -0.284 N 
ATOM     22  C   UNL     1      34.708 -16.076 -22.780  0.00  0.00    +0.228 C 
ATOM     23  H   UNL     1      34.091 -15.494 -24.632  0.00  0.00    +0.155 HD
BRANCH  21  25
ATOM     24  N   UNL     1      31.202  -9.826 -21.701  0.00  0.00    -0.242 NA
ATOM     25  C   UNL     1      33.633 -13.901 -23.461  0.00  0.00    +0.050 C 
ATOM     26  C   UNL     1      32.730 -13.694 -22.417  0.00  0.00    +0.015 C 
ATOM     27  C   UNL     1      32.211 -12.414 -22.165  0.00  0.00    +0.004 C 
ATOM     28  C   UNL     1      34.030 -12.835 -24.264  0.00  0.00    +0.015 C 
ATOM     29  C   UNL     1      32.616 -11.336 -22.980  0.00  0.00    +0.019 C 
ATOM     30  C   UNL     1      33.526 -11.556 -24.028  0.00  0.00    +0.003 C 
ATOM     31  C   UNL     1      31.303 -12.173 -21.126  0.00  0.00    +0.021 C 
ATOM     32  C   UNL     1      32.080 -10.078 -22.699  0.00  0.00    +0.099 C 
ATOM     33  C   UNL     1      30.838 -10.880 -20.941  0.00  0.00    +0.099 C 
ENDBRANCH  21  25
ENDBRANCH   1  22
BRANCH   1  34
ATOM     34  C   UNL     1      34.223 -17.713 -24.641  0.00  0.00    -0.072 C 
BRANCH  34  35
ATOM     35  N   UNL     1      34.273 -19.128 -24.998  0.00  0.00    +0.381 N 
ATOM     36  H   UNL     1      33.873 -19.684 -24.242  0.00  0.00    -0.089 HD
ATOM     37  H   UNL     1      35.243 -19.407 -25.148  0.00  0.00    -0.089 HD
ATOM     38  H   UNL     1      33.740 -19.282 -25.854  0.00  0.00    -0.089 HD
ENDBRANCH  34  35
ENDBRANCH   1  34
TORSDOF 9
ENDMDL
MODEL 2
REMARK VINA RESULT:     -12.1      3.061      5.599
REMARK  Name = 66599893
REMARK  9 active torsions:
REMARK  status: ('A' for Active; 'I' for Inactive)
REMARK    1  A    between atoms: C_1  and  C_2
REMARK    2  A    between atoms: C_1  and  C_22
REMARK    3  A    between atoms: C_1  and  C_34
REMARK    4  A    between atoms: C_5  and  C_8
REMARK    5  A    between atoms: C_8  and  O_9
REMARK    6  A    between atoms: O_9  and  C_11
REMARK    7  A    between atoms: C_11  and  C_12
REMARK    8  A    between atoms: N_21  and  C_25
REMARK    9  A    between atoms: C_34  and  N_35
REMARK                            x       y       z     vdW  Elec       q    Type
REMARK                         _______ _______ _______ _____ _____    ______ ____
ROOT
ATOM      1  C   UNL     1      32.416 -12.526 -22.997  0.00  0.00    +0.077 C 
ENDROOT
BRANCH   1   2
ATOM      2  C   UNL     1      33.263 -13.768 -22.770  0.00  0.00    -0.016 C 
ATOM      3  C   UNL     1      33.624 -14.575 -23.850  0.00  0.00    -0.004 C 
ATOM      4  C   UNL     1      33.680 -14.102 -21.481  0.00  0.00    -0.004 C 
ATOM      5  C   UNL     1      34.817 -16.047 -22.352  0.00  0.00    +0.021 C 
ATOM      6  C   UNL     1      34.400 -15.714 -23.641  0.00  0.00    -0.001 C 
ATOM      7  C   UNL     1      34.456 -15.242 -21.272  0.00  0.00    -0.001 C 
BRANCH   5   8
ATOM      8  C   UNL     1      35.648 -17.266 -22.128  0.00  0.00    +0.235 C 
BRANCH   8   9
ATOM      9  O   UNL     1      34.937 -18.178 -21.300  0.00  0.00    -0.440 OA
BRANCH   9  11
ATOM     10  O   UNL     1      34.542 -19.581 -23.081  0.00  0.00    -0.245 OA
ATOM     11  C   UNL     1      34.575 -19.354 -21.881  0.00  0.00    +0.341 C 
BRANCH  11  12
ATOM     12  C   UNL     1      34.213 -20.360 -20.850  0.00  0.00    +0.072 C 
ATOM     13  C   UNL     1      35.195 -21.066 -20.157  0.00  0.00    -0.016 C 
ATOM     14  C   UNL     1      33.480 -22.240 -18.924  0.00  0.00    -0.022 C 
ATOM     15  C   UNL     1      34.829 -22.006 -19.194  0.00  0.00    -0.008 C 
ATOM     16  C   UNL     1      32.865 -20.593 -20.581  0.00  0.00    +0.006 C 
ATOM     17  C   UNL     1      32.498 -21.533 -19.619  0.00  0.00    -0.004 C 
ATOM     18  C   UNL     1      36.647 -20.836 -20.425  0.00  0.00    +0.031 C 
ATOM     19  C   UNL     1      33.087 -23.245 -17.896  0.00  0.00    +0.031 C 
ENDBRANCH  11  12
ENDBRANCH   9  11
ENDBRANCH   8   9
ENDBRANCH   5   8
ENDBRANCH   1   2
BRANCH   1  22
ATOM     20  O   UNL     1      34.188 -11.759 -24.452  0.00  0.00    -0.275 OA
ATOM     21  N   UNL     1      32.746 -10.162 -23.500  0.00  0.00    -0.284 N 
ATOM     22  C   UNL     1      33.228 -11.459 -23.746  0.00  0.00    +0.228 C 
ATOM     23  H   UNL     1      31.971 -10.099 -22.898  0.00  0.00    +0.155 HD
BRANCH  21  25
ATOM     24  N   UNL     1      33.811  -4.398 -26.131  0.00  0.00    -0.242 NA
ATOM     25  C   UNL     1      33.228  -8.952 -24.004  0.00  0.00    +0.050 C 
ATOM     26  C   UNL     1      32.350  -8.051 -24.607  0.00  0.00    +0.015 C 
ATOM     27  C   UNL     1      32.819  -6.831 -25.121  0.00  0.00    +0.004 C 
ATOM     28  C   UNL     1      34.582  -8.648 -23.904  0.00  0.00    +0.015 C 
ATOM     29  C   UNL     1      34.192  -6.526 -25.017  0.00  0.00    +0.019 C 
ATOM     30  C   UNL     1      35.067  -7.441 -24.407  0.00  0.00    +0.003 C 
ATOM     31  C   UNL     1      31.963  -5.906 -25.732  0.00  0.00    +0.021 C 
ATOM     32  C   UNL     1      34.621  -5.303 -25.537  0.00  0.00    +0.099 C 
ATOM     33  C   UNL     1      32.504  -4.723 -26.212  0.00  0.00    +0.099 C 
ENDBRANCH  21  25
ENDBRANCH   1  22
BRANCH   1  34
ATOM     34  C   UNL     1      31.843 -11.944 -21.690  0.00  0.00    -0.072 C 
BRANCH  34  35
ATOM     35  N   UNL     1      30.396 -11.758 -21.764  0.00  0.00    +0.381 N 
ATOM     36  H   UNL     1      30.049 -11.430 -20.863  0.00  0.00    -0.089 HD
ATOM     37  H   UNL     1      29.951 -12.645 -21.997  0.00  0.00    -0.089 HD
ATOM     38  H   UNL     1      30.179 -11.070 -22.485  0.00  0.00    -0.089 HD
ENDBRANCH  34  35
ENDBRANCH   1  34
TORSDOF 9
ENDMDL
MODEL 3
REMARK VINA RESULT:     -11.8      2.824     10.585
REMARK  Name = 66599893
REMARK  9 active torsions:
REMARK  status: ('A' for Active; 'I' for Inactive)
REMARK    1  A    between atoms: C_1  and  C_2
REMARK    2  A    between atoms: C_1  and  C_22
REMARK    3  A    between atoms: C_1  and  C_34
REMARK    4  A    between atoms: C_5  and  C_8
REMARK    5  A    between atoms: C_8  and  O_9
REMARK    6  A    between atoms: O_9  and  C_11
REMARK    7  A    between atoms: C_11  and  C_12
REMARK    8  A    between atoms: N_21  and  C_25
REMARK    9  A    between atoms: C_34  and  N_35
REMARK                            x       y       z     vdW  Elec       q    Type
REMARK                         _______ _______ _______ _____ _____    ______ ____
ROOT
ATOM      1  C   UNL     1      35.882 -19.354 -22.213  0.00  0.00    +0.077 C 
ENDROOT
BRANCH   1   2
ATOM      2  C   UNL     1      35.243 -18.179 -22.936  0.00  0.00    -0.016 C 
ATOM      3  C   UNL     1      35.255 -16.911 -22.354  0.00  0.00    -0.004 C 
ATOM      4  C   UNL     1      34.645 -18.369 -24.182  0.00  0.00    -0.004 C 
ATOM      5  C   UNL     1      34.070 -16.024 -24.263  0.00  0.00    +0.021 C 
ATOM      6  C   UNL     1      34.668 -15.834 -23.018  0.00  0.00    -0.001 C 
ATOM      7  C   UNL     1      34.058 -17.291 -24.845  0.00  0.00    -0.001 C 
BRANCH   5   8
ATOM      8  C   UNL     1      33.443 -14.871 -24.973  0.00  0.00    +0.235 C 
BRANCH   8   9
ATOM      9  O   UNL     1      32.761 -14.051 -24.033  0.00  0.00    -0.440 OA
BRANCH   9  11
ATOM     10  O   UNL     1      34.158 -12.286 -24.510  0.00  0.00    -0.245 OA
ATOM     11  C   UNL     1      33.270 -12.803 -23.850  0.00  0.00    +0.341 C 
BRANCH  11  12
ATOM     12  C   UNL     1      32.596 -12.122 -22.715  0.00  0.00    +0.072 C 
ATOM     13  C   UNL     1      32.364 -10.747 -22.735  0.00  0.00    -0.016 C 
ATOM     14  C   UNL     1      31.328 -10.890 -20.557  0.00  0.00    -0.022 C 
ATOM     15  C   UNL     1      31.730 -10.131 -21.656  0.00  0.00    -0.008 C 
ATOM     16  C   UNL     1      32.195 -12.881 -21.616  0.00  0.00    +0.006 C 
ATOM     17  C   UNL     1      31.561 -12.266 -20.537  0.00  0.00    -0.004 C 
ATOM     18  C   UNL     1      32.783  -9.910 -23.899  0.00  0.00    +0.031 C 
ATOM     19  C   UNL     1      30.651 -10.233 -19.402  0.00  0.00    +0.031 C 
ENDBRANCH  11  12
ENDBRANCH   9  11
ENDBRANCH   8   9
ENDBRANCH   5   8
ENDBRANCH   1   2
BRANCH   1  22
ATOM     20  O   UNL     1      33.683 -19.702 -21.271  0.00  0.00    -0.275 OA
ATOM     21  N   UNL     1      35.497 -20.886 -20.354  0.00  0.00    -0.284 N 
ATOM     22  C   UNL     1      34.877 -19.990 -21.241  0.00  0.00    +0.228 C 
ATOM     23  H   UNL     1      36.470 -20.993 -20.461  0.00  0.00    +0.155 HD
BRANCH  21  25
ATOM     24  N   UNL     1      33.865 -24.287 -15.152  0.00  0.00    -0.242 NA
ATOM     25  C   UNL     1      34.908 -21.644 -19.340  0.00  0.00    +0.050 C 
ATOM     26  C   UNL     1      35.650 -21.992 -18.210  0.00  0.00    +0.015 C 
ATOM     27  C   UNL     1      35.072 -22.756 -17.183  0.00  0.00    +0.004 C 
ATOM     28  C   UNL     1      33.582 -22.051 -19.458  0.00  0.00    +0.015 C 
ATOM     29  C   UNL     1      33.728 -23.166 -17.306  0.00  0.00    +0.019 C 
ATOM     30  C   UNL     1      32.991 -22.809 -18.448  0.00  0.00    +0.003 C 
ATOM     31  C   UNL     1      35.790 -23.122 -16.038  0.00  0.00    +0.021 C 
ATOM     32  C   UNL     1      33.188 -23.923 -16.265  0.00  0.00    +0.099 C 
ATOM     33  C   UNL     1      35.148 -23.876 -15.068  0.00  0.00    +0.099 C 
ENDBRANCH  21  25
ENDBRANCH   1  22
BRANCH   1  34
ATOM     34  C   UNL     1      37.176 -18.968 -21.468  0.00  0.00    -0.072 C 
BRANCH  34  35
ATOM     35  N   UNL     1      38.248 -18.603 -22.390  0.00  0.00    +0.381 N 
ATOM     36  H   UNL     1      38.757 -17.801 -22.020  0.00  0.00    -0.089 HD
ATOM     37  H   UNL     1      37.847 -18.361 -23.297  0.00  0.00    -0.089 HD
ATOM     38  H   UNL     1      38.885 -19.391 -22.500  0.00  0.00    -0.089 HD
ENDBRANCH  34  35
ENDBRANCH   1  34
TORSDOF 9
ENDMDL
MODEL 4
REMARK VINA RESULT:     -11.8      3.112     11.609
REMARK  Name = 66599893
REMARK  9 active torsions:
REMARK  status: ('A' for Active; 'I' for Inactive)
REMARK    1  A    between atoms: C_1  and  C_2
REMARK    2  A    between atoms: C_1  and  C_22
REMARK    3  A    between atoms: C_1  and  C_34
REMARK    4  A    between atoms: C_5  and  C_8
REMARK    5  A    between atoms: C_8  and  O_9
REMARK    6  A    between atoms: O_9  and  C_11
REMARK    7  A    between atoms: C_11  and  C_12
REMARK    8  A    between atoms: N_21  and  C_25
REMARK    9  A    between atoms: C_34  and  N_35
REMARK                            x       y       z     vdW  Elec       q    Type
REMARK                         _______ _______ _______ _____ _____    ______ ____
ROOT
ATOM      1  C   UNL     1      35.873 -18.861 -22.357  0.00  0.00    +0.077 C 
ENDROOT
BRANCH   1   2
ATOM      2  C   UNL     1      35.193 -17.568 -22.778  0.00  0.00    -0.016 C 
ATOM      3  C   UNL     1      34.991 -16.550 -21.845  0.00  0.00    -0.004 C 
ATOM      4  C   UNL     1      34.772 -17.399 -24.097  0.00  0.00    -0.004 C 
ATOM      5  C   UNL     1      33.945 -15.196 -23.550  0.00  0.00    +0.021 C 
ATOM      6  C   UNL     1      34.366 -15.365 -22.232  0.00  0.00    -0.001 C 
ATOM      7  C   UNL     1      34.147 -16.213 -24.483  0.00  0.00    -0.001 C 
BRANCH   5   8
ATOM      8  C   UNL     1      33.278 -13.927 -23.964  0.00  0.00    +0.235 C 
BRANCH   8   9
ATOM      9  O   UNL     1      34.266 -12.955 -24.282  0.00  0.00    -0.440 OA
BRANCH   9  11
ATOM     10  O   UNL     1      33.665 -12.308 -26.408  0.00  0.00    -0.245 OA
ATOM     11  C   UNL     1      33.928 -12.052 -25.242  0.00  0.00    +0.341 C 
BRANCH  11  12
ATOM     12  C   UNL     1      33.916 -10.675 -24.687  0.00  0.00    +0.072 C 
ATOM     13  C   UNL     1      34.869  -9.734 -25.075  0.00  0.00    -0.016 C 
ATOM     14  C   UNL     1      33.852  -8.101 -23.614  0.00  0.00    -0.022 C 
ATOM     15  C   UNL     1      34.837  -8.447 -24.539  0.00  0.00    -0.008 C 
ATOM     16  C   UNL     1      32.931 -10.330 -23.762  0.00  0.00    +0.006 C 
ATOM     17  C   UNL     1      32.899  -9.043 -23.225  0.00  0.00    -0.004 C 
ATOM     18  C   UNL     1      35.934 -10.077 -26.065  0.00  0.00    +0.031 C 
ATOM     19  C   UNL     1      33.817  -6.726 -23.038  0.00  0.00    +0.031 C 
ENDBRANCH  11  12
ENDBRANCH   9  11
ENDBRANCH   8   9
ENDBRANCH   5   8
ENDBRANCH   1   2
BRANCH   1  22
ATOM     20  O   UNL     1      33.711 -19.683 -21.655  0.00  0.00    -0.275 OA
ATOM     21  N   UNL     1      35.622 -20.431 -20.507  0.00  0.00    -0.284 N 
ATOM     22  C   UNL     1      34.927 -19.699 -21.484  0.00  0.00    +0.228 C 
ATOM     23  H   UNL     1      36.600 -20.321 -20.502  0.00  0.00    +0.155 HD
BRANCH  21  25
ATOM     24  N   UNL     1      34.310 -24.304 -15.550  0.00  0.00    -0.242 NA
ATOM     25  C   UNL     1      35.101 -21.297 -19.543  0.00  0.00    +0.050 C 
ATOM     26  C   UNL     1      35.889 -21.686 -18.459  0.00  0.00    +0.015 C 
ATOM     27  C   UNL     1      35.380 -22.557 -17.482  0.00  0.00    +0.004 C 
ATOM     28  C   UNL     1      33.797 -21.768 -19.664  0.00  0.00    +0.015 C 
ATOM     29  C   UNL     1      34.058 -23.033 -17.608  0.00  0.00    +0.019 C 
ATOM     30  C   UNL     1      33.274 -22.633 -18.704  0.00  0.00    +0.003 C 
ATOM     31  C   UNL     1      36.145 -22.967 -16.383  0.00  0.00    +0.021 C 
ATOM     32  C   UNL     1      33.586 -23.896 -16.618  0.00  0.00    +0.099 C 
ATOM     33  C   UNL     1      35.570 -23.828 -15.461  0.00  0.00    +0.099 C 
ENDBRANCH  21  25
ENDBRANCH   1  22
BRANCH   1  34
ATOM     34  C   UNL     1      37.209 -18.625 -21.624  0.00  0.00    -0.072 C 
BRANCH  34  35
ATOM     35  N   UNL     1      38.348 -18.680 -22.536  0.00  0.00    +0.381 N 
ATOM     36  H   UNL     1      38.855 -19.554 -22.395  0.00  0.00    -0.089 HD
ATOM     37  H   UNL     1      38.970 -17.893 -22.351  0.00  0.00    -0.089 HD
ATOM     38  H   UNL     1      38.015 -18.630 -23.499  0.00  0.00    -0.089 HD
ENDBRANCH  34  35
ENDBRANCH   1  34
TORSDOF 9
ENDMDL
MODEL 5
REMARK VINA RESULT:     -11.6      1.908      3.158
REMARK  Name = 66599893
REMARK  9 active torsions:
REMARK  status: ('A' for Active; 'I' for Inactive)
REMARK    1  A    between atoms: C_1  and  C_2
REMARK    2  A    between atoms: C_1  and  C_22
REMARK    3  A    between atoms: C_1  and  C_34
REMARK    4  A    between atoms: C_5  and  C_8
REMARK    5  A    between atoms: C_8  and  O_9
REMARK    6  A    between atoms: O_9  and  C_11
REMARK    7  A    between atoms: C_11  and  C_12
REMARK    8  A    between atoms: N_21  and  C_25
REMARK    9  A    between atoms: C_34  and  N_35
REMARK                            x       y       z     vdW  Elec       q    Type
REMARK                         _______ _______ _______ _____ _____    ______ ____
ROOT
ATOM      1  C   UNL     1      36.046 -18.565 -21.724  0.00  0.00    +0.077 C 
ENDROOT
BRANCH   1   2
ATOM      2  C   UNL     1      35.317 -19.678 -20.987  0.00  0.00    -0.016 C 
ATOM      3  C   UNL     1      33.923 -19.740 -21.019  0.00  0.00    -0.004 C 
ATOM      4  C   UNL     1      36.042 -20.638 -20.280  0.00  0.00    -0.004 C 
ATOM      5  C   UNL     1      33.979 -21.719 -19.635  0.00  0.00    +0.021 C 
ATOM      6  C   UNL     1      33.255 -20.760 -20.342  0.00  0.00    -0.001 C 
ATOM      7  C   UNL     1      35.372 -21.657 -19.603  0.00  0.00    -0.001 C 
BRANCH   5   8
ATOM      8  C   UNL     1      33.265 -22.811 -18.913  0.00  0.00    +0.235 C 
BRANCH   8   9
ATOM      9  O   UNL     1      34.182 -23.501 -18.073  0.00  0.00    -0.440 OA
BRANCH   9  11
ATOM     10  O   UNL     1      32.944 -22.963 -16.208  0.00  0.00    -0.245 OA
ATOM     11  C   UNL     1      33.954 -23.405 -16.735  0.00  0.00    +0.341 C 
BRANCH  11  12
ATOM     12  C   UNL     1      35.118 -23.916 -15.966  0.00  0.00    +0.072 C 
ATOM     13  C   UNL     1      36.298 -23.180 -15.871  0.00  0.00    -0.016 C 
ATOM     14  C   UNL     1      37.275 -24.922 -14.511  0.00  0.00    -0.022 C 
ATOM     15  C   UNL     1      37.377 -23.682 -15.143  0.00  0.00    -0.008 C 
ATOM     16  C   UNL     1      35.015 -25.155 -15.334  0.00  0.00    +0.006 C 
ATOM     17  C   UNL     1      36.094 -25.659 -14.607  0.00  0.00    -0.004 C 
ATOM     18  C   UNL     1      36.434 -21.850 -16.537  0.00  0.00    +0.031 C 
ATOM     19  C   UNL     1      38.427 -25.461 -13.734  0.00  0.00    +0.031 C 
ENDBRANCH  11  12
ENDBRANCH   9  11
ENDBRANCH   8   9
ENDBRANCH   5   8
ENDBRANCH   1   2
BRANCH   1  22
ATOM     20  O   UNL     1      34.318 -17.938 -23.294  0.00  0.00    -0.275 OA
ATOM     21  N   UNL     1      35.070 -16.330 -21.751  0.00  0.00    -0.284 N 
ATOM     22  C   UNL     1      35.036 -17.597 -22.358  0.00  0.00    +0.228 C 
ATOM     23  H   UNL     1      35.716 -16.222 -21.017  0.00  0.00    +0.155 HD
BRANCH  21  25
ATOM     24  N   UNL     1      31.163 -11.235 -22.015  0.00  0.00    -0.242 NA
ATOM     25  C   UNL     1      34.301 -15.205 -22.058  0.00  0.00    +0.050 C 
ATOM     26  C   UNL     1      33.486 -14.631 -21.081  0.00  0.00    +0.015 C 
ATOM     27  C   UNL     1      32.706 -13.501 -21.374  0.00  0.00    +0.004 C 
ATOM     28  C   UNL     1      34.349 -14.659 -23.337  0.00  0.00    +0.015 C 
ATOM     29  C   UNL     1      32.757 -12.950 -22.672  0.00  0.00    +0.019 C 
ATOM     30  C   UNL     1      33.582 -13.536 -23.647  0.00  0.00    +0.003 C 
ATOM     31  C   UNL     1      31.878 -12.903 -20.416  0.00  0.00    +0.021 C 
ATOM     32  C   UNL     1      31.969 -11.827 -22.926  0.00  0.00    +0.099 C 
ATOM     33  C   UNL     1      31.140 -11.789 -20.784  0.00  0.00    +0.099 C 
ENDBRANCH  21  25
ENDBRANCH   1  22
BRANCH   1  34
ATOM     34  C   UNL     1      37.024 -19.094 -22.793  0.00  0.00    -0.072 C 
BRANCH  34  35
ATOM     35  N   UNL     1      38.403 -18.710 -22.506  0.00  0.00    +0.381 N 
ATOM     36  H   UNL     1      39.007 -19.528 -22.586  0.00  0.00    -0.089 HD
ATOM     37  H   UNL     1      38.462 -18.336 -21.560  0.00  0.00    -0.089 HD
ATOM     38  H   UNL     1      38.703 -17.999 -23.172  0.00  0.00    -0.089 HD
ENDBRANCH  34  35
ENDBRANCH   1  34
TORSDOF 9
ENDMDL
MODEL 6
REMARK VINA RESULT:     -11.6      3.535     10.707
REMARK  Name = 66599893
REMARK  9 active torsions:
REMARK  status: ('A' for Active; 'I' for Inactive)
REMARK    1  A    between atoms: C_1  and  C_2
REMARK    2  A    between atoms: C_1  and  C_22
REMARK    3  A    between atoms: C_1  and  C_34
REMARK    4  A    between atoms: C_5  and  C_8
REMARK    5  A    between atoms: C_8  and  O_9
REMARK    6  A    between atoms: O_9  and  C_11
REMARK    7  A    between atoms: C_11  and  C_12
REMARK    8  A    between atoms: N_21  and  C_25
REMARK    9  A    between atoms: C_34  and  N_35
REMARK                            x       y       z     vdW  Elec       q    Type
REMARK                         _______ _______ _______ _____ _____    ______ ____
ROOT
ATOM      1  C   UNL     1      35.773 -22.160 -18.814  0.00  0.00    +0.077 C 
ENDROOT
BRANCH   1   2
ATOM      2  C   UNL     1      35.472 -21.110 -19.872  0.00  0.00    -0.016 C 
ATOM      3  C   UNL     1      36.507 -20.347 -20.413  0.00  0.00    -0.004 C 
ATOM      4  C   UNL     1      34.160 -20.909 -20.301  0.00  0.00    -0.004 C 
ATOM      5  C   UNL     1      34.919 -19.183 -21.811  0.00  0.00    +0.021 C 
ATOM      6  C   UNL     1      36.230 -19.383 -21.382  0.00  0.00    -0.001 C 
ATOM      7  C   UNL     1      33.883 -19.945 -21.271  0.00  0.00    -0.001 C 
BRANCH   5   8
ATOM      8  C   UNL     1      34.622 -18.153 -22.849  0.00  0.00    +0.235 C 
BRANCH   8   9
ATOM      9  O   UNL     1      35.144 -16.897 -22.432  0.00  0.00    -0.440 OA
BRANCH   9  11
ATOM     10  O   UNL     1      35.493 -15.736 -24.388  0.00  0.00    -0.245 OA
ATOM     11  C   UNL     1      34.964 -15.860 -23.294  0.00  0.00    +0.341 C 
BRANCH  11  12
ATOM     12  C   UNL     1      34.018 -14.864 -22.728  0.00  0.00    +0.072 C 
ATOM     13  C   UNL     1      33.239 -14.059 -23.557  0.00  0.00    -0.016 C 
ATOM     14  C   UNL     1      32.259 -13.008 -21.614  0.00  0.00    -0.022 C 
ATOM     15  C   UNL     1      32.359 -13.130 -23.000  0.00  0.00    -0.008 C 
ATOM     16  C   UNL     1      33.919 -14.742 -21.342  0.00  0.00    +0.006 C 
ATOM     17  C   UNL     1      33.040 -13.814 -20.785  0.00  0.00    -0.004 C 
ATOM     18  C   UNL     1      33.325 -14.169 -25.044  0.00  0.00    +0.031 C 
ATOM     19  C   UNL     1      31.320 -12.015 -21.017  0.00  0.00    +0.031 C 
ENDBRANCH  11  12
ENDBRANCH   9  11
ENDBRANCH   8   9
ENDBRANCH   5   8
ENDBRANCH   1   2
BRANCH   1  22
ATOM     20  O   UNL     1      33.842 -23.534 -19.289  0.00  0.00    -0.275 OA
ATOM     21  N   UNL     1      34.189 -22.812 -17.078  0.00  0.00    -0.284 N 
ATOM     22  C   UNL     1      34.493 -22.924 -18.445  0.00  0.00    +0.228 C 
ATOM     23  H   UNL     1      34.815 -22.274 -16.541  0.00  0.00    +0.155 HD
BRANCH  21  25
ATOM     24  N   UNL     1      28.559 -24.845 -14.743  0.00  0.00    -0.242 NA
ATOM     25  C   UNL     1      33.112 -23.368 -16.384  0.00  0.00    +0.050 C 
ATOM     26  C   UNL     1      31.810 -23.166 -16.845  0.00  0.00    +0.015 C 
ATOM     27  C   UNL     1      30.716 -23.717 -16.157  0.00  0.00    +0.004 C 
ATOM     28  C   UNL     1      33.339 -24.121 -15.236  0.00  0.00    +0.015 C 
ATOM     29  C   UNL     1      30.950 -24.480 -14.994  0.00  0.00    +0.019 C 
ATOM     30  C   UNL     1      32.265 -24.676 -14.541  0.00  0.00    +0.003 C 
ATOM     31  C   UNL     1      29.398 -23.533 -16.593  0.00  0.00    +0.021 C 
ATOM     32  C   UNL     1      29.838 -25.012 -14.338  0.00  0.00    +0.099 C 
ATOM     33  C   UNL     1      28.373 -24.110 -15.860  0.00  0.00    +0.099 C 
ENDBRANCH  21  25
ENDBRANCH   1  22
BRANCH   1  34
ATOM     34  C   UNL     1      36.427 -21.567 -17.550  0.00  0.00    -0.072 C 
BRANCH  34  35
ATOM     35  N   UNL     1      37.463 -22.444 -17.010  0.00  0.00    +0.381 N 
ATOM     36  H   UNL     1      38.355 -22.232 -17.458  0.00  0.00    -0.089 HD
ATOM     37  H   UNL     1      37.214 -23.416 -17.192  0.00  0.00    -0.089 HD
ATOM     38  H   UNL     1      37.544 -22.296 -16.004  0.00  0.00    -0.089 HD
ENDBRANCH  34  35
ENDBRANCH   1  34
TORSDOF 9
ENDMDL
MODEL 7
REMARK VINA RESULT:     -11.5      3.428      6.674
REMARK  Name = 66599893
REMARK  9 active torsions:
REMARK  status: ('A' for Active; 'I' for Inactive)
REMARK    1  A    between atoms: C_1  and  C_2
REMARK    2  A    between atoms: C_1  and  C_22
REMARK    3  A    between atoms: C_1  and  C_34
REMARK    4  A    between atoms: C_5  and  C_8
REMARK    5  A    between atoms: C_8  and  O_9
REMARK    6  A    between atoms: O_9  and  C_11
REMARK    7  A    between atoms: C_11  and  C_12
REMARK    8  A    between atoms: N_21  and  C_25
REMARK    9  A    between atoms: C_34  and  N_35
REMARK                            x       y       z     vdW  Elec       q    Type
REMARK                         _______ _______ _______ _____ _____    ______ ____
ROOT
ATOM      1  C   UNL     1      31.332 -11.637 -21.416  0.00  0.00    +0.077 C 
ENDROOT
BRANCH   1   2
ATOM      2  C   UNL     1      32.275 -12.722 -21.913  0.00  0.00    -0.016 C 
ATOM      3  C   UNL     1      32.415 -12.953 -23.282  0.00  0.00    -0.004 C 
ATOM      4  C   UNL     1      33.001 -13.487 -20.999  0.00  0.00    -0.004 C 
ATOM      5  C   UNL     1      34.004 -14.713 -22.824  0.00  0.00    +0.021 C 
ATOM      6  C   UNL     1      33.278 -13.948 -23.737  0.00  0.00    -0.001 C 
ATOM      7  C   UNL     1      33.865 -14.483 -21.455  0.00  0.00    -0.001 C 
BRANCH   5   8
ATOM      8  C   UNL     1      34.929 -15.777 -23.310  0.00  0.00    +0.235 C 
BRANCH   8   9
ATOM      9  O   UNL     1      34.909 -16.872 -22.403  0.00  0.00    -0.440 OA
BRANCH   9  11
ATOM     10  O   UNL     1      34.673 -18.349 -24.153  0.00  0.00    -0.245 OA
ATOM     11  C   UNL     1      34.801 -18.108 -22.962  0.00  0.00    +0.341 C 
BRANCH  11  12
ATOM     12  C   UNL     1      34.858 -19.163 -21.919  0.00  0.00    +0.072 C 
ATOM     13  C   UNL     1      36.069 -19.539 -21.339  0.00  0.00    -0.016 C 
ATOM     14  C   UNL     1      34.910 -21.153 -19.964  0.00  0.00    -0.022 C 
ATOM     15  C   UNL     1      36.095 -20.534 -20.361  0.00  0.00    -0.008 C 
ATOM     16  C   UNL     1      33.672 -19.782 -21.522  0.00  0.00    +0.006 C 
ATOM     17  C   UNL     1      33.698 -20.778 -20.545  0.00  0.00    -0.004 C 
ATOM     18  C   UNL     1      37.353 -18.892 -21.744  0.00  0.00    +0.031 C 
ATOM     19  C   UNL     1      34.936 -22.217 -18.920  0.00  0.00    +0.031 C 
ENDBRANCH  11  12
ENDBRANCH   9  11
ENDBRANCH   8   9
ENDBRANCH   5   8
ENDBRANCH   1   2
BRANCH   1  22
ATOM     20  O   UNL     1      30.464  -9.767 -22.677  0.00  0.00    -0.275 OA
ATOM     21  N   UNL     1      32.793 -10.078 -22.592  0.00  0.00    -0.284 N 
ATOM     22  C   UNL     1      31.455 -10.384 -22.295  0.00  0.00    +0.228 C 
ATOM     23  H   UNL     1      33.468 -10.686 -22.213  0.00  0.00    +0.155 HD
BRANCH  21  25
ATOM     24  N   UNL     1      34.162  -4.580 -25.623  0.00  0.00    -0.242 NA
ATOM     25  C   UNL     1      33.288  -9.020 -23.358  0.00  0.00    +0.050 C 
ATOM     26  C   UNL     1      32.666  -7.772 -23.304  0.00  0.00    +0.015 C 
ATOM     27  C   UNL     1      33.150  -6.698 -24.069  0.00  0.00    +0.004 C 
ATOM     28  C   UNL     1      34.399  -9.213 -24.174  0.00  0.00    +0.015 C 
ATOM     29  C   UNL     1      34.276  -6.898 -24.895  0.00  0.00    +0.019 C 
ATOM     30  C   UNL     1      34.894  -8.159 -24.941  0.00  0.00    +0.003 C 
ATOM     31  C   UNL     1      32.549  -5.434 -24.037  0.00  0.00    +0.021 C 
ATOM     32  C   UNL     1      34.730  -5.808 -25.641  0.00  0.00    +0.099 C 
ATOM     33  C   UNL     1      33.088  -4.426 -24.821  0.00  0.00    +0.099 C 
ENDBRANCH  21  25
ENDBRANCH   1  22
BRANCH   1  34
ATOM     34  C   UNL     1      31.561 -11.277 -19.934  0.00  0.00    -0.072 C 
BRANCH  34  35
ATOM     35  N   UNL     1      30.834 -10.070 -19.549  0.00  0.00    +0.381 N 
ATOM     36  H   UNL     1      31.441  -9.258 -19.657  0.00  0.00    -0.089 HD
ATOM     37  H   UNL     1      30.541 -10.147 -18.575  0.00  0.00    -0.089 HD
ATOM     38  H   UNL     1      30.012  -9.964 -20.143  0.00  0.00    -0.089 HD
ENDBRANCH  34  35
ENDBRANCH   1  34
TORSDOF 9
ENDMDL
MODEL 8
REMARK VINA RESULT:     -10.9      4.574      8.536
REMARK  Name = 66599893
REMARK  9 active torsions:
REMARK  status: ('A' for Active; 'I' for Inactive)
REMARK    1  A    between atoms: C_1  and  C_2
REMARK    2  A    between atoms: C_1  and  C_22
REMARK    3  A    between atoms: C_1  and  C_34
REMARK    4  A    between atoms: C_5  and  C_8
REMARK    5  A    between atoms: C_8  and  O_9
REMARK    6  A    between atoms: O_9  and  C_11
REMARK    7  A    between atoms: C_11  and  C_12
REMARK    8  A    between atoms: N_21  and  C_25
REMARK    9  A    between atoms: C_34  and  N_35
REMARK                            x       y       z     vdW  Elec       q    Type
REMARK                         _______ _______ _______ _____ _____    ______ ____
ROOT
ATOM      1  C   UNL     1      31.109  -9.866 -21.525  0.00  0.00    +0.077 C 
ENDROOT
BRANCH   1   2
ATOM      2  C   UNL     1      31.921 -10.924 -22.256  0.00  0.00    -0.016 C 
ATOM      3  C   UNL     1      32.799 -10.551 -23.274  0.00  0.00    -0.004 C 
ATOM      4  C   UNL     1      31.787 -12.269 -21.908  0.00  0.00    -0.004 C 
ATOM      5  C   UNL     1      33.408 -12.866 -23.597  0.00  0.00    +0.021 C 
ATOM      6  C   UNL     1      33.542 -11.523 -23.945  0.00  0.00    -0.001 C 
ATOM      7  C   UNL     1      32.530 -13.240 -22.580  0.00  0.00    -0.001 C 
BRANCH   5   8
ATOM      8  C   UNL     1      34.204 -13.905 -24.314  0.00  0.00    +0.235 C 
BRANCH   8   9
ATOM      9  O   UNL     1      33.935 -15.181 -23.747  0.00  0.00    -0.440 OA
BRANCH   9  11
ATOM     10  O   UNL     1      34.823 -16.301 -25.551  0.00  0.00    -0.245 OA
ATOM     11  C   UNL     1      34.509 -16.245 -24.372  0.00  0.00    +0.341 C 
BRANCH  11  12
ATOM     12  C   UNL     1      34.714 -17.366 -23.419  0.00  0.00    +0.072 C 
ATOM     13  C   UNL     1      34.239 -18.647 -23.701  0.00  0.00    -0.016 C 
ATOM     14  C   UNL     1      35.123 -19.438 -21.596  0.00  0.00    -0.022 C 
ATOM     15  C   UNL     1      34.444 -19.683 -22.790  0.00  0.00    -0.008 C 
ATOM     16  C   UNL     1      35.393 -17.120 -22.226  0.00  0.00    +0.006 C 
ATOM     17  C   UNL     1      35.598 -18.156 -21.314  0.00  0.00    -0.004 C 
ATOM     18  C   UNL     1      33.509 -18.937 -24.971  0.00  0.00    +0.031 C 
ATOM     19  C   UNL     1      35.342 -20.543 -20.620  0.00  0.00    +0.031 C 
ENDBRANCH  11  12
ENDBRANCH   9  11
ENDBRANCH   8   9
ENDBRANCH   5   8
ENDBRANCH   1   2
BRANCH   1  22
ATOM     20  O   UNL     1      32.239  -7.828 -20.883  0.00  0.00    -0.275 OA
ATOM     21  N   UNL     1      31.531  -8.063 -23.113  0.00  0.00    -0.284 N 
ATOM     22  C   UNL     1      31.702  -8.472 -21.780  0.00  0.00    +0.228 C 
ATOM     23  H   UNL     1      31.066  -8.700 -23.702  0.00  0.00    +0.155 HD
BRANCH  21  25
ATOM     24  N   UNL     1      32.231  -2.254 -25.769  0.00  0.00    -0.242 NA
ATOM     25  C   UNL     1      31.937  -6.867 -23.708  0.00  0.00    +0.050 C 
ATOM     26  C   UNL     1      31.000  -5.865 -23.967  0.00  0.00    +0.015 C 
ATOM     27  C   UNL     1      31.391  -4.657 -24.567  0.00  0.00    +0.004 C 
ATOM     28  C   UNL     1      33.274  -6.675 -24.042  0.00  0.00    +0.015 C 
ATOM     29  C   UNL     1      32.748  -4.467 -24.903  0.00  0.00    +0.019 C 
ATOM     30  C   UNL     1      33.683  -5.482 -24.637  0.00  0.00    +0.003 C 
ATOM     31  C   UNL     1      30.476  -3.634 -24.840  0.00  0.00    +0.021 C 
ATOM     32  C   UNL     1      33.101  -3.254 -25.497  0.00  0.00    +0.099 C 
ATOM     33  C   UNL     1      30.942  -2.470 -25.432  0.00  0.00    +0.099 C 
ENDBRANCH  21  25
ENDBRANCH   1  22
BRANCH   1  34
ATOM     34  C   UNL     1      31.002 -10.133 -20.010  0.00  0.00    -0.072 C 
BRANCH  34  35
ATOM     35  N   UNL     1      32.300 -10.037 -19.347  0.00  0.00    +0.381 N 
ATOM     36  H   UNL     1      32.177  -9.643 -18.414  0.00  0.00    -0.089 HD
ATOM     37  H   UNL     1      32.915  -9.433 -19.892  0.00  0.00    -0.089 HD
ATOM     38  H   UNL     1      32.714 -10.966 -19.274  0.00  0.00    -0.089 HD
ENDBRANCH  34  35
ENDBRANCH   1  34
TORSDOF 9
ENDMDL
MODEL 9
REMARK VINA RESULT:     -10.9      4.609      8.183
REMARK  Name = 66599893
REMARK  9 active torsions:
REMARK  status: ('A' for Active; 'I' for Inactive)
REMARK    1  A    between atoms: C_1  and  C_2
REMARK    2  A    between atoms: C_1  and  C_22
REMARK    3  A    between atoms: C_1  and  C_34
REMARK    4  A    between atoms: C_5  and  C_8
REMARK    5  A    between atoms: C_8  and  O_9
REMARK    6  A    between atoms: O_9  and  C_11
REMARK    7  A    between atoms: C_11  and  C_12
REMARK    8  A    between atoms: N_21  and  C_25
REMARK    9  A    between atoms: C_34  and  N_35
REMARK                            x       y       z     vdW  Elec       q    Type
REMARK                         _______ _______ _______ _____ _____    ______ ____
ROOT
ATOM      1  C   UNL     1      30.985 -10.294 -21.312  0.00  0.00    +0.077 C 
ENDROOT
BRANCH   1   2
ATOM      2  C   UNL     1      31.810 -11.523 -21.659  0.00  0.00    -0.016 C 
ATOM      3  C   UNL     1      31.820 -12.622 -20.800  0.00  0.00    -0.004 C 
ATOM      4  C   UNL     1      32.557 -11.552 -22.838  0.00  0.00    -0.004 C 
ATOM      5  C   UNL     1      33.324 -13.778 -22.296  0.00  0.00    +0.021 C 
ATOM      6  C   UNL     1      32.578 -13.749 -21.118  0.00  0.00    -0.001 C 
ATOM      7  C   UNL     1      33.314 -12.680 -23.155  0.00  0.00    -0.001 C 
BRANCH   5   8
ATOM      8  C   UNL     1      34.133 -14.984 -22.637  0.00  0.00    +0.235 C 
BRANCH   8   9
ATOM      9  O   UNL     1      33.828 -15.399 -23.963  0.00  0.00    -0.440 OA
BRANCH   9  11
ATOM     10  O   UNL     1      35.146 -16.348 -25.594  0.00  0.00    -0.245 OA
ATOM     11  C   UNL     1      34.631 -16.365 -24.486  0.00  0.00    +0.341 C 
BRANCH  11  12
ATOM     12  C   UNL     1      34.811 -17.478 -23.520  0.00  0.00    +0.072 C 
ATOM     13  C   UNL     1      34.187 -18.710 -23.715  0.00  0.00    -0.016 C 
ATOM     14  C   UNL     1      35.180 -19.537 -21.674  0.00  0.00    -0.022 C 
ATOM     15  C   UNL     1      34.371 -19.739 -22.792  0.00  0.00    -0.008 C 
ATOM     16  C   UNL     1      35.619 -17.275 -22.402  0.00  0.00    +0.006 C 
ATOM     17  C   UNL     1      35.804 -18.304 -21.478  0.00  0.00    -0.004 C 
ATOM     18  C   UNL     1      33.316 -18.954 -24.904  0.00  0.00    +0.031 C 
ATOM     19  C   UNL     1      35.378 -20.636 -20.686  0.00  0.00    +0.031 C 
ENDBRANCH  11  12
ENDBRANCH   9  11
ENDBRANCH   8   9
ENDBRANCH   5   8
ENDBRANCH   1   2
BRANCH   1  22
ATOM     20  O   UNL     1      32.573  -8.483 -21.101  0.00  0.00    -0.275 OA
ATOM     21  N   UNL     1      31.235  -8.582 -23.032  0.00  0.00    -0.284 N 
ATOM     22  C   UNL     1      31.705  -9.021 -21.783  0.00  0.00    +0.228 C 
ATOM     23  H   UNL     1      30.524  -9.127 -23.439  0.00  0.00    +0.155 HD
BRANCH  21  25
ATOM     24  N   UNL     1      34.205  -4.038 -26.469  0.00  0.00    -0.242 NA
ATOM     25  C   UNL     1      31.649  -7.470 -23.768  0.00  0.00    +0.050 C 
ATOM     26  C   UNL     1      32.958  -7.401 -24.247  0.00  0.00    +0.015 C 
ATOM     27  C   UNL     1      33.390  -6.289 -24.988  0.00  0.00    +0.004 C 
ATOM     28  C   UNL     1      30.756  -6.433 -24.023  0.00  0.00    +0.015 C 
ATOM     29  C   UNL     1      32.482  -5.241 -25.244  0.00  0.00    +0.019 C 
ATOM     30  C   UNL     1      31.167  -5.321 -24.757  0.00  0.00    +0.003 C 
ATOM     31  C   UNL     1      34.697  -6.190 -25.482  0.00  0.00    +0.021 C 
ATOM     32  C   UNL     1      32.948  -4.152 -25.985  0.00  0.00    +0.099 C 
ATOM     33  C   UNL     1      35.046  -5.060 -26.205  0.00  0.00    +0.099 C 
ENDBRANCH  21  25
ENDBRANCH   1  22
BRANCH   1  34
ATOM     34  C   UNL     1      30.656 -10.197 -19.808  0.00  0.00    -0.072 C 
BRANCH  34  35
ATOM     35  N   UNL     1      31.844  -9.909 -19.009  0.00  0.00    +0.381 N 
ATOM     36  H   UNL     1      32.148 -10.758 -18.534  0.00  0.00    -0.089 HD
ATOM     37  H   UNL     1      31.622  -9.194 -18.317  0.00  0.00    -0.089 HD
ATOM     38  H   UNL     1      32.590  -9.572 -19.617  0.00  0.00    -0.089 HD
ENDBRANCH  34  35
ENDBRANCH   1  34
TORSDOF 9
ENDMDL
