MODEL 1
REMARK VINA RESULT:     -12.4      0.000      0.000
REMARK  Name = 11167602
REMARK  6 active torsions:
REMARK  status: ('A' for Active; 'I' for Inactive)
REMARK    1  A    between atoms: C_2  and  N_10
REMARK    2  A    between atoms: C_3  and  O_25
REMARK    3  A    between atoms: N_9  and  C_15
REMARK    4  A    between atoms: C_16  and  C_24
REMARK    5  A    between atoms: O_25  and  C_27
REMARK    6  A    between atoms: C_29  and  C_34
REMARK                            x       y       z     vdW  Elec       q    Type
REMARK                         _______ _______ _______ _____ _____    ______ ____
ROOT
ATOM      1  F   UNL     1      32.754 -14.100 -25.811  0.00  0.00    -0.203 F 
ATOM      2  C   UNL     1      33.747 -14.010 -23.656  0.00  0.00    +0.079 C 
ATOM      3  C   UNL     1      34.522 -16.656 -23.926  0.00  0.00    +0.148 C 
ATOM      4  C   UNL     1      33.429 -14.695 -24.817  0.00  0.00    +0.157 C 
ATOM      5  C   UNL     1      34.447 -14.620 -22.627  0.00  0.00    +0.020 C 
ATOM      6  C   UNL     1      33.819 -16.026 -24.953  0.00  0.00    +0.068 C 
ATOM      7  C   UNL     1      34.836 -15.953 -22.763  0.00  0.00    +0.039 C 
ENDROOT
BRANCH   2  10
ATOM      8  O   UNL     1      34.803 -11.547 -24.977  0.00  0.00    -0.252 OA
ATOM      9  N   UNL     1      33.206 -10.364 -23.737  0.00  0.00    -0.268 N 
ATOM     10  N   UNL     1      33.354 -12.658 -23.516  0.00  0.00    -0.266 N 
ATOM     11  C   UNL     1      33.886 -11.531 -24.162  0.00  0.00    +0.308 C 
ATOM     12  H   UNL     1      32.489 -10.504 -23.078  0.00  0.00    +0.156 HD
ATOM     13  H   UNL     1      32.617 -12.487 -22.886  0.00  0.00    +0.156 HD
BRANCH   9  15
ATOM     14 CL   UNL     1      34.142  -4.766 -25.389  0.00  0.00    -0.082 Cl
ATOM     15  C   UNL     1      33.417  -9.042 -24.130  0.00  0.00    +0.052 C 
ATOM     16  C   UNL     1      32.554  -6.933 -24.932  0.00  0.00    +0.083 C 
ATOM     17  C   UNL     1      32.341  -8.255 -24.541  0.00  0.00    +0.019 C 
ATOM     18  C   UNL     1      34.705  -8.507 -24.111  0.00  0.00    +0.016 C 
ATOM     19  C   UNL     1      33.841  -6.398 -24.913  0.00  0.00    +0.062 C 
ATOM     20  C   UNL     1      34.917  -7.185 -24.503  0.00  0.00    +0.013 C 
BRANCH  16  24
ATOM     21  F   UNL     1      30.908  -5.282 -24.395  0.00  0.00    -0.166 F 
ATOM     22  F   UNL     1      31.625  -5.325 -26.441  0.00  0.00    -0.166 F 
ATOM     23  F   UNL     1      30.311  -6.900 -25.719  0.00  0.00    -0.166 F 
ATOM     24  C   UNL     1      31.374  -6.123 -25.363  0.00  0.00    +0.419 C 
ENDBRANCH  16  24
ENDBRANCH   9  15
ENDBRANCH   2  10
BRANCH   3  25
ATOM     25  O   UNL     1      34.903 -17.956 -24.058  0.00  0.00    -0.453 OA
BRANCH  25  27
ATOM     26  N   UNL     1      35.835 -20.059 -20.597  0.00  0.00    -0.239 NA
ATOM     27  C   UNL     1      35.213 -18.656 -22.904  0.00  0.00    +0.149 C 
ATOM     28  C   UNL     1      34.229 -19.388 -22.275  0.00  0.00    +0.061 C 
ATOM     29  C   UNL     1      34.590 -20.072 -21.125  0.00  0.00    +0.137 C 
ATOM     30  C   UNL     1      36.499 -18.607 -22.412  0.00  0.00    +0.058 C 
ATOM     31  C   UNL     1      36.759 -19.325 -21.256  0.00  0.00    +0.102 C 
BRANCH  29  34
ATOM     32  O   UNL     1      32.391 -20.702 -20.610  0.00  0.00    -0.268 OA
ATOM     33  N   UNL     1      34.097 -21.820 -19.505  0.00  0.00    -0.298 N 
ATOM     34  C   UNL     1      33.608 -20.865 -20.406  0.00  0.00    +0.264 C 
ATOM     35  C   UNL     1      33.249 -22.700 -18.734  0.00  0.00    +0.111 C 
ATOM     36  H   UNL     1      35.072 -21.895 -19.391  0.00  0.00    +0.150 HD
ENDBRANCH  29  34
ENDBRANCH  25  27
ENDBRANCH   3  25
TORSDOF 6
ENDMDL
MODEL 2
REMARK VINA RESULT:     -12.0      5.757      9.748
REMARK  Name = 11167602
REMARK  6 active torsions:
REMARK  status: ('A' for Active; 'I' for Inactive)
REMARK    1  A    between atoms: C_2  and  N_10
REMARK    2  A    between atoms: C_3  and  O_25
REMARK    3  A    between atoms: N_9  and  C_15
REMARK    4  A    between atoms: C_16  and  C_24
REMARK    5  A    between atoms: O_25  and  C_27
REMARK    6  A    between atoms: C_29  and  C_34
REMARK                            x       y       z     vdW  Elec       q    Type
REMARK                         _______ _______ _______ _____ _____    ______ ____
ROOT
ATOM      1  F   UNL     1      36.816 -21.392 -17.802  0.00  0.00    -0.203 F 
ATOM      2  C   UNL     1      34.845 -21.904 -19.024  0.00  0.00    +0.079 C 
ATOM      3  C   UNL     1      34.015 -23.549 -16.956  0.00  0.00    +0.148 C 
ATOM      4  C   UNL     1      35.648 -22.041 -17.903  0.00  0.00    +0.157 C 
ATOM      5  C   UNL     1      33.636 -22.571 -19.132  0.00  0.00    +0.020 C 
ATOM      6  C   UNL     1      35.229 -22.869 -16.862  0.00  0.00    +0.068 C 
ATOM      7  C   UNL     1      33.219 -23.401 -18.092  0.00  0.00    +0.039 C 
ENDROOT
BRANCH   2  10
ATOM      8  O   UNL     1      33.326 -19.856 -20.580  0.00  0.00    -0.252 OA
ATOM      9  N   UNL     1      35.311 -19.486 -21.769  0.00  0.00    -0.268 N 
ATOM     10  N   UNL     1      35.266 -21.063 -20.082  0.00  0.00    -0.266 N 
ATOM     11  C   UNL     1      34.508 -20.112 -20.784  0.00  0.00    +0.308 C 
ATOM     12  H   UNL     1      36.245 -19.794 -21.817  0.00  0.00    +0.156 HD
ATOM     13  H   UNL     1      36.206 -21.157 -20.359  0.00  0.00    +0.156 HD
BRANCH   9  15
ATOM     14 CL   UNL     1      33.801 -15.296 -25.655  0.00  0.00    -0.082 Cl
ATOM     15  C   UNL     1      34.954 -18.490 -22.679  0.00  0.00    +0.052 C 
ATOM     16  C   UNL     1      34.437 -16.179 -23.157  0.00  0.00    +0.083 C 
ATOM     17  C   UNL     1      34.794 -17.174 -22.246  0.00  0.00    +0.019 C 
ATOM     18  C   UNL     1      34.756 -18.812 -24.021  0.00  0.00    +0.016 C 
ATOM     19  C   UNL     1      34.241 -16.501 -24.499  0.00  0.00    +0.062 C 
ATOM     20  C   UNL     1      34.400 -17.817 -24.932  0.00  0.00    +0.013 C 
BRANCH  16  24
ATOM     21  F   UNL     1      34.771 -14.596 -21.394  0.00  0.00    -0.166 F 
ATOM     22  F   UNL     1      34.910 -13.849 -23.426  0.00  0.00    -0.166 F 
ATOM     23  F   UNL     1      32.973 -14.392 -22.599  0.00  0.00    -0.166 F 
ATOM     24  C   UNL     1      34.279 -14.781 -22.653  0.00  0.00    +0.419 C 
ENDBRANCH  16  24
ENDBRANCH   9  15
ENDBRANCH   2  10
BRANCH   3  25
ATOM     25  O   UNL     1      33.607 -24.358 -15.940  0.00  0.00    -0.453 OA
BRANCH  25  27
ATOM     26  N   UNL     1      36.337 -25.187 -12.919  0.00  0.00    -0.239 NA
ATOM     27  C   UNL     1      34.516 -24.635 -14.934  0.00  0.00    +0.149 C 
ATOM     28  C   UNL     1      35.691 -25.285 -15.247  0.00  0.00    +0.061 C 
ATOM     29  C   UNL     1      36.569 -25.537 -14.204  0.00  0.00    +0.137 C 
ATOM     30  C   UNL     1      34.227 -24.254 -13.641  0.00  0.00    +0.058 C 
ATOM     31  C   UNL     1      35.169 -24.554 -12.670  0.00  0.00    +0.102 C 
BRANCH  29  34
ATOM     32  O   UNL     1      37.841 -27.400 -14.844  0.00  0.00    -0.268 OA
ATOM     33  N   UNL     1      39.001 -25.478 -14.260  0.00  0.00    -0.298 N 
ATOM     34  C   UNL     1      37.828 -26.217 -14.455  0.00  0.00    +0.264 C 
ATOM     35  C   UNL     1      40.326 -26.006 -14.490  0.00  0.00    +0.111 C 
ATOM     36  H   UNL     1      38.918 -24.548 -13.949  0.00  0.00    +0.150 HD
ENDBRANCH  29  34
ENDBRANCH  25  27
ENDBRANCH   3  25
TORSDOF 6
ENDMDL
MODEL 3
REMARK VINA RESULT:     -11.9      1.745      2.306
REMARK  Name = 11167602
REMARK  6 active torsions:
REMARK  status: ('A' for Active; 'I' for Inactive)
REMARK    1  A    between atoms: C_2  and  N_10
REMARK    2  A    between atoms: C_3  and  O_25
REMARK    3  A    between atoms: N_9  and  C_15
REMARK    4  A    between atoms: C_16  and  C_24
REMARK    5  A    between atoms: O_25  and  C_27
REMARK    6  A    between atoms: C_29  and  C_34
REMARK                            x       y       z     vdW  Elec       q    Type
REMARK                         _______ _______ _______ _____ _____    ______ ____
ROOT
ATOM      1  F   UNL     1      34.348 -14.033 -21.021  0.00  0.00    -0.203 F 
ATOM      2  C   UNL     1      33.461 -14.066 -23.223  0.00  0.00    +0.079 C 
ATOM      3  C   UNL     1      34.670 -16.521 -23.651  0.00  0.00    +0.148 C 
ATOM      4  C   UNL     1      34.204 -14.642 -22.206  0.00  0.00    +0.157 C 
ATOM      5  C   UNL     1      33.309 -14.693 -24.450  0.00  0.00    +0.020 C 
ATOM      6  C   UNL     1      34.813 -15.878 -22.421  0.00  0.00    +0.068 C 
ATOM      7  C   UNL     1      33.919 -15.929 -24.665  0.00  0.00    +0.039 C 
ENDROOT
BRANCH   2  10
ATOM      8  O   UNL     1      34.092 -11.380 -24.368  0.00  0.00    -0.252 OA
ATOM      9  N   UNL     1      32.303 -10.568 -23.091  0.00  0.00    -0.268 N 
ATOM     10  N   UNL     1      32.841 -12.813 -23.008  0.00  0.00    -0.266 N 
ATOM     11  C   UNL     1      33.177 -11.573 -23.573  0.00  0.00    +0.308 C 
ATOM     12  H   UNL     1      31.614 -10.871 -22.456  0.00  0.00    +0.156 HD
ATOM     13  H   UNL     1      32.079 -12.811 -22.384  0.00  0.00    +0.156 HD
BRANCH   9  15
ATOM     14 CL   UNL     1      32.200  -4.800 -24.379  0.00  0.00    -0.082 Cl
ATOM     15  C   UNL     1      32.289  -9.207 -23.397  0.00  0.00    +0.052 C 
ATOM     16  C   UNL     1      33.429  -7.224 -24.174  0.00  0.00    +0.083 C 
ATOM     17  C   UNL     1      33.445  -8.585 -23.868  0.00  0.00    +0.019 C 
ATOM     18  C   UNL     1      31.117  -8.468 -23.231  0.00  0.00    +0.016 C 
ATOM     19  C   UNL     1      32.258  -6.486 -24.009  0.00  0.00    +0.062 C 
ATOM     20  C   UNL     1      31.102  -7.107 -23.538  0.00  0.00    +0.013 C 
BRANCH  16  24
ATOM     21  F   UNL     1      35.018  -6.981 -25.945  0.00  0.00    -0.166 F 
ATOM     22  F   UNL     1      34.639  -5.233 -24.719  0.00  0.00    -0.166 F 
ATOM     23  F   UNL     1      35.769  -6.904 -23.906  0.00  0.00    -0.166 F 
ATOM     24  C   UNL     1      34.688  -6.596 -24.679  0.00  0.00    +0.419 C 
ENDBRANCH  16  24
ENDBRANCH   9  15
ENDBRANCH   2  10
BRANCH   3  25
ATOM     25  O   UNL     1      35.265 -17.728 -23.861  0.00  0.00    -0.453 OA
BRANCH  25  27
ATOM     26  N   UNL     1      35.989 -20.130 -20.548  0.00  0.00    -0.239 NA
ATOM     27  C   UNL     1      35.505 -18.528 -22.757  0.00  0.00    +0.149 C 
ATOM     28  C   UNL     1      34.465 -19.239 -22.201  0.00  0.00    +0.061 C 
ATOM     29  C   UNL     1      34.757 -20.027 -21.098  0.00  0.00    +0.137 C 
ATOM     30  C   UNL     1      36.781 -18.595 -22.239  0.00  0.00    +0.058 C 
ATOM     31  C   UNL     1      36.970 -19.409 -21.135  0.00  0.00    +0.102 C 
BRANCH  29  34
ATOM     32  O   UNL     1      32.515 -20.599 -20.722  0.00  0.00    -0.268 OA
ATOM     33  N   UNL     1      34.121 -21.800 -19.558  0.00  0.00    -0.298 N 
ATOM     34  C   UNL     1      33.713 -20.807 -20.456  0.00  0.00    +0.264 C 
ATOM     35  C   UNL     1      33.205 -22.672 -18.860  0.00  0.00    +0.111 C 
ATOM     36  H   UNL     1      35.085 -21.910 -19.392  0.00  0.00    +0.150 HD
ENDBRANCH  29  34
ENDBRANCH  25  27
ENDBRANCH   3  25
TORSDOF 6
ENDMDL
MODEL 4
REMARK VINA RESULT:     -11.9      7.789     14.258
REMARK  Name = 11167602
REMARK  6 active torsions:
REMARK  status: ('A' for Active; 'I' for Inactive)
REMARK    1  A    between atoms: C_2  and  N_10
REMARK    2  A    between atoms: C_3  and  O_25
REMARK    3  A    between atoms: N_9  and  C_15
REMARK    4  A    between atoms: C_16  and  C_24
REMARK    5  A    between atoms: O_25  and  C_27
REMARK    6  A    between atoms: C_29  and  C_34
REMARK                            x       y       z     vdW  Elec       q    Type
REMARK                         _______ _______ _______ _____ _____    ______ ____
ROOT
ATOM      1  F   UNL     1      32.938 -20.906 -20.173  0.00  0.00    -0.203 F 
ATOM      2  C   UNL     1      35.234 -21.265 -19.685  0.00  0.00    +0.079 C 
ATOM      3  C   UNL     1      35.915 -19.405 -21.620  0.00  0.00    +0.148 C 
ATOM      4  C   UNL     1      34.230 -20.633 -20.401  0.00  0.00    +0.157 C 
ATOM      5  C   UNL     1      36.571 -20.986 -19.916  0.00  0.00    +0.020 C 
ATOM      6  C   UNL     1      34.573 -19.697 -21.375  0.00  0.00    +0.068 C 
ATOM      7  C   UNL     1      36.914 -20.050 -20.892  0.00  0.00    +0.039 C 
ENDROOT
BRANCH   2  10
ATOM      8  O   UNL     1      36.160 -21.526 -16.857  0.00  0.00    -0.252 OA
ATOM      9  N   UNL     1      34.760 -23.399 -16.715  0.00  0.00    -0.268 N 
ATOM     10  N   UNL     1      34.889 -22.216 -18.695  0.00  0.00    -0.266 N 
ATOM     11  C   UNL     1      35.356 -22.295 -17.373  0.00  0.00    +0.308 C 
ATOM     12  H   UNL     1      34.131 -23.929 -17.256  0.00  0.00    +0.156 HD
ATOM     13  H   UNL     1      34.243 -22.907 -18.967  0.00  0.00    +0.156 HD
BRANCH   9  15
ATOM     14 CL   UNL     1      35.507 -25.232 -11.146  0.00  0.00    -0.082 Cl
ATOM     15  C   UNL     1      34.945 -23.834 -15.403  0.00  0.00    +0.052 C 
ATOM     16  C   UNL     1      36.400 -24.645 -13.653  0.00  0.00    +0.083 C 
ATOM     17  C   UNL     1      36.215 -24.211 -14.966  0.00  0.00    +0.019 C 
ATOM     18  C   UNL     1      33.861 -23.891 -14.528  0.00  0.00    +0.016 C 
ATOM     19  C   UNL     1      35.316 -24.702 -12.778  0.00  0.00    +0.062 C 
ATOM     20  C   UNL     1      34.046 -24.325 -13.215  0.00  0.00    +0.013 C 
BRANCH  16  24
ATOM     21  F   UNL     1      38.261 -24.285 -12.194  0.00  0.00    -0.166 F 
ATOM     22  F   UNL     1      37.866 -26.331 -12.796  0.00  0.00    -0.166 F 
ATOM     23  F   UNL     1      38.690 -24.918 -14.229  0.00  0.00    -0.166 F 
ATOM     24  C   UNL     1      37.777 -25.038 -13.223  0.00  0.00    +0.419 C 
ENDBRANCH  16  24
ENDBRANCH   9  15
ENDBRANCH   2  10
BRANCH   3  25
ATOM     25  O   UNL     1      36.250 -18.490 -22.572  0.00  0.00    -0.453 OA
BRANCH  25  27
ATOM     26  N   UNL     1      33.328 -17.405 -25.321  0.00  0.00    -0.239 NA
ATOM     27  C   UNL     1      35.276 -18.128 -23.487  0.00  0.00    +0.149 C 
ATOM     28  C   UNL     1      35.078 -16.794 -23.769  0.00  0.00    +0.061 C 
ATOM     29  C   UNL     1      34.092 -16.484 -24.693  0.00  0.00    +0.137 C 
ATOM     30  C   UNL     1      34.527 -19.112 -24.097  0.00  0.00    +0.058 C 
ATOM     31  C   UNL     1      33.566 -18.698 -25.006  0.00  0.00    +0.102 C 
BRANCH  29  34
ATOM     32  O   UNL     1      33.454 -14.797 -26.192  0.00  0.00    -0.268 OA
ATOM     33  N   UNL     1      33.981 -14.145 -24.029  0.00  0.00    -0.298 N 
ATOM     34  C   UNL     1      33.825 -15.099 -25.042  0.00  0.00    +0.264 C 
ATOM     35  C   UNL     1      33.731 -12.734 -24.214  0.00  0.00    +0.111 C 
ATOM     36  H   UNL     1      34.279 -14.452 -23.143  0.00  0.00    +0.150 HD
ENDBRANCH  29  34
ENDBRANCH  25  27
ENDBRANCH   3  25
TORSDOF 6
ENDMDL
MODEL 5
REMARK VINA RESULT:     -11.8      6.162     12.280
REMARK  Name = 11167602
REMARK  6 active torsions:
REMARK  status: ('A' for Active; 'I' for Inactive)
REMARK    1  A    between atoms: C_2  and  N_10
REMARK    2  A    between atoms: C_3  and  O_25
REMARK    3  A    between atoms: N_9  and  C_15
REMARK    4  A    between atoms: C_16  and  C_24
REMARK    5  A    between atoms: O_25  and  C_27
REMARK    6  A    between atoms: C_29  and  C_34
REMARK                            x       y       z     vdW  Elec       q    Type
REMARK                         _______ _______ _______ _____ _____    ______ ____
ROOT
ATOM      1  F   UNL     1      35.981 -17.159 -21.793  0.00  0.00    -0.203 F 
ATOM      2  C   UNL     1      34.793 -18.743 -23.104  0.00  0.00    +0.079 C 
ATOM      3  C   UNL     1      34.107 -16.729 -24.877  0.00  0.00    +0.148 C 
ATOM      4  C   UNL     1      35.232 -17.451 -22.865  0.00  0.00    +0.157 C 
ATOM      5  C   UNL     1      34.020 -19.049 -24.212  0.00  0.00    +0.020 C 
ATOM      6  C   UNL     1      34.886 -16.437 -23.758  0.00  0.00    +0.068 C 
ATOM      7  C   UNL     1      33.674 -18.035 -25.104  0.00  0.00    +0.039 C 
ENDROOT
BRANCH   2  10
ATOM      8  O   UNL     1      33.419 -19.682 -20.623  0.00  0.00    -0.252 OA
ATOM      9  N   UNL     1      35.149 -21.249 -20.423  0.00  0.00    -0.268 N 
ATOM     10  N   UNL     1      35.143 -19.774 -22.200  0.00  0.00    -0.266 N 
ATOM     11  C   UNL     1      34.460 -20.178 -21.042  0.00  0.00    +0.308 C 
ATOM     12  H   UNL     1      35.973 -21.544 -20.874  0.00  0.00    +0.156 HD
ATOM     13  H   UNL     1      35.968 -20.269 -22.410  0.00  0.00    +0.156 HD
BRANCH   9  15
ATOM     14 CL   UNL     1      33.696 -24.187 -15.504  0.00  0.00    -0.082 Cl
ATOM     15  C   UNL     1      34.816 -21.942 -19.259  0.00  0.00    +0.052 C 
ATOM     16  C   UNL     1      35.424 -22.786 -17.078  0.00  0.00    +0.083 C 
ATOM     17  C   UNL     1      35.759 -22.093 -18.242  0.00  0.00    +0.019 C 
ATOM     18  C   UNL     1      33.538 -22.482 -19.112  0.00  0.00    +0.016 C 
ATOM     19  C   UNL     1      34.147 -23.325 -16.931  0.00  0.00    +0.062 C 
ATOM     20  C   UNL     1      33.204 -23.174 -17.947  0.00  0.00    +0.013 C 
BRANCH  16  24
ATOM     21  F   UNL     1      36.072 -22.424 -14.804  0.00  0.00    -0.166 F 
ATOM     22  F   UNL     1      36.821 -24.217 -15.766  0.00  0.00    -0.166 F 
ATOM     23  F   UNL     1      37.619 -22.272 -16.324  0.00  0.00    -0.166 F 
ATOM     24  C   UNL     1      36.462 -22.924 -16.012  0.00  0.00    +0.419 C 
ENDBRANCH  16  24
ENDBRANCH   9  15
ENDBRANCH   2  10
BRANCH   3  25
ATOM     25  O   UNL     1      33.770 -15.739 -25.749  0.00  0.00    -0.453 OA
BRANCH  25  27
ATOM     26  N   UNL     1      33.256 -11.910 -24.219  0.00  0.00    -0.239 NA
ATOM     27  C   UNL     1      33.597 -14.464 -25.239  0.00  0.00    +0.149 C 
ATOM     28  C   UNL     1      33.047 -14.307 -23.986  0.00  0.00    +0.061 C 
ATOM     29  C   UNL     1      32.897 -13.011 -23.519  0.00  0.00    +0.137 C 
ATOM     30  C   UNL     1      33.981 -13.378 -25.997  0.00  0.00    +0.058 C 
ATOM     31  C   UNL     1      33.789 -12.123 -25.443  0.00  0.00    +0.102 C 
BRANCH  29  34
ATOM     32  O   UNL     1      32.498 -13.578 -21.280  0.00  0.00    -0.268 OA
ATOM     33  N   UNL     1      31.604 -11.577 -22.038  0.00  0.00    -0.298 N 
ATOM     34  C   UNL     1      32.326 -12.765 -22.207  0.00  0.00    +0.264 C 
ATOM     35  C   UNL     1      30.996 -11.180 -20.789  0.00  0.00    +0.111 C 
ATOM     36  H   UNL     1      31.505 -10.979 -22.814  0.00  0.00    +0.150 HD
ENDBRANCH  29  34
ENDBRANCH  25  27
ENDBRANCH   3  25
TORSDOF 6
ENDMDL
MODEL 6
REMARK VINA RESULT:     -11.8      5.399      8.986
REMARK  Name = 11167602
REMARK  6 active torsions:
REMARK  status: ('A' for Active; 'I' for Inactive)
REMARK    1  A    between atoms: C_2  and  N_10
REMARK    2  A    between atoms: C_3  and  O_25
REMARK    3  A    between atoms: N_9  and  C_15
REMARK    4  A    between atoms: C_16  and  C_24
REMARK    5  A    between atoms: O_25  and  C_27
REMARK    6  A    between atoms: C_29  and  C_34
REMARK                            x       y       z     vdW  Elec       q    Type
REMARK                         _______ _______ _______ _____ _____    ______ ____
ROOT
ATOM      1  F   UNL     1      36.973 -21.062 -18.122  0.00  0.00    -0.203 F 
ATOM      2  C   UNL     1      35.023 -21.529 -19.394  0.00  0.00    +0.079 C 
ATOM      3  C   UNL     1      34.246 -23.380 -17.485  0.00  0.00    +0.148 C 
ATOM      4  C   UNL     1      35.828 -21.739 -18.286  0.00  0.00    +0.157 C 
ATOM      5  C   UNL     1      33.837 -22.225 -19.567  0.00  0.00    +0.020 C 
ATOM      6  C   UNL     1      35.436 -22.670 -17.325  0.00  0.00    +0.068 C 
ATOM      7  C   UNL     1      33.447 -23.157 -18.607  0.00  0.00    +0.039 C 
ENDROOT
BRANCH   2  10
ATOM      8  O   UNL     1      33.387 -19.590 -20.971  0.00  0.00    -0.252 OA
ATOM      9  N   UNL     1      35.396 -18.917 -21.970  0.00  0.00    -0.268 N 
ATOM     10  N   UNL     1      35.416 -20.584 -20.371  0.00  0.00    -0.266 N 
ATOM     11  C   UNL     1      34.604 -19.691 -21.087  0.00  0.00    +0.308 C 
ATOM     12  H   UNL     1      36.362 -19.107 -21.954  0.00  0.00    +0.156 HD
ATOM     13  H   UNL     1      36.380 -20.548 -20.573  0.00  0.00    +0.156 HD
BRANCH   9  15
ATOM     14 CL   UNL     1      33.678 -14.718 -25.760  0.00  0.00    -0.082 Cl
ATOM     15  C   UNL     1      34.989 -17.919 -22.857  0.00  0.00    +0.052 C 
ATOM     16  C   UNL     1      34.355 -15.627 -23.281  0.00  0.00    +0.083 C 
ATOM     17  C   UNL     1      34.761 -16.624 -22.393  0.00  0.00    +0.019 C 
ATOM     18  C   UNL     1      34.812 -18.219 -24.207  0.00  0.00    +0.016 C 
ATOM     19  C   UNL     1      34.178 -15.926 -24.631  0.00  0.00    +0.062 C 
ATOM     20  C   UNL     1      34.406 -17.222 -25.095  0.00  0.00    +0.013 C 
BRANCH  16  24
ATOM     21  F   UNL     1      34.747 -13.275 -23.464  0.00  0.00    -0.166 F 
ATOM     22  F   UNL     1      32.807 -13.893 -22.717  0.00  0.00    -0.166 F 
ATOM     23  F   UNL     1      34.572 -14.109 -21.465  0.00  0.00    -0.166 F 
ATOM     24  C   UNL     1      34.123 -14.252 -22.745  0.00  0.00    +0.419 C 
ENDBRANCH  16  24
ENDBRANCH   9  15
ENDBRANCH   2  10
BRANCH   3  25
ATOM     25  O   UNL     1      33.864 -24.289 -16.547  0.00  0.00    -0.453 OA
BRANCH  25  27
ATOM     26  N   UNL     1      30.768 -23.238 -13.982  0.00  0.00    -0.239 NA
ATOM     27  C   UNL     1      32.832 -23.938 -15.693  0.00  0.00    +0.149 C 
ATOM     28  C   UNL     1      31.608 -23.591 -16.221  0.00  0.00    +0.061 C 
ATOM     29  C   UNL     1      30.608 -23.250 -15.325  0.00  0.00    +0.137 C 
ATOM     30  C   UNL     1      33.054 -23.944 -14.332  0.00  0.00    +0.058 C 
ATOM     31  C   UNL     1      31.990 -23.586 -13.520  0.00  0.00    +0.102 C 
BRANCH  29  34
ATOM     32  O   UNL     1      28.592 -22.063 -15.168  0.00  0.00    -0.268 OA
ATOM     33  N   UNL     1      28.865 -23.442 -17.012  0.00  0.00    -0.298 N 
ATOM     34  C   UNL     1      29.290 -22.873 -15.805  0.00  0.00    +0.264 C 
ATOM     35  C   UNL     1      27.592 -23.150 -17.630  0.00  0.00    +0.111 C 
ATOM     36  H   UNL     1      29.466 -24.077 -17.464  0.00  0.00    +0.150 HD
ENDBRANCH  29  34
ENDBRANCH  25  27
ENDBRANCH   3  25
TORSDOF 6
ENDMDL
MODEL 7
REMARK VINA RESULT:     -11.6      2.422      3.599
REMARK  Name = 11167602
REMARK  6 active torsions:
REMARK  status: ('A' for Active; 'I' for Inactive)
REMARK    1  A    between atoms: C_2  and  N_10
REMARK    2  A    between atoms: C_3  and  O_25
REMARK    3  A    between atoms: N_9  and  C_15
REMARK    4  A    between atoms: C_16  and  C_24
REMARK    5  A    between atoms: O_25  and  C_27
REMARK    6  A    between atoms: C_29  and  C_34
REMARK                            x       y       z     vdW  Elec       q    Type
REMARK                         _______ _______ _______ _____ _____    ______ ____
ROOT
ATOM      1  F   UNL     1      34.209 -18.026 -25.365  0.00  0.00    -0.203 F 
ATOM      2  C   UNL     1      34.651 -16.690 -23.453  0.00  0.00    +0.079 C 
ATOM      3  C   UNL     1      35.297 -18.977 -22.031  0.00  0.00    +0.148 C 
ATOM      4  C   UNL     1      34.582 -17.922 -24.083  0.00  0.00    +0.157 C 
ATOM      5  C   UNL     1      35.038 -16.577 -22.127  0.00  0.00    +0.020 C 
ATOM      6  C   UNL     1      34.907 -19.073 -23.366  0.00  0.00    +0.068 C 
ATOM      7  C   UNL     1      35.362 -17.729 -21.411  0.00  0.00    +0.039 C 
ENDROOT
BRANCH   2  10
ATOM      8  O   UNL     1      34.655 -13.828 -22.597  0.00  0.00    -0.252 OA
ATOM      9  N   UNL     1      33.941 -13.320 -24.770  0.00  0.00    -0.268 N 
ATOM     10  N   UNL     1      34.323 -15.519 -24.177  0.00  0.00    -0.266 N 
ATOM     11  C   UNL     1      34.341 -14.190 -23.726  0.00  0.00    +0.308 C 
ATOM     12  H   UNL     1      33.719 -13.753 -25.625  0.00  0.00    +0.156 HD
ATOM     13  H   UNL     1      34.048 -15.654 -25.113  0.00  0.00    +0.156 HD
BRANCH   9  15
ATOM     14 CL   UNL     1      33.466  -7.428 -24.702  0.00  0.00    -0.082 Cl
ATOM     15  C   UNL     1      33.822 -11.930 -24.747  0.00  0.00    +0.052 C 
ATOM     16  C   UNL     1      32.907  -9.924 -23.760  0.00  0.00    +0.083 C 
ATOM     17  C   UNL     1      33.025 -11.314 -23.782  0.00  0.00    +0.019 C 
ATOM     18  C   UNL     1      34.501 -11.157 -25.688  0.00  0.00    +0.016 C 
ATOM     19  C   UNL     1      33.587  -9.151 -24.700  0.00  0.00    +0.062 C 
ATOM     20  C   UNL     1      34.383  -9.767 -25.665  0.00  0.00    +0.013 C 
BRANCH  16  24
ATOM     21  F   UNL     1      31.032  -8.541 -23.214  0.00  0.00    -0.166 F 
ATOM     22  F   UNL     1      31.437 -10.214 -21.894  0.00  0.00    -0.166 F 
ATOM     23  F   UNL     1      32.747  -8.478 -21.880  0.00  0.00    -0.166 F 
ATOM     24  C   UNL     1      32.045  -9.303 -22.709  0.00  0.00    +0.419 C 
ENDBRANCH  16  24
ENDBRANCH   9  15
ENDBRANCH   2  10
BRANCH   3  25
ATOM     25  O   UNL     1      35.615 -20.101 -21.331  0.00  0.00    -0.453 OA
BRANCH  25  27
ATOM     26  N   UNL     1      32.598 -21.914 -19.122  0.00  0.00    -0.239 NA
ATOM     27  C   UNL     1      34.610 -20.706 -20.595  0.00  0.00    +0.149 C 
ATOM     28  C   UNL     1      34.947 -21.591 -19.594  0.00  0.00    +0.061 C 
ATOM     29  C   UNL     1      33.905 -22.169 -18.886  0.00  0.00    +0.137 C 
ATOM     30  C   UNL     1      33.295 -20.409 -20.881  0.00  0.00    +0.058 C 
ATOM     31  C   UNL     1      32.326 -21.040 -20.117  0.00  0.00    +0.102 C 
BRANCH  29  34
ATOM     32  O   UNL     1      33.533 -24.170 -17.724  0.00  0.00    -0.268 OA
ATOM     33  N   UNL     1      35.207 -22.780 -16.923  0.00  0.00    -0.298 N 
ATOM     34  C   UNL     1      34.180 -23.111 -17.815  0.00  0.00    +0.264 C 
ATOM     35  C   UNL     1      35.615 -23.623 -15.823  0.00  0.00    +0.111 C 
ATOM     36  H   UNL     1      35.678 -21.925 -17.053  0.00  0.00    +0.150 HD
ENDBRANCH  29  34
ENDBRANCH  25  27
ENDBRANCH   3  25
TORSDOF 6
ENDMDL
MODEL 8
REMARK VINA RESULT:     -11.5      7.777     14.318
REMARK  Name = 11167602
REMARK  6 active torsions:
REMARK  status: ('A' for Active; 'I' for Inactive)
REMARK    1  A    between atoms: C_2  and  N_10
REMARK    2  A    between atoms: C_3  and  O_25
REMARK    3  A    between atoms: N_9  and  C_15
REMARK    4  A    between atoms: C_16  and  C_24
REMARK    5  A    between atoms: O_25  and  C_27
REMARK    6  A    between atoms: C_29  and  C_34
REMARK                            x       y       z     vdW  Elec       q    Type
REMARK                         _______ _______ _______ _____ _____    ______ ____
ROOT
ATOM      1  F   UNL     1      32.550 -21.112 -19.993  0.00  0.00    -0.203 F 
ATOM      2  C   UNL     1      34.859 -21.478 -19.580  0.00  0.00    +0.079 C 
ATOM      3  C   UNL     1      35.482 -19.731 -21.638  0.00  0.00    +0.148 C 
ATOM      4  C   UNL     1      33.834 -20.870 -20.287  0.00  0.00    +0.157 C 
ATOM      5  C   UNL     1      36.189 -21.229 -19.880  0.00  0.00    +0.020 C 
ATOM      6  C   UNL     1      34.148 -19.991 -21.323  0.00  0.00    +0.068 C 
ATOM      7  C   UNL     1      36.502 -20.351 -20.917  0.00  0.00    +0.039 C 
ENDROOT
BRANCH   2  10
ATOM      8  O   UNL     1      35.993 -21.685 -16.825  0.00  0.00    -0.252 OA
ATOM      9  N   UNL     1      34.510 -23.469 -16.496  0.00  0.00    -0.268 N 
ATOM     10  N   UNL     1      34.544 -22.369 -18.528  0.00  0.00    -0.266 N 
ATOM     11  C   UNL     1      35.110 -22.426 -17.244  0.00  0.00    +0.308 C 
ATOM     12  H   UNL     1      33.812 -23.982 -16.964  0.00  0.00    +0.156 HD
ATOM     13  H   UNL     1      33.842 -23.032 -18.720  0.00  0.00    +0.156 HD
BRANCH   9  15
ATOM     14 CL   UNL     1      35.599 -25.138 -10.932  0.00  0.00    -0.082 Cl
ATOM     15  C   UNL     1      34.776 -23.865 -15.186  0.00  0.00    +0.052 C 
ATOM     16  C   UNL     1      36.343 -24.589 -13.495  0.00  0.00    +0.083 C 
ATOM     17  C   UNL     1      36.078 -24.194 -14.807  0.00  0.00    +0.019 C 
ATOM     18  C   UNL     1      33.740 -23.932 -14.254  0.00  0.00    +0.016 C 
ATOM     19  C   UNL     1      35.308 -24.655 -12.564  0.00  0.00    +0.062 C 
ATOM     20  C   UNL     1      34.006 -24.327 -12.943  0.00  0.00    +0.013 C 
BRANCH  16  24
ATOM     21  F   UNL     1      38.268 -24.133 -12.150  0.00  0.00    -0.166 F 
ATOM     22  F   UNL     1      37.900 -26.206 -12.669  0.00  0.00    -0.166 F 
ATOM     23  F   UNL     1      38.606 -24.817 -14.186  0.00  0.00    -0.166 F 
ATOM     24  C   UNL     1      37.751 -24.930 -13.129  0.00  0.00    +0.419 C 
ENDBRANCH  16  24
ENDBRANCH   9  15
ENDBRANCH   2  10
BRANCH   3  25
ATOM     25  O   UNL     1      35.789 -18.873 -22.649  0.00  0.00    -0.453 OA
BRANCH  25  27
ATOM     26  N   UNL     1      34.137 -15.063 -22.512  0.00  0.00    -0.239 NA
ATOM     27  C   UNL     1      35.239 -17.603 -22.604  0.00  0.00    +0.149 C 
ATOM     28  C   UNL     1      34.871 -16.986 -23.780  0.00  0.00    +0.061 C 
ATOM     29  C   UNL     1      34.324 -15.716 -23.681  0.00  0.00    +0.137 C 
ATOM     30  C   UNL     1      35.072 -16.985 -21.383  0.00  0.00    +0.058 C 
ATOM     31  C   UNL     1      34.517 -15.716 -21.391  0.00  0.00    +0.102 C 
BRANCH  29  34
ATOM     32  O   UNL     1      33.646 -15.619 -25.923  0.00  0.00    -0.268 OA
ATOM     33  N   UNL     1      33.808 -13.607 -24.781  0.00  0.00    -0.298 N 
ATOM     34  C   UNL     1      33.911 -15.001 -24.876  0.00  0.00    +0.264 C 
ATOM     35  C   UNL     1      33.388 -12.760 -25.873  0.00  0.00    +0.111 C 
ATOM     36  H   UNL     1      34.035 -13.182 -23.922  0.00  0.00    +0.150 HD
ENDBRANCH  29  34
ENDBRANCH  25  27
ENDBRANCH   3  25
TORSDOF 6
ENDMDL
MODEL 9
REMARK VINA RESULT:     -11.4      6.043     12.699
REMARK  Name = 11167602
REMARK  6 active torsions:
REMARK  status: ('A' for Active; 'I' for Inactive)
REMARK    1  A    between atoms: C_2  and  N_10
REMARK    2  A    between atoms: C_3  and  O_25
REMARK    3  A    between atoms: N_9  and  C_15
REMARK    4  A    between atoms: C_16  and  C_24
REMARK    5  A    between atoms: O_25  and  C_27
REMARK    6  A    between atoms: C_29  and  C_34
REMARK                            x       y       z     vdW  Elec       q    Type
REMARK                         _______ _______ _______ _____ _____    ______ ____
ROOT
ATOM      1  F   UNL     1      35.715 -17.113 -21.588  0.00  0.00    -0.203 F 
ATOM      2  C   UNL     1      34.751 -18.707 -23.060  0.00  0.00    +0.079 C 
ATOM      3  C   UNL     1      34.064 -16.659 -24.794  0.00  0.00    +0.148 C 
ATOM      4  C   UNL     1      35.076 -17.401 -22.730  0.00  0.00    +0.157 C 
ATOM      5  C   UNL     1      34.091 -19.010 -24.240  0.00  0.00    +0.020 C 
ATOM      6  C   UNL     1      34.730 -16.371 -23.603  0.00  0.00    +0.068 C 
ATOM      7  C   UNL     1      33.744 -17.979 -25.113  0.00  0.00    +0.039 C 
ENDROOT
BRANCH   2  10
ATOM      8  O   UNL     1      33.398 -19.671 -20.578  0.00  0.00    -0.252 OA
ATOM      9  N   UNL     1      35.115 -21.258 -20.423  0.00  0.00    -0.268 N 
ATOM     10  N   UNL     1      35.101 -19.756 -22.177  0.00  0.00    -0.266 N 
ATOM     11  C   UNL     1      34.429 -20.171 -21.017  0.00  0.00    +0.308 C 
ATOM     12  H   UNL     1      35.930 -21.554 -20.889  0.00  0.00    +0.156 HD
ATOM     13  H   UNL     1      35.919 -20.255 -22.405  0.00  0.00    +0.156 HD
BRANCH   9  15
ATOM     14 CL   UNL     1      33.693 -24.259 -15.533  0.00  0.00    -0.082 Cl
ATOM     15  C   UNL     1      34.788 -21.965 -19.266  0.00  0.00    +0.052 C 
ATOM     16  C   UNL     1      35.397 -22.803 -17.083  0.00  0.00    +0.083 C 
ATOM     17  C   UNL     1      35.725 -22.096 -18.240  0.00  0.00    +0.019 C 
ATOM     18  C   UNL     1      33.525 -22.542 -19.134  0.00  0.00    +0.016 C 
ATOM     19  C   UNL     1      34.134 -23.378 -16.951  0.00  0.00    +0.062 C 
ATOM     20  C   UNL     1      33.198 -23.248 -17.977  0.00  0.00    +0.013 C 
BRANCH  16  24
ATOM     21  F   UNL     1      36.828 -24.200 -15.770  0.00  0.00    -0.166 F 
ATOM     22  F   UNL     1      37.574 -22.227 -16.275  0.00  0.00    -0.166 F 
ATOM     23  F   UNL     1      35.983 -22.444 -14.808  0.00  0.00    -0.166 F 
ATOM     24  C   UNL     1      36.428 -22.918 -16.007  0.00  0.00    +0.419 C 
ENDBRANCH  16  24
ENDBRANCH   9  15
ENDBRANCH   2  10
BRANCH   3  25
ATOM     25  O   UNL     1      33.726 -15.653 -25.647  0.00  0.00    -0.453 OA
BRANCH  25  27
ATOM     26  N   UNL     1      33.354 -11.827 -24.067  0.00  0.00    -0.239 NA
ATOM     27  C   UNL     1      33.603 -14.378 -25.121  0.00  0.00    +0.149 C 
ATOM     28  C   UNL     1      34.102 -13.305 -25.827  0.00  0.00    +0.061 C 
ATOM     29  C   UNL     1      33.952 -12.050 -25.258  0.00  0.00    +0.137 C 
ATOM     30  C   UNL     1      32.983 -14.211 -23.900  0.00  0.00    +0.058 C 
ATOM     31  C   UNL     1      32.884 -12.916 -23.417  0.00  0.00    +0.102 C 
BRANCH  29  34
ATOM     32  O   UNL     1      34.832 -10.941 -27.127  0.00  0.00    -0.268 OA
ATOM     33  N   UNL     1      34.461  -9.671 -25.222  0.00  0.00    -0.298 N 
ATOM     34  C   UNL     1      34.452 -10.871 -25.943  0.00  0.00    +0.264 C 
ATOM     35  C   UNL     1      34.906  -8.410 -25.771  0.00  0.00    +0.111 C 
ATOM     36  H   UNL     1      34.148  -9.687 -24.289  0.00  0.00    +0.150 HD
ENDBRANCH  29  34
ENDBRANCH  25  27
ENDBRANCH   3  25
TORSDOF 6
ENDMDL
