MODEL 1
REMARK VINA RESULT:     -11.8      0.000      0.000
REMARK  Name = 23729147
REMARK  5 active torsions:
REMARK  status: ('A' for Active; 'I' for Inactive)
REMARK    1  A    between atoms: O_1  and  C_6
REMARK    2  A    between atoms: O_1  and  C_18
REMARK    3  A    between atoms: C_18  and  C_20
REMARK    4  A    between atoms: N_19  and  C_26
REMARK    5  A    between atoms: C_26  and  C_28
REMARK                            x       y       z     vdW  Elec       q    Type
REMARK                         _______ _______ _______ _____ _____    ______ ____
ROOT
ATOM      1  O   UNL     1      34.179 -13.377 -23.616  0.00  0.00    -0.479 OA
ENDROOT
BRANCH   1   6
ATOM      2  N   UNL     1      31.638  -9.307 -22.936  0.00  0.00    -0.332 NA
ATOM      3  N   UNL     1      33.348  -9.318 -24.634  0.00  0.00    -0.317 NA
ATOM      4  N   UNL     1      34.634 -11.219 -25.051  0.00  0.00    -0.335 N 
ATOM      5  N   UNL     1      32.067  -7.399 -24.231  0.00  0.00    -0.283 N 
ATOM      6  C   UNL     1      33.208 -12.635 -22.988  0.00  0.00    +0.130 C 
ATOM      7  C   UNL     1      32.924 -11.297 -23.312  0.00  0.00    +0.177 C 
ATOM      8  C   UNL     1      32.490 -13.275 -21.983  0.00  0.00    +0.033 C 
ATOM      9  C   UNL     1      31.919 -10.587 -22.634  0.00  0.00    +0.137 C 
ATOM     10  C   UNL     1      33.604 -10.599 -24.307  0.00  0.00    +0.181 C 
ATOM     11  C   UNL     1      31.494 -12.583 -21.305  0.00  0.00    +0.005 C 
ATOM     12  C   UNL     1      31.217 -11.253 -21.633  0.00  0.00    +0.030 C 
ATOM     13  C   UNL     1      32.368  -8.742 -23.920  0.00  0.00    +0.197 C 
ATOM     14  H   UNL     1      35.107 -10.715 -25.751  0.00  0.00    +0.144 HD
ATOM     15  H   UNL     1      34.878 -12.155 -24.869  0.00  0.00    +0.144 HD
ATOM     16  H   UNL     1      31.357  -6.926 -23.739  0.00  0.00    +0.156 HD
ATOM     17  H   UNL     1      32.566  -6.934 -24.941  0.00  0.00    +0.156 HD
ENDBRANCH   1   6
BRANCH   1  18
ATOM     18  C   UNL     1      33.768 -14.585 -24.228  0.00  0.00    +0.205 C 
BRANCH  18  20
ATOM     19  N   UNL     1      34.942 -18.294 -22.349  0.00  0.00    +0.390 N 
ATOM     20  C   UNL     1      34.657 -15.715 -23.715  0.00  0.00    +0.040 C 
ATOM     21  C   UNL     1      34.299 -17.046 -24.385  0.00  0.00    -0.019 C 
ATOM     22  C   UNL     1      34.546 -15.856 -22.194  0.00  0.00    -0.019 C 
ATOM     23  C   UNL     1      35.117 -18.201 -23.805  0.00  0.00    -0.077 C 
ATOM     24  C   UNL     1      35.356 -17.051 -21.685  0.00  0.00    -0.077 C 
ATOM     25  H   UNL     1      33.950 -18.436 -22.160  0.00  0.00    -0.079 HD
BRANCH  19  26
ATOM     26  C   UNL     1      35.689 -19.433 -21.816  0.00  0.00    -0.048 C 
BRANCH  26  28
ATOM     27  F   UNL     1      36.742 -21.445 -20.120  0.00  0.00    -0.205 F 
ATOM     28  C   UNL     1      34.827 -20.312 -20.949  0.00  0.00    -0.016 C 
ATOM     29  C   UNL     1      35.412 -21.285 -20.137  0.00  0.00    +0.134 C 
ATOM     30  C   UNL     1      33.442 -20.154 -20.961  0.00  0.00    -0.004 C 
ATOM     31  C   UNL     1      34.610 -22.099 -19.337  0.00  0.00    +0.029 C 
ATOM     32  C   UNL     1      32.640 -20.967 -20.160  0.00  0.00    -0.000 C 
ATOM     33  C   UNL     1      33.224 -21.940 -19.348  0.00  0.00    +0.002 C 
ENDBRANCH  26  28
ENDBRANCH  19  26
ENDBRANCH  18  20
ENDBRANCH   1  18
TORSDOF 5
ENDMDL
MODEL 2
REMARK VINA RESULT:     -11.7      5.423     11.625
REMARK  Name = 23729147
REMARK  5 active torsions:
REMARK  status: ('A' for Active; 'I' for Inactive)
REMARK    1  A    between atoms: O_1  and  C_6
REMARK    2  A    between atoms: O_1  and  C_18
REMARK    3  A    between atoms: C_18  and  C_20
REMARK    4  A    between atoms: N_19  and  C_26
REMARK    5  A    between atoms: C_26  and  C_28
REMARK                            x       y       z     vdW  Elec       q    Type
REMARK                         _______ _______ _______ _____ _____    ______ ____
ROOT
ATOM      1  O   UNL     1      34.769 -22.772 -17.534  0.00  0.00    -0.479 OA
ENDROOT
BRANCH   1   6
ATOM      2  N   UNL     1      35.852 -24.257 -13.050  0.00  0.00    -0.332 NA
ATOM      3  N   UNL     1      37.653 -23.555 -14.490  0.00  0.00    -0.317 NA
ATOM      4  N   UNL     1      37.252 -22.821 -16.667  0.00  0.00    -0.335 N 
ATOM      5  N   UNL     1      38.076 -24.290 -12.305  0.00  0.00    -0.283 N 
ATOM      6  C   UNL     1      34.430 -23.249 -16.291  0.00  0.00    +0.130 C 
ATOM      7  C   UNL     1      35.369 -23.513 -15.279  0.00  0.00    +0.177 C 
ATOM      8  C   UNL     1      33.076 -23.472 -16.060  0.00  0.00    +0.033 C 
ATOM      9  C   UNL     1      34.963 -24.002 -14.026  0.00  0.00    +0.137 C 
ATOM     10  C   UNL     1      36.736 -23.310 -15.444  0.00  0.00    +0.181 C 
ATOM     11  C   UNL     1      32.663 -23.957 -14.825  0.00  0.00    +0.005 C 
ATOM     12  C   UNL     1      33.602 -24.216 -13.823  0.00  0.00    +0.030 C 
ATOM     13  C   UNL     1      37.149 -24.020 -13.335  0.00  0.00    +0.197 C 
ATOM     14  H   UNL     1      38.221 -22.682 -16.772  0.00  0.00    +0.144 HD
ATOM     15  H   UNL     1      36.643 -22.618 -17.413  0.00  0.00    +0.144 HD
ATOM     16  H   UNL     1      37.763 -24.633 -11.438  0.00  0.00    +0.156 HD
ATOM     17  H   UNL     1      39.037 -24.135 -12.455  0.00  0.00    +0.156 HD
ENDBRANCH   1   6
BRANCH   1  18
ATOM     18  C   UNL     1      33.727 -22.665 -18.486  0.00  0.00    +0.205 C 
BRANCH  18  20
ATOM     19  N   UNL     1      35.224 -19.557 -21.087  0.00  0.00    +0.390 N 
ATOM     20  C   UNL     1      34.279 -21.981 -19.734  0.00  0.00    +0.040 C 
ATOM     21  C   UNL     1      35.660 -21.373 -19.465  0.00  0.00    -0.019 C 
ATOM     22  C   UNL     1      33.324 -20.892 -20.233  0.00  0.00    -0.019 C 
ATOM     23  C   UNL     1      36.176 -20.601 -20.680  0.00  0.00    -0.077 C 
ATOM     24  C   UNL     1      33.917 -20.134 -21.424  0.00  0.00    -0.077 C 
ATOM     25  H   UNL     1      35.095 -18.925 -20.298  0.00  0.00    -0.079 HD
BRANCH  19  26
ATOM     26  C   UNL     1      35.754 -18.795 -22.217  0.00  0.00    -0.048 C 
BRANCH  26  28
ATOM     27  F   UNL     1      35.233 -17.413 -24.637  0.00  0.00    -0.205 F 
ATOM     28  C   UNL     1      35.194 -17.398 -22.262  0.00  0.00    -0.016 C 
ATOM     29  C   UNL     1      34.962 -16.776 -23.490  0.00  0.00    +0.134 C 
ATOM     30  C   UNL     1      34.908 -16.726 -21.075  0.00  0.00    -0.004 C 
ATOM     31  C   UNL     1      34.443 -15.481 -23.528  0.00  0.00    +0.029 C 
ATOM     32  C   UNL     1      34.390 -15.432 -21.113  0.00  0.00    -0.000 C 
ATOM     33  C   UNL     1      34.158 -14.809 -22.339  0.00  0.00    +0.002 C 
ENDBRANCH  26  28
ENDBRANCH  19  26
ENDBRANCH  18  20
ENDBRANCH   1  18
TORSDOF 5
ENDMDL
MODEL 3
REMARK VINA RESULT:     -11.6      1.190      2.173
REMARK  Name = 23729147
REMARK  5 active torsions:
REMARK  status: ('A' for Active; 'I' for Inactive)
REMARK    1  A    between atoms: O_1  and  C_6
REMARK    2  A    between atoms: O_1  and  C_18
REMARK    3  A    between atoms: C_18  and  C_20
REMARK    4  A    between atoms: N_19  and  C_26
REMARK    5  A    between atoms: C_26  and  C_28
REMARK                            x       y       z     vdW  Elec       q    Type
REMARK                         _______ _______ _______ _____ _____    ______ ____
ROOT
ATOM      1  O   UNL     1      33.128 -13.863 -23.907  0.00  0.00    -0.479 OA
ENDROOT
BRANCH   1   6
ATOM      2  N   UNL     1      32.637  -9.112 -23.083  0.00  0.00    -0.332 NA
ATOM      3  N   UNL     1      31.554 -10.652 -21.579  0.00  0.00    -0.317 NA
ATOM      4  N   UNL     1      31.720 -12.960 -21.876  0.00  0.00    -0.335 N 
ATOM      5  N   UNL     1      31.376  -8.337 -21.264  0.00  0.00    -0.283 N 
ATOM      6  C   UNL     1      33.362 -12.542 -24.204  0.00  0.00    +0.130 C 
ATOM      7  C   UNL     1      32.849 -11.474 -23.447  0.00  0.00    +0.177 C 
ATOM      8  C   UNL     1      34.151 -12.288 -25.321  0.00  0.00    +0.033 C 
ATOM      9  C   UNL     1      33.122 -10.142 -23.801  0.00  0.00    +0.137 C 
ATOM     10  C   UNL     1      32.055 -11.659 -22.319  0.00  0.00    +0.181 C 
ATOM     11  C   UNL     1      34.426 -10.974 -25.681  0.00  0.00    +0.005 C 
ATOM     12  C   UNL     1      33.914  -9.917 -24.923  0.00  0.00    +0.030 C 
ATOM     13  C   UNL     1      31.880  -9.424 -22.012  0.00  0.00    +0.197 C 
ATOM     14  H   UNL     1      31.157 -13.078 -21.076  0.00  0.00    +0.144 HD
ATOM     15  H   UNL     1      32.050 -13.748 -22.366  0.00  0.00    +0.144 HD
ATOM     16  H   UNL     1      31.583  -7.415 -21.535  0.00  0.00    +0.156 HD
ATOM     17  H   UNL     1      30.817  -8.503 -20.470  0.00  0.00    +0.156 HD
ENDBRANCH   1   6
BRANCH   1  18
ATOM     18  C   UNL     1      33.492 -14.816 -24.888  0.00  0.00    +0.205 C 
BRANCH  18  20
ATOM     19  N   UNL     1      34.855 -18.152 -22.507  0.00  0.00    +0.390 N 
ATOM     20  C   UNL     1      34.434 -15.833 -24.250  0.00  0.00    +0.040 C 
ATOM     21  C   UNL     1      34.078 -17.260 -24.679  0.00  0.00    -0.019 C 
ATOM     22  C   UNL     1      34.403 -15.729 -22.722  0.00  0.00    -0.019 C 
ATOM     23  C   UNL     1      34.954 -18.292 -23.966  0.00  0.00    -0.077 C 
ATOM     24  C   UNL     1      35.269 -16.812 -22.073  0.00  0.00    -0.077 C 
ATOM     25  H   UNL     1      33.878 -18.280 -22.245  0.00  0.00    -0.079 HD
BRANCH  19  26
ATOM     26  C   UNL     1      35.657 -19.177 -21.840  0.00  0.00    -0.048 C 
BRANCH  26  28
ATOM     27  F   UNL     1      36.736 -21.217 -20.194  0.00  0.00    -0.205 F 
ATOM     28  C   UNL     1      34.805 -20.115 -21.027  0.00  0.00    -0.016 C 
ATOM     29  C   UNL     1      35.402 -21.098 -20.237  0.00  0.00    +0.134 C 
ATOM     30  C   UNL     1      33.416 -20.000 -21.065  0.00  0.00    -0.004 C 
ATOM     31  C   UNL     1      34.609 -21.966 -19.486  0.00  0.00    +0.029 C 
ATOM     32  C   UNL     1      32.623 -20.867 -20.314  0.00  0.00    -0.000 C 
ATOM     33  C   UNL     1      33.219 -21.851 -19.525  0.00  0.00    +0.002 C 
ENDBRANCH  26  28
ENDBRANCH  19  26
ENDBRANCH  18  20
ENDBRANCH   1  18
TORSDOF 5
ENDMDL
MODEL 4
REMARK VINA RESULT:     -11.5      8.300     13.582
REMARK  Name = 23729147
REMARK  5 active torsions:
REMARK  status: ('A' for Active; 'I' for Inactive)
REMARK    1  A    between atoms: O_1  and  C_6
REMARK    2  A    between atoms: O_1  and  C_18
REMARK    3  A    between atoms: C_18  and  C_20
REMARK    4  A    between atoms: N_19  and  C_26
REMARK    5  A    between atoms: C_26  and  C_28
REMARK                            x       y       z     vdW  Elec       q    Type
REMARK                         _______ _______ _______ _____ _____    ______ ____
ROOT
ATOM      1  O   UNL     1      34.362 -25.033 -13.396  0.00  0.00    -0.479 OA
ENDROOT
BRANCH   1   6
ATOM      2  N   UNL     1      39.208 -25.074 -13.414  0.00  0.00    -0.332 NA
ATOM      3  N   UNL     1      38.045 -26.604 -14.869  0.00  0.00    -0.317 NA
ATOM      4  N   UNL     1      35.715 -26.674 -14.945  0.00  0.00    -0.335 N 
ATOM      5  N   UNL     1      40.387 -26.548 -14.806  0.00  0.00    -0.283 N 
ATOM      6  C   UNL     1      35.588 -24.585 -12.967  0.00  0.00    +0.130 C 
ATOM      7  C   UNL     1      36.809 -25.093 -13.443  0.00  0.00    +0.177 C 
ATOM      8  C   UNL     1      35.580 -23.574 -12.011  0.00  0.00    +0.033 C 
ATOM      9  C   UNL     1      38.033 -24.595 -12.966  0.00  0.00    +0.137 C 
ATOM     10  C   UNL     1      36.888 -26.102 -14.399  0.00  0.00    +0.181 C 
ATOM     11  C   UNL     1      36.785 -23.075 -11.531  0.00  0.00    +0.005 C 
ATOM     12  C   UNL     1      37.995 -23.584 -12.010  0.00  0.00    +0.030 C 
ATOM     13  C   UNL     1      39.150 -26.052 -14.341  0.00  0.00    +0.197 C 
ATOM     14  H   UNL     1      35.784 -27.386 -15.620  0.00  0.00    +0.144 HD
ATOM     15  H   UNL     1      34.830 -26.358 -14.651  0.00  0.00    +0.144 HD
ATOM     16  H   UNL     1      41.229 -26.181 -14.455  0.00  0.00    +0.156 HD
ATOM     17  H   UNL     1      40.407 -27.262 -15.485  0.00  0.00    +0.156 HD
ENDBRANCH   1   6
BRANCH   1  18
ATOM     18  C   UNL     1      33.403 -24.050 -13.738  0.00  0.00    +0.205 C 
BRANCH  18  20
ATOM     19  N   UNL     1      33.061 -22.636 -17.805  0.00  0.00    +0.390 N 
ATOM     20  C   UNL     1      33.208 -24.069 -15.252  0.00  0.00    +0.040 C 
ATOM     21  C   UNL     1      34.453 -23.545 -15.974  0.00  0.00    -0.019 C 
ATOM     22  C   UNL     1      31.986 -23.239 -15.660  0.00  0.00    -0.019 C 
ATOM     23  C   UNL     1      34.230 -23.467 -17.486  0.00  0.00    -0.077 C 
ATOM     24  C   UNL     1      31.843 -23.171 -17.182  0.00  0.00    -0.077 C 
ATOM     25  H   UNL     1      33.224 -21.704 -17.426  0.00  0.00    -0.079 HD
BRANCH  19  26
ATOM     26  C   UNL     1      32.890 -22.529 -19.254  0.00  0.00    -0.048 C 
BRANCH  26  28
ATOM     27  F   UNL     1      32.119 -20.350 -20.895  0.00  0.00    -0.205 F 
ATOM     28  C   UNL     1      33.877 -21.570 -19.865  0.00  0.00    -0.016 C 
ATOM     29  C   UNL     1      33.429 -20.518 -20.664  0.00  0.00    +0.134 C 
ATOM     30  C   UNL     1      35.241 -21.737 -19.632  0.00  0.00    -0.004 C 
ATOM     31  C   UNL     1      34.347 -19.632 -21.230  0.00  0.00    +0.029 C 
ATOM     32  C   UNL     1      36.159 -20.851 -20.197  0.00  0.00    -0.000 C 
ATOM     33  C   UNL     1      35.712 -19.799 -20.997  0.00  0.00    +0.002 C 
ENDBRANCH  26  28
ENDBRANCH  19  26
ENDBRANCH  18  20
ENDBRANCH   1  18
TORSDOF 5
ENDMDL
MODEL 5
REMARK VINA RESULT:     -11.4      4.997     10.877
REMARK  Name = 23729147
REMARK  5 active torsions:
REMARK  status: ('A' for Active; 'I' for Inactive)
REMARK    1  A    between atoms: O_1  and  C_6
REMARK    2  A    between atoms: O_1  and  C_18
REMARK    3  A    between atoms: C_18  and  C_20
REMARK    4  A    between atoms: N_19  and  C_26
REMARK    5  A    between atoms: C_26  and  C_28
REMARK                            x       y       z     vdW  Elec       q    Type
REMARK                         _______ _______ _______ _____ _____    ______ ____
ROOT
ATOM      1  O   UNL     1      35.230 -22.328 -18.549  0.00  0.00    -0.479 OA
ENDROOT
BRANCH   1   6
ATOM      2  N   UNL     1      32.585 -23.881 -14.797  0.00  0.00    -0.332 NA
ATOM      3  N   UNL     1      31.463 -23.442 -16.885  0.00  0.00    -0.317 NA
ATOM      4  N   UNL     1      32.633 -22.691 -18.758  0.00  0.00    -0.335 N 
ATOM      5  N   UNL     1      30.271 -24.196 -15.013  0.00  0.00    -0.283 N 
ATOM      6  C   UNL     1      35.083 -22.741 -17.247  0.00  0.00    +0.130 C 
ATOM      7  C   UNL     1      33.849 -23.111 -16.685  0.00  0.00    +0.177 C 
ATOM      8  C   UNL     1      36.240 -22.783 -16.475  0.00  0.00    +0.033 C 
ATOM      9  C   UNL     1      33.761 -23.525 -15.346  0.00  0.00    +0.137 C 
ATOM     10  C   UNL     1      32.656 -23.093 -17.402  0.00  0.00    +0.181 C 
ATOM     11  C   UNL     1      36.165 -23.190 -15.149  0.00  0.00    +0.005 C 
ATOM     12  C   UNL     1      34.934 -23.557 -14.597  0.00  0.00    +0.030 C 
ATOM     13  C   UNL     1      31.501 -23.820 -15.597  0.00  0.00    +0.197 C 
ATOM     14  H   UNL     1      31.783 -22.683 -19.254  0.00  0.00    +0.144 HD
ATOM     15  H   UNL     1      33.467 -22.422 -19.206  0.00  0.00    +0.144 HD
ATOM     16  H   UNL     1      30.239 -24.482 -14.073  0.00  0.00    +0.156 HD
ATOM     17  H   UNL     1      29.445 -24.173 -15.549  0.00  0.00    +0.156 HD
ENDBRANCH   1   6
BRANCH   1  18
ATOM     18  C   UNL     1      36.385 -21.569 -18.855  0.00  0.00    +0.205 C 
BRANCH  18  20
ATOM     19  N   UNL     1      35.412 -18.637 -21.874  0.00  0.00    +0.390 N 
ATOM     20  C   UNL     1      36.198 -20.934 -20.230  0.00  0.00    +0.040 C 
ATOM     21  C   UNL     1      37.085 -19.694 -20.391  0.00  0.00    -0.019 C 
ATOM     22  C   UNL     1      34.732 -20.555 -20.466  0.00  0.00    -0.019 C 
ATOM     23  C   UNL     1      36.829 -18.995 -21.727  0.00  0.00    -0.077 C 
ATOM     24  C   UNL     1      34.554 -19.827 -21.801  0.00  0.00    -0.077 C 
ATOM     25  H   UNL     1      35.161 -18.021 -21.102  0.00  0.00    -0.079 HD
BRANCH  19  26
ATOM     26  C   UNL     1      35.193 -17.924 -23.133  0.00  0.00    -0.048 C 
BRANCH  26  28
ATOM     27  F   UNL     1      34.772 -16.077 -25.242  0.00  0.00    -0.205 F 
ATOM     28  C   UNL     1      34.798 -16.489 -22.903  0.00  0.00    -0.016 C 
ATOM     29  C   UNL     1      34.608 -15.633 -23.988  0.00  0.00    +0.134 C 
ATOM     30  C   UNL     1      34.625 -16.017 -21.603  0.00  0.00    -0.004 C 
ATOM     31  C   UNL     1      34.244 -14.303 -23.771  0.00  0.00    +0.029 C 
ATOM     32  C   UNL     1      34.261 -14.688 -21.386  0.00  0.00    -0.000 C 
ATOM     33  C   UNL     1      34.071 -13.831 -22.470  0.00  0.00    +0.002 C 
ENDBRANCH  26  28
ENDBRANCH  19  26
ENDBRANCH  18  20
ENDBRANCH   1  18
TORSDOF 5
ENDMDL
MODEL 6
REMARK VINA RESULT:     -11.3      6.037     11.611
REMARK  Name = 23729147
REMARK  5 active torsions:
REMARK  status: ('A' for Active; 'I' for Inactive)
REMARK    1  A    between atoms: O_1  and  C_6
REMARK    2  A    between atoms: O_1  and  C_18
REMARK    3  A    between atoms: C_18  and  C_20
REMARK    4  A    between atoms: N_19  and  C_26
REMARK    5  A    between atoms: C_26  and  C_28
REMARK                            x       y       z     vdW  Elec       q    Type
REMARK                         _______ _______ _______ _____ _____    ______ ____
ROOT
ATOM      1  O   UNL     1      33.859 -23.006 -17.430  0.00  0.00    -0.479 OA
ENDROOT
BRANCH   1   6
ATOM      2  N   UNL     1      33.844 -24.351 -12.773  0.00  0.00    -0.332 NA
ATOM      3  N   UNL     1      35.963 -23.886 -13.823  0.00  0.00    -0.317 NA
ATOM      4  N   UNL     1      36.094 -23.231 -16.058  0.00  0.00    -0.335 N 
ATOM      5  N   UNL     1      35.852 -24.542 -11.577  0.00  0.00    -0.283 N 
ATOM      6  C   UNL     1      33.226 -23.388 -16.271  0.00  0.00    +0.130 C 
ATOM      7  C   UNL     1      33.906 -23.681 -15.076  0.00  0.00    +0.177 C 
ATOM      8  C   UNL     1      31.839 -23.478 -16.323  0.00  0.00    +0.033 C 
ATOM      9  C   UNL     1      33.204 -24.068 -13.922  0.00  0.00    +0.137 C 
ATOM     10  C   UNL     1      35.291 -23.610 -14.957  0.00  0.00    +0.181 C 
ATOM     11  C   UNL     1      31.134 -23.860 -15.188  0.00  0.00    +0.005 C 
ATOM     12  C   UNL     1      31.817 -24.150 -14.003  0.00  0.00    +0.030 C 
ATOM     13  C   UNL     1      35.189 -24.244 -12.786  0.00  0.00    +0.197 C 
ATOM     14  H   UNL     1      37.072 -23.184 -15.961  0.00  0.00    +0.144 HD
ATOM     15  H   UNL     1      35.674 -23.013 -16.922  0.00  0.00    +0.144 HD
ATOM     16  H   UNL     1      35.335 -24.811 -10.784  0.00  0.00    +0.156 HD
ATOM     17  H   UNL     1      36.834 -24.481 -11.526  0.00  0.00    +0.156 HD
ENDBRANCH   1   6
BRANCH   1  18
ATOM     18  C   UNL     1      33.045 -22.807 -18.570  0.00  0.00    +0.205 C 
BRANCH  18  20
ATOM     19  N   UNL     1      35.407 -19.811 -20.595  0.00  0.00    +0.390 N 
ATOM     20  C   UNL     1      33.883 -22.130 -19.652  0.00  0.00    +0.040 C 
ATOM     21  C   UNL     1      35.289 -21.805 -19.137  0.00  0.00    -0.019 C 
ATOM     22  C   UNL     1      33.206 -20.850 -20.152  0.00  0.00    -0.019 C 
ATOM     23  C   UNL     1      36.101 -21.038 -20.182  0.00  0.00    -0.077 C 
ATOM     24  C   UNL     1      34.087 -20.114 -21.164  0.00  0.00    -0.077 C 
ATOM     25  H   UNL     1      35.267 -19.234 -19.766  0.00  0.00    -0.079 HD
BRANCH  19  26
ATOM     26  C   UNL     1      36.219 -19.063 -21.556  0.00  0.00    -0.048 C 
BRANCH  26  28
ATOM     27  F   UNL     1      35.422 -16.364 -21.900  0.00  0.00    -0.205 F 
ATOM     28  C   UNL     1      35.404 -18.589 -22.730  0.00  0.00    -0.016 C 
ATOM     29  C   UNL     1      35.046 -17.245 -22.837  0.00  0.00    +0.134 C 
ATOM     30  C   UNL     1      35.006 -19.497 -23.710  0.00  0.00    -0.004 C 
ATOM     31  C   UNL     1      34.289 -16.810 -23.926  0.00  0.00    +0.029 C 
ATOM     32  C   UNL     1      34.250 -19.063 -24.798  0.00  0.00    -0.000 C 
ATOM     33  C   UNL     1      33.891 -17.719 -24.906  0.00  0.00    +0.002 C 
ENDBRANCH  26  28
ENDBRANCH  19  26
ENDBRANCH  18  20
ENDBRANCH   1  18
TORSDOF 5
ENDMDL
MODEL 7
REMARK VINA RESULT:     -11.2      5.633     11.392
REMARK  Name = 23729147
REMARK  5 active torsions:
REMARK  status: ('A' for Active; 'I' for Inactive)
REMARK    1  A    between atoms: O_1  and  C_6
REMARK    2  A    between atoms: O_1  and  C_18
REMARK    3  A    between atoms: C_18  and  C_20
REMARK    4  A    between atoms: N_19  and  C_26
REMARK    5  A    between atoms: C_26  and  C_28
REMARK                            x       y       z     vdW  Elec       q    Type
REMARK                         _______ _______ _______ _____ _____    ______ ____
ROOT
ATOM      1  O   UNL     1      32.679 -22.644 -18.062  0.00  0.00    -0.479 OA
ENDROOT
BRANCH   1   6
ATOM      2  N   UNL     1      32.061 -24.615 -13.678  0.00  0.00    -0.332 NA
ATOM      3  N   UNL     1      30.107 -23.929 -14.910  0.00  0.00    -0.317 NA
ATOM      4  N   UNL     1      30.281 -22.969 -17.028  0.00  0.00    -0.335 N 
ATOM      5  N   UNL     1      29.911 -24.892 -12.782  0.00  0.00    -0.283 N 
ATOM      6  C   UNL     1      33.148 -23.207 -16.899  0.00  0.00    +0.130 C 
ATOM      7  C   UNL     1      32.313 -23.634 -15.853  0.00  0.00    +0.177 C 
ATOM      8  C   UNL     1      34.528 -23.344 -16.790  0.00  0.00    +0.033 C 
ATOM      9  C   UNL     1      32.851 -24.202 -14.686  0.00  0.00    +0.137 C 
ATOM     10  C   UNL     1      30.926 -23.527 -15.899  0.00  0.00    +0.181 C 
ATOM     11  C   UNL     1      35.071 -23.904 -15.639  0.00  0.00    +0.005 C 
ATOM     12  C   UNL     1      34.235 -24.327 -14.603  0.00  0.00    +0.030 C 
ATOM     13  C   UNL     1      30.732 -24.456 -13.845  0.00  0.00    +0.197 C 
ATOM     14  H   UNL     1      29.300 -22.898 -17.050  0.00  0.00    +0.144 HD
ATOM     15  H   UNL     1      30.814 -22.652 -17.793  0.00  0.00    +0.144 HD
ATOM     16  H   UNL     1      30.316 -25.286 -11.977  0.00  0.00    +0.156 HD
ATOM     17  H   UNL     1      28.933 -24.802 -12.848  0.00  0.00    +0.156 HD
ENDBRANCH   1   6
BRANCH   1  18
ATOM     18  C   UNL     1      33.458 -22.835 -19.228  0.00  0.00    +0.205 C 
BRANCH  18  20
ATOM     19  N   UNL     1      35.447 -19.781 -21.546  0.00  0.00    +0.390 N 
ATOM     20  C   UNL     1      34.142 -21.516 -19.576  0.00  0.00    +0.040 C 
ATOM     21  C   UNL     1      33.358 -20.754 -20.648  0.00  0.00    -0.019 C 
ATOM     22  C   UNL     1      35.579 -21.750 -20.055  0.00  0.00    -0.019 C 
ATOM     23  C   UNL     1      34.089 -19.479 -21.074  0.00  0.00    -0.077 C 
ATOM     24  C   UNL     1      36.237 -20.442 -20.500  0.00  0.00    -0.077 C 
ATOM     25  H   UNL     1      35.370 -20.422 -22.335  0.00  0.00    -0.079 HD
BRANCH  19  26
ATOM     26  C   UNL     1      36.114 -18.560 -21.997  0.00  0.00    -0.048 C 
BRANCH  26  28
ATOM     27  F   UNL     1      34.943 -19.854 -24.231  0.00  0.00    -0.205 F 
ATOM     28  C   UNL     1      35.307 -17.832 -23.040  0.00  0.00    -0.016 C 
ATOM     29  C   UNL     1      34.758 -18.532 -24.115  0.00  0.00    +0.134 C 
ATOM     30  C   UNL     1      35.109 -16.457 -22.929  0.00  0.00    -0.004 C 
ATOM     31  C   UNL     1      34.012 -17.854 -25.080  0.00  0.00    +0.029 C 
ATOM     32  C   UNL     1      34.362 -15.779 -23.893  0.00  0.00    -0.000 C 
ATOM     33  C   UNL     1      33.814 -16.478 -24.969  0.00  0.00    +0.002 C 
ENDBRANCH  26  28
ENDBRANCH  19  26
ENDBRANCH  18  20
ENDBRANCH   1  18
TORSDOF 5
ENDMDL
MODEL 8
REMARK VINA RESULT:     -11.0      3.519      9.639
REMARK  Name = 23729147
REMARK  5 active torsions:
REMARK  status: ('A' for Active; 'I' for Inactive)
REMARK    1  A    between atoms: O_1  and  C_6
REMARK    2  A    between atoms: O_1  and  C_18
REMARK    3  A    between atoms: C_18  and  C_20
REMARK    4  A    between atoms: N_19  and  C_26
REMARK    5  A    between atoms: C_26  and  C_28
REMARK                            x       y       z     vdW  Elec       q    Type
REMARK                         _______ _______ _______ _____ _____    ______ ____
ROOT
ATOM      1  O   UNL     1      34.152 -18.854 -22.187  0.00  0.00    -0.479 OA
ENDROOT
BRANCH   1   6
ATOM      2  N   UNL     1      34.726 -22.356 -18.886  0.00  0.00    -0.332 NA
ATOM      3  N   UNL     1      32.504 -21.909 -19.706  0.00  0.00    -0.317 NA
ATOM      4  N   UNL     1      32.107 -20.248 -21.294  0.00  0.00    -0.335 N 
ATOM      5  N   UNL     1      32.883 -23.582 -18.110  0.00  0.00    -0.283 N 
ATOM      6  C   UNL     1      34.917 -19.624 -21.344  0.00  0.00    +0.130 C 
ATOM      7  C   UNL     1      34.388 -20.633 -20.521  0.00  0.00    +0.177 C 
ATOM      8  C   UNL     1      36.283 -19.360 -21.332  0.00  0.00    +0.033 C 
ATOM      9  C   UNL     1      35.221 -21.387 -19.678  0.00  0.00    +0.137 C 
ATOM     10  C   UNL     1      33.032 -20.947 -20.486  0.00  0.00    +0.181 C 
ATOM     11  C   UNL     1      37.117 -20.100 -20.502  0.00  0.00    +0.005 C 
ATOM     12  C   UNL     1      36.583 -21.103 -19.687  0.00  0.00    +0.030 C 
ATOM     13  C   UNL     1      33.394 -22.564 -18.944  0.00  0.00    +0.197 C 
ATOM     14  H   UNL     1      31.150 -20.479 -21.261  0.00  0.00    +0.144 HD
ATOM     15  H   UNL     1      32.418 -19.530 -21.892  0.00  0.00    +0.144 HD
ATOM     16  H   UNL     1      33.490 -24.094 -17.530  0.00  0.00    +0.156 HD
ATOM     17  H   UNL     1      31.918 -23.779 -18.110  0.00  0.00    +0.156 HD
ENDBRANCH   1   6
BRANCH   1  18
ATOM     18  C   UNL     1      34.611 -18.707 -23.517  0.00  0.00    +0.205 C 
BRANCH  18  20
ATOM     19  N   UNL     1      33.512 -14.537 -23.766  0.00  0.00    +0.390 N 
ATOM     20  C   UNL     1      34.697 -17.218 -23.840  0.00  0.00    +0.040 C 
ATOM     21  C   UNL     1      34.651 -16.373 -22.562  0.00  0.00    -0.019 C 
ATOM     22  C   UNL     1      33.566 -16.793 -24.782  0.00  0.00    -0.019 C 
ATOM     23  C   UNL     1      34.635 -14.878 -22.883  0.00  0.00    -0.077 C 
ATOM     24  C   UNL     1      33.586 -15.283 -25.030  0.00  0.00    -0.077 C 
ATOM     25  H   UNL     1      32.648 -14.804 -23.294  0.00  0.00    -0.079 HD
BRANCH  19  26
ATOM     26  C   UNL     1      33.481 -13.098 -24.022  0.00  0.00    -0.048 C 
BRANCH  26  28
ATOM     27  F   UNL     1      32.958 -10.314 -24.150  0.00  0.00    -0.205 F 
ATOM     28  C   UNL     1      32.695 -12.359 -22.971  0.00  0.00    -0.016 C 
ATOM     29  C   UNL     1      32.475 -10.987 -23.097  0.00  0.00    +0.134 C 
ATOM     30  C   UNL     1      32.188 -13.049 -21.871  0.00  0.00    -0.004 C 
ATOM     31  C   UNL     1      31.747 -10.305 -22.120  0.00  0.00    +0.029 C 
ATOM     32  C   UNL     1      31.460 -12.368 -20.896  0.00  0.00    -0.000 C 
ATOM     33  C   UNL     1      31.240 -10.996 -21.020  0.00  0.00    +0.002 C 
ENDBRANCH  26  28
ENDBRANCH  19  26
ENDBRANCH  18  20
ENDBRANCH   1  18
TORSDOF 5
ENDMDL
MODEL 9
REMARK VINA RESULT:     -10.8      3.489     10.074
REMARK  Name = 23729147
REMARK  5 active torsions:
REMARK  status: ('A' for Active; 'I' for Inactive)
REMARK    1  A    between atoms: O_1  and  C_6
REMARK    2  A    between atoms: O_1  and  C_18
REMARK    3  A    between atoms: C_18  and  C_20
REMARK    4  A    between atoms: N_19  and  C_26
REMARK    5  A    between atoms: C_26  and  C_28
REMARK                            x       y       z     vdW  Elec       q    Type
REMARK                         _______ _______ _______ _____ _____    ______ ____
ROOT
ATOM      1  O   UNL     1      34.344 -18.723 -22.272  0.00  0.00    -0.479 OA
ENDROOT
BRANCH   1   6
ATOM      2  N   UNL     1      34.768 -22.269 -18.996  0.00  0.00    -0.332 NA
ATOM      3  N   UNL     1      32.576 -21.773 -19.868  0.00  0.00    -0.317 NA
ATOM      4  N   UNL     1      32.251 -20.088 -21.448  0.00  0.00    -0.335 N 
ATOM      5  N   UNL     1      32.884 -23.469 -18.281  0.00  0.00    -0.283 N 
ATOM      6  C   UNL     1      35.073 -19.516 -21.418  0.00  0.00    +0.130 C 
ATOM      7  C   UNL     1      34.505 -20.523 -20.620  0.00  0.00    +0.177 C 
ATOM      8  C   UNL     1      36.443 -19.278 -21.368  0.00  0.00    +0.033 C 
ATOM      9  C   UNL     1      35.301 -21.302 -19.764  0.00  0.00    +0.137 C 
ATOM     10  C   UNL     1      33.143 -20.813 -20.624  0.00  0.00    +0.181 C 
ATOM     11  C   UNL     1      37.241 -20.041 -20.524  0.00  0.00    +0.005 C 
ATOM     12  C   UNL     1      36.668 -21.042 -19.734  0.00  0.00    +0.030 C 
ATOM     13  C   UNL     1      33.435 -22.452 -19.090  0.00  0.00    +0.197 C 
ATOM     14  H   UNL     1      31.291 -20.302 -21.442  0.00  0.00    +0.144 HD
ATOM     15  H   UNL     1      32.591 -19.370 -22.030  0.00  0.00    +0.144 HD
ATOM     16  H   UNL     1      33.465 -23.999 -17.691  0.00  0.00    +0.156 HD
ATOM     17  H   UNL     1      31.915 -23.649 -18.308  0.00  0.00    +0.156 HD
ENDBRANCH   1   6
BRANCH   1  18
ATOM     18  C   UNL     1      35.069 -17.814 -23.080  0.00  0.00    +0.205 C 
BRANCH  18  20
ATOM     19  N   UNL     1      33.905 -13.810 -24.209  0.00  0.00    +0.390 N 
ATOM     20  C   UNL     1      34.184 -16.603 -23.362  0.00  0.00    +0.040 C 
ATOM     21  C   UNL     1      34.287 -16.174 -24.829  0.00  0.00    -0.019 C 
ATOM     22  C   UNL     1      34.553 -15.428 -22.452  0.00  0.00    -0.019 C 
ATOM     23  C   UNL     1      33.481 -14.902 -25.096  0.00  0.00    -0.077 C 
ATOM     24  C   UNL     1      33.737 -14.179 -22.797  0.00  0.00    -0.077 C 
ATOM     25  H   UNL     1      34.897 -13.639 -24.373  0.00  0.00    -0.079 HD
BRANCH  19  26
ATOM     26  C   UNL     1      33.161 -12.588 -24.511  0.00  0.00    -0.048 C 
BRANCH  26  28
ATOM     27  F   UNL     1      33.747 -12.622 -27.284  0.00  0.00    -0.205 F 
ATOM     28  C   UNL     1      34.028 -11.555 -25.181  0.00  0.00    -0.016 C 
ATOM     29  C   UNL     1      34.276 -11.632 -26.552  0.00  0.00    +0.134 C 
ATOM     30  C   UNL     1      34.584 -10.522 -24.429  0.00  0.00    -0.004 C 
ATOM     31  C   UNL     1      35.081 -10.674 -27.170  0.00  0.00    +0.029 C 
ATOM     32  C   UNL     1      35.389  -9.564 -25.046  0.00  0.00    -0.000 C 
ATOM     33  C   UNL     1      35.638  -9.641 -26.416  0.00  0.00    +0.002 C 
ENDBRANCH  26  28
ENDBRANCH  19  26
ENDBRANCH  18  20
ENDBRANCH   1  18
TORSDOF 5
ENDMDL
