MODEL 1
REMARK VINA RESULT:     -12.4      0.000      0.000
REMARK  Name = 448384
REMARK  11 active torsions:
REMARK  status: ('A' for Active; 'I' for Inactive)
REMARK    1  A    between atoms: C_1  and  C_3
REMARK    2  A    between atoms: C_1  and  C_6
REMARK    3  A    between atoms: C_1  and  C_19
REMARK    4  A    between atoms: C_3  and  O_4
REMARK    5  A    between atoms: C_6  and  C_7
REMARK    6  A    between atoms: C_7  and  N_10
REMARK    7  A    between atoms: C_19  and  C_21
REMARK    8  A    between atoms: C_21  and  C_22
REMARK    9  A    between atoms: C_25  and  C_28
REMARK   10  A    between atoms: C_33  and  O_34
REMARK   11  A    between atoms: O_34  and  C_35
REMARK                            x       y       z     vdW  Elec       q    Type
REMARK                         _______ _______ _______ _____ _____    ______ ____
ROOT
ATOM      1  C   UNL     1      32.036 -22.888 -16.527  0.00  0.00    +0.108 C 
ENDROOT
BRANCH   1   3
ATOM      2  O   UNL     1      30.160 -24.399 -16.182  0.00  0.00    -0.250 OA
ATOM      3  C   UNL     1      30.591 -23.350 -16.646  0.00  0.00    +0.314 C 
BRANCH   3   4
ATOM      4  O   UNL     1      29.810 -22.470 -17.321  0.00  0.00    -0.480 OA
ATOM      5  H   UNL     1      29.137 -22.783 -17.891  0.00  0.00    +0.295 HD
ENDBRANCH   3   4
ENDBRANCH   1   3
BRANCH   1   6
ATOM      6  C   UNL     1      32.581 -23.203 -15.118  0.00  0.00    +0.034 C 
BRANCH   6   7
ATOM      7  C   UNL     1      32.980 -24.665 -14.922  0.00  0.00    +0.102 C 
BRANCH   7  10
ATOM      8  O   UNL     1      35.314 -26.089 -16.109  0.00  0.00    -0.269 OA
ATOM      9  O   UNL     1      34.111 -23.667 -12.348  0.00  0.00    -0.269 OA
ATOM     10  N   UNL     1      34.305 -24.825 -14.394  0.00  0.00    -0.223 N 
ATOM     11  C   UNL     1      35.324 -25.511 -15.038  0.00  0.00    +0.255 C 
ATOM     12  C   UNL     1      34.726 -24.311 -13.176  0.00  0.00    +0.255 C 
ATOM     13  C   UNL     1      36.492 -25.420 -14.164  0.00  0.00    +0.058 C 
ATOM     14  C   UNL     1      36.131 -24.694 -13.038  0.00  0.00    +0.058 C 
ATOM     15  C   UNL     1      37.766 -25.925 -14.329  0.00  0.00    +0.005 C 
ATOM     16  C   UNL     1      37.024 -24.436 -12.019  0.00  0.00    +0.005 C 
ATOM     17  C   UNL     1      38.687 -25.676 -13.309  0.00  0.00    +0.000 C 
ATOM     18  C   UNL     1      38.320 -24.939 -12.164  0.00  0.00    +0.000 C 
ENDBRANCH   7  10
ENDBRANCH   6   7
ENDBRANCH   1   6
BRANCH   1  19
ATOM     19  C   UNL     1      32.871 -23.614 -17.600  0.00  0.00    +0.080 C 
BRANCH  19  21
ATOM     20  O   UNL     1      35.212 -23.161 -17.204  0.00  0.00    -0.291 OA
ATOM     21  C   UNL     1      34.209 -22.935 -17.876  0.00  0.00    +0.174 C 
BRANCH  21  22
ATOM     22  C   UNL     1      34.293 -21.955 -18.997  0.00  0.00    +0.035 C 
ATOM     23  C   UNL     1      33.127 -21.474 -19.594  0.00  0.00    +0.003 C 
ATOM     24  C   UNL     1      35.539 -21.517 -19.448  0.00  0.00    +0.003 C 
ATOM     25  C   UNL     1      34.453 -20.120 -21.092  0.00  0.00    +0.000 C 
ATOM     26  C   UNL     1      33.207 -20.558 -20.641  0.00  0.00    +0.000 C 
ATOM     27  C   UNL     1      35.619 -20.600 -20.496  0.00  0.00    +0.000 C 
BRANCH  25  28
ATOM     28  C   UNL     1      34.536 -19.169 -22.180  0.00  0.00    +0.000 C 
ATOM     29  C   UNL     1      35.241 -17.977 -22.010  0.00  0.00    +0.003 C 
ATOM     30  C   UNL     1      33.912 -19.443 -23.397  0.00  0.00    +0.003 C 
ATOM     31  C   UNL     1      35.320 -17.059 -23.057  0.00  0.00    +0.037 C 
ATOM     32  C   UNL     1      33.992 -18.525 -24.443  0.00  0.00    +0.037 C 
ATOM     33  C   UNL     1      34.695 -17.333 -24.274  0.00  0.00    +0.139 C 
BRANCH  33  34
ATOM     34  O   UNL     1      34.776 -16.437 -25.296  0.00  0.00    -0.475 OA
BRANCH  34  35
ATOM     35  C   UNL     1      33.653 -15.580 -25.498  0.00  0.00    +0.206 C 
ATOM     36  C   UNL     1      33.658 -14.503 -24.433  0.00  0.00    +0.051 C 
ENDBRANCH  34  35
ENDBRANCH  33  34
ENDBRANCH  25  28
ENDBRANCH  21  22
ENDBRANCH  19  21
ENDBRANCH   1  19
TORSDOF 11
ENDMDL
MODEL 2
REMARK VINA RESULT:     -12.4      0.024      1.884
REMARK  Name = 448384
REMARK  11 active torsions:
REMARK  status: ('A' for Active; 'I' for Inactive)
REMARK    1  A    between atoms: C_1  and  C_3
REMARK    2  A    between atoms: C_1  and  C_6
REMARK    3  A    between atoms: C_1  and  C_19
REMARK    4  A    between atoms: C_3  and  O_4
REMARK    5  A    between atoms: C_6  and  C_7
REMARK    6  A    between atoms: C_7  and  N_10
REMARK    7  A    between atoms: C_19  and  C_21
REMARK    8  A    between atoms: C_21  and  C_22
REMARK    9  A    between atoms: C_25  and  C_28
REMARK   10  A    between atoms: C_33  and  O_34
REMARK   11  A    between atoms: O_34  and  C_35
REMARK                            x       y       z     vdW  Elec       q    Type
REMARK                         _______ _______ _______ _____ _____    ______ ____
ROOT
ATOM      1  C   UNL     1      32.036 -22.885 -16.538  0.00  0.00    +0.108 C 
ENDROOT
BRANCH   1   3
ATOM      2  O   UNL     1      30.178 -24.421 -16.206  0.00  0.00    -0.250 OA
ATOM      3  C   UNL     1      30.595 -23.361 -16.656  0.00  0.00    +0.314 C 
BRANCH   3   4
ATOM      4  O   UNL     1      29.801 -22.479 -17.314  0.00  0.00    -0.480 OA
ATOM      5  H   UNL     1      29.838 -22.422 -18.248  0.00  0.00    +0.295 HD
ENDBRANCH   3   4
ENDBRANCH   1   3
BRANCH   1   6
ATOM      6  C   UNL     1      32.579 -23.180 -15.125  0.00  0.00    +0.034 C 
BRANCH   6   7
ATOM      7  C   UNL     1      32.974 -24.641 -14.907  0.00  0.00    +0.102 C 
BRANCH   7  10
ATOM      8  O   UNL     1      34.135 -23.615 -12.361  0.00  0.00    -0.269 OA
ATOM      9  O   UNL     1      35.300 -26.070 -16.113  0.00  0.00    -0.269 OA
ATOM     10  N   UNL     1      34.305 -24.797 -14.394  0.00  0.00    -0.223 N 
ATOM     11  C   UNL     1      34.740 -24.275 -13.185  0.00  0.00    +0.255 C 
ATOM     12  C   UNL     1      35.315 -25.491 -15.043  0.00  0.00    +0.255 C 
ATOM     13  C   UNL     1      36.140 -24.676 -13.049  0.00  0.00    +0.058 C 
ATOM     14  C   UNL     1      36.488 -25.412 -14.173  0.00  0.00    +0.058 C 
ATOM     15  C   UNL     1      37.041 -24.424 -12.034  0.00  0.00    +0.005 C 
ATOM     16  C   UNL     1      37.754 -25.932 -14.341  0.00  0.00    +0.005 C 
ATOM     17  C   UNL     1      38.329 -24.942 -12.183  0.00  0.00    +0.000 C 
ATOM     18  C   UNL     1      38.683 -25.689 -13.326  0.00  0.00    +0.000 C 
ENDBRANCH   7  10
ENDBRANCH   6   7
ENDBRANCH   1   6
BRANCH   1  19
ATOM     19  C   UNL     1      32.880 -23.615 -17.601  0.00  0.00    +0.080 C 
BRANCH  19  21
ATOM     20  O   UNL     1      35.218 -23.158 -17.196  0.00  0.00    -0.291 OA
ATOM     21  C   UNL     1      34.218 -22.934 -17.872  0.00  0.00    +0.174 C 
BRANCH  21  22
ATOM     22  C   UNL     1      34.305 -21.955 -18.994  0.00  0.00    +0.035 C 
ATOM     23  C   UNL     1      35.552 -21.521 -19.447  0.00  0.00    +0.003 C 
ATOM     24  C   UNL     1      33.140 -21.473 -19.591  0.00  0.00    +0.003 C 
ATOM     25  C   UNL     1      34.467 -20.124 -21.092  0.00  0.00    +0.000 C 
ATOM     26  C   UNL     1      35.632 -20.605 -20.495  0.00  0.00    +0.000 C 
ATOM     27  C   UNL     1      33.221 -20.557 -20.640  0.00  0.00    +0.000 C 
BRANCH  25  28
ATOM     28  C   UNL     1      34.550 -19.173 -22.180  0.00  0.00    +0.000 C 
ATOM     29  C   UNL     1      33.926 -19.451 -23.397  0.00  0.00    +0.003 C 
ATOM     30  C   UNL     1      35.256 -17.981 -22.014  0.00  0.00    +0.003 C 
ATOM     31  C   UNL     1      34.008 -18.536 -24.447  0.00  0.00    +0.037 C 
ATOM     32  C   UNL     1      35.336 -17.067 -23.063  0.00  0.00    +0.037 C 
ATOM     33  C   UNL     1      34.713 -17.344 -24.280  0.00  0.00    +0.139 C 
BRANCH  33  34
ATOM     34  O   UNL     1      34.790 -16.451 -25.304  0.00  0.00    -0.475 OA
BRANCH  34  35
ATOM     35  C   UNL     1      33.669 -15.588 -25.499  0.00  0.00    +0.206 C 
ATOM     36  C   UNL     1      33.658 -14.541 -24.405  0.00  0.00    +0.051 C 
ENDBRANCH  34  35
ENDBRANCH  33  34
ENDBRANCH  25  28
ENDBRANCH  21  22
ENDBRANCH  19  21
ENDBRANCH   1  19
TORSDOF 11
ENDMDL
MODEL 3
REMARK VINA RESULT:     -12.3      4.972     13.694
REMARK  Name = 448384
REMARK  11 active torsions:
REMARK  status: ('A' for Active; 'I' for Inactive)
REMARK    1  A    between atoms: C_1  and  C_3
REMARK    2  A    between atoms: C_1  and  C_6
REMARK    3  A    between atoms: C_1  and  C_19
REMARK    4  A    between atoms: C_3  and  O_4
REMARK    5  A    between atoms: C_6  and  C_7
REMARK    6  A    between atoms: C_7  and  N_10
REMARK    7  A    between atoms: C_19  and  C_21
REMARK    8  A    between atoms: C_21  and  C_22
REMARK    9  A    between atoms: C_25  and  C_28
REMARK   10  A    between atoms: C_33  and  O_34
REMARK   11  A    between atoms: O_34  and  C_35
REMARK                            x       y       z     vdW  Elec       q    Type
REMARK                         _______ _______ _______ _____ _____    ______ ____
ROOT
ATOM      1  C   UNL     1      33.259 -14.091 -24.011  0.00  0.00    +0.108 C 
ENDROOT
BRANCH   1   3
ATOM      2  O   UNL     1      33.543 -13.966 -21.598  0.00  0.00    -0.250 OA
ATOM      3  C   UNL     1      32.837 -13.783 -22.582  0.00  0.00    +0.314 C 
BRANCH   3   4
ATOM      4  O   UNL     1      31.583 -13.273 -22.501  0.00  0.00    -0.480 OA
ATOM      5  H   UNL     1      31.259 -12.954 -21.682  0.00  0.00    +0.295 HD
ENDBRANCH   3   4
ENDBRANCH   1   3
BRANCH   1   6
ATOM      6  C   UNL     1      33.224 -12.806 -24.864  0.00  0.00    +0.034 C 
BRANCH   6   7
ATOM      7  C   UNL     1      34.020 -11.646 -24.267  0.00  0.00    +0.102 C 
BRANCH   7  10
ATOM      8  O   UNL     1      32.128 -10.530 -22.252  0.00  0.00    -0.269 OA
ATOM      9  O   UNL     1      34.043  -9.503 -26.345  0.00  0.00    -0.269 OA
ATOM     10  N   UNL     1      33.309 -10.399 -24.290  0.00  0.00    -0.223 N 
ATOM     11  C   UNL     1      32.448  -9.976 -23.288  0.00  0.00    +0.255 C 
ATOM     12  C   UNL     1      33.398  -9.468 -25.314  0.00  0.00    +0.255 C 
ATOM     13  C   UNL     1      31.955  -8.663 -23.704  0.00  0.00    +0.058 C 
ATOM     14  C   UNL     1      32.529  -8.356 -24.929  0.00  0.00    +0.058 C 
ATOM     15  C   UNL     1      31.078  -7.804 -23.073  0.00  0.00    +0.005 C 
ATOM     16  C   UNL     1      32.257  -7.175 -25.587  0.00  0.00    +0.005 C 
ATOM     17  C   UNL     1      30.788  -6.601 -23.721  0.00  0.00    +0.000 C 
ATOM     18  C   UNL     1      31.371  -6.289 -24.967  0.00  0.00    +0.000 C 
ENDBRANCH   7  10
ENDBRANCH   6   7
ENDBRANCH   1   6
BRANCH   1  19
ATOM     19  C   UNL     1      34.684 -14.678 -23.984  0.00  0.00    +0.080 C 
BRANCH  19  21
ATOM     20  O   UNL     1      34.857 -16.377 -25.694  0.00  0.00    -0.291 OA
ATOM     21  C   UNL     1      34.749 -16.112 -24.499  0.00  0.00    +0.174 C 
BRANCH  21  22
ATOM     22  C   UNL     1      34.668 -17.229 -23.514  0.00  0.00    +0.035 C 
ATOM     23  C   UNL     1      35.148 -17.051 -22.216  0.00  0.00    +0.003 C 
ATOM     24  C   UNL     1      34.111 -18.451 -23.890  0.00  0.00    +0.003 C 
ATOM     25  C   UNL     1      34.514 -19.318 -21.672  0.00  0.00    +0.000 C 
ATOM     26  C   UNL     1      35.071 -18.096 -21.295  0.00  0.00    +0.000 C 
ATOM     27  C   UNL     1      34.034 -19.496 -22.969  0.00  0.00    +0.000 C 
BRANCH  25  28
ATOM     28  C   UNL     1      34.434 -20.403 -20.717  0.00  0.00    +0.000 C 
ATOM     29  C   UNL     1      33.188 -20.872 -20.299  0.00  0.00    +0.003 C 
ATOM     30  C   UNL     1      35.602 -20.977 -20.213  0.00  0.00    +0.003 C 
ATOM     31  C   UNL     1      33.111 -21.916 -19.377  0.00  0.00    +0.037 C 
ATOM     32  C   UNL     1      35.523 -22.020 -19.292  0.00  0.00    +0.037 C 
ATOM     33  C   UNL     1      34.279 -22.490 -18.873  0.00  0.00    +0.139 C 
BRANCH  33  34
ATOM     34  O   UNL     1      34.202 -23.511 -17.976  0.00  0.00    -0.475 OA
BRANCH  34  35
ATOM     35  C   UNL     1      33.085 -23.512 -17.087  0.00  0.00    +0.206 C 
ATOM     36  C   UNL     1      33.591 -23.504 -15.660  0.00  0.00    +0.051 C 
ENDBRANCH  34  35
ENDBRANCH  33  34
ENDBRANCH  25  28
ENDBRANCH  21  22
ENDBRANCH  19  21
ENDBRANCH   1  19
TORSDOF 11
ENDMDL
MODEL 4
REMARK VINA RESULT:     -12.3      5.043     13.677
REMARK  Name = 448384
REMARK  11 active torsions:
REMARK  status: ('A' for Active; 'I' for Inactive)
REMARK    1  A    between atoms: C_1  and  C_3
REMARK    2  A    between atoms: C_1  and  C_6
REMARK    3  A    between atoms: C_1  and  C_19
REMARK    4  A    between atoms: C_3  and  O_4
REMARK    5  A    between atoms: C_6  and  C_7
REMARK    6  A    between atoms: C_7  and  N_10
REMARK    7  A    between atoms: C_19  and  C_21
REMARK    8  A    between atoms: C_21  and  C_22
REMARK    9  A    between atoms: C_25  and  C_28
REMARK   10  A    between atoms: C_33  and  O_34
REMARK   11  A    between atoms: O_34  and  C_35
REMARK                            x       y       z     vdW  Elec       q    Type
REMARK                         _______ _______ _______ _____ _____    ______ ____
ROOT
ATOM      1  C   UNL     1      33.200 -13.987 -23.924  0.00  0.00    +0.108 C 
ENDROOT
BRANCH   1   3
ATOM      2  O   UNL     1      33.542 -13.895 -21.516  0.00  0.00    -0.250 OA
ATOM      3  C   UNL     1      32.812 -13.699 -22.480  0.00  0.00    +0.314 C 
BRANCH   3   4
ATOM      4  O   UNL     1      31.560 -13.190 -22.363  0.00  0.00    -0.480 OA
ATOM      5  H   UNL     1      30.836 -13.634 -22.758  0.00  0.00    +0.295 HD
ENDBRANCH   3   4
ENDBRANCH   1   3
BRANCH   1   6
ATOM      6  C   UNL     1      33.127 -12.694 -24.762  0.00  0.00    +0.034 C 
BRANCH   6   7
ATOM      7  C   UNL     1      33.953 -11.540 -24.191  0.00  0.00    +0.102 C 
BRANCH   7  10
ATOM      8  O   UNL     1      34.049  -9.430 -26.294  0.00  0.00    -0.269 OA
ATOM      9  O   UNL     1      32.076 -10.344 -22.203  0.00  0.00    -0.269 OA
ATOM     10  N   UNL     1      33.270 -10.279 -24.236  0.00  0.00    -0.223 N 
ATOM     11  C   UNL     1      33.387  -9.366 -25.274  0.00  0.00    +0.255 C 
ATOM     12  C   UNL     1      32.410  -9.821 -23.249  0.00  0.00    +0.255 C 
ATOM     13  C   UNL     1      32.524  -8.238 -24.924  0.00  0.00    +0.058 C 
ATOM     14  C   UNL     1      31.933  -8.514 -23.699  0.00  0.00    +0.058 C 
ATOM     15  C   UNL     1      32.271  -7.068 -25.610  0.00  0.00    +0.005 C 
ATOM     16  C   UNL     1      31.060  -7.633 -23.096  0.00  0.00    +0.005 C 
ATOM     17  C   UNL     1      31.389  -6.161 -25.018  0.00  0.00    +0.000 C 
ATOM     18  C   UNL     1      30.790  -6.440 -23.772  0.00  0.00    +0.000 C 
ENDBRANCH   7  10
ENDBRANCH   6   7
ENDBRANCH   1   6
BRANCH   1  19
ATOM     19  C   UNL     1      34.633 -14.557 -23.940  0.00  0.00    +0.080 C 
BRANCH  19  21
ATOM     20  O   UNL     1      34.803 -16.229 -25.677  0.00  0.00    -0.291 OA
ATOM     21  C   UNL     1      34.701 -15.983 -24.478  0.00  0.00    +0.174 C 
BRANCH  21  22
ATOM     22  C   UNL     1      34.631 -17.115 -23.509  0.00  0.00    +0.035 C 
ATOM     23  C   UNL     1      34.186 -18.369 -23.931  0.00  0.00    +0.003 C 
ATOM     24  C   UNL     1      35.012 -16.920 -22.181  0.00  0.00    +0.003 C 
ATOM     25  C   UNL     1      34.501 -19.231 -21.696  0.00  0.00    +0.000 C 
ATOM     26  C   UNL     1      34.121 -19.426 -23.024  0.00  0.00    +0.000 C 
ATOM     27  C   UNL     1      34.946 -17.979 -21.274  0.00  0.00    +0.000 C 
BRANCH  25  28
ATOM     28  C   UNL     1      34.433 -20.329 -20.755  0.00  0.00    +0.000 C 
ATOM     29  C   UNL     1      33.193 -20.819 -20.346  0.00  0.00    +0.003 C 
ATOM     30  C   UNL     1      35.607 -20.893 -20.255  0.00  0.00    +0.003 C 
ATOM     31  C   UNL     1      33.126 -21.875 -19.437  0.00  0.00    +0.037 C 
ATOM     32  C   UNL     1      35.539 -21.949 -19.346  0.00  0.00    +0.037 C 
ATOM     33  C   UNL     1      34.299 -22.440 -18.937  0.00  0.00    +0.139 C 
BRANCH  33  34
ATOM     34  O   UNL     1      34.233 -23.473 -18.052  0.00  0.00    -0.475 OA
BRANCH  34  35
ATOM     35  C   UNL     1      33.080 -23.537 -17.214  0.00  0.00    +0.206 C 
ATOM     36  C   UNL     1      33.521 -23.511 -15.766  0.00  0.00    +0.051 C 
ENDBRANCH  34  35
ENDBRANCH  33  34
ENDBRANCH  25  28
ENDBRANCH  21  22
ENDBRANCH  19  21
ENDBRANCH   1  19
TORSDOF 11
ENDMDL
MODEL 5
REMARK VINA RESULT:     -11.8      2.985      6.702
REMARK  Name = 448384
REMARK  11 active torsions:
REMARK  status: ('A' for Active; 'I' for Inactive)
REMARK    1  A    between atoms: C_1  and  C_3
REMARK    2  A    between atoms: C_1  and  C_6
REMARK    3  A    between atoms: C_1  and  C_19
REMARK    4  A    between atoms: C_3  and  O_4
REMARK    5  A    between atoms: C_6  and  C_7
REMARK    6  A    between atoms: C_7  and  N_10
REMARK    7  A    between atoms: C_19  and  C_21
REMARK    8  A    between atoms: C_21  and  C_22
REMARK    9  A    between atoms: C_25  and  C_28
REMARK   10  A    between atoms: C_33  and  O_34
REMARK   11  A    between atoms: O_34  and  C_35
REMARK                            x       y       z     vdW  Elec       q    Type
REMARK                         _______ _______ _______ _____ _____    ______ ____
ROOT
ATOM      1  C   UNL     1      36.075 -20.012 -21.185  0.00  0.00    +0.108 C 
ENDROOT
BRANCH   1   3
ATOM      2  O   UNL     1      37.903 -18.732 -22.156  0.00  0.00    -0.250 OA
ATOM      3  C   UNL     1      37.270 -19.070 -21.163  0.00  0.00    +0.314 C 
BRANCH   3   4
ATOM      4  O   UNL     1      37.569 -18.627 -19.916  0.00  0.00    -0.480 OA
ATOM      5  H   UNL     1      37.072 -18.928 -19.181  0.00  0.00    +0.295 HD
ENDBRANCH   3   4
ENDBRANCH   1   3
BRANCH   1   6
ATOM      6  C   UNL     1      35.883 -20.659 -19.798  0.00  0.00    +0.034 C 
BRANCH   6   7
ATOM      7  C   UNL     1      35.402 -22.110 -19.853  0.00  0.00    +0.102 C 
BRANCH   7  10
ATOM      8  O   UNL     1      32.425 -22.221 -19.788  0.00  0.00    -0.269 OA
ATOM      9  O   UNL     1      36.111 -22.911 -17.067  0.00  0.00    -0.269 OA
ATOM     10  N   UNL     1      34.536 -22.461 -18.765  0.00  0.00    -0.223 N 
ATOM     11  C   UNL     1      33.151 -22.482 -18.847  0.00  0.00    +0.255 C 
ATOM     12  C   UNL     1      34.978 -22.824 -17.501  0.00  0.00    +0.255 C 
ATOM     13  C   UNL     1      32.672 -22.902 -17.530  0.00  0.00    +0.058 C 
ATOM     14  C   UNL     1      33.776 -23.109 -16.716  0.00  0.00    +0.058 C 
ATOM     15  C   UNL     1      31.383 -23.088 -17.073  0.00  0.00    +0.005 C 
ATOM     16  C   UNL     1      33.650 -23.512 -15.404  0.00  0.00    +0.005 C 
ATOM     17  C   UNL     1      31.231 -23.497 -15.746  0.00  0.00    +0.000 C 
ATOM     18  C   UNL     1      32.354 -23.706 -14.918  0.00  0.00    +0.000 C 
ENDBRANCH   7  10
ENDBRANCH   6   7
ENDBRANCH   1   6
BRANCH   1  19
ATOM     19  C   UNL     1      34.823 -19.204 -21.579  0.00  0.00    +0.080 C 
BRANCH  19  21
ATOM     20  O   UNL     1      34.827 -19.846 -23.909  0.00  0.00    -0.291 OA
ATOM     21  C   UNL     1      34.727 -18.946 -23.079  0.00  0.00    +0.174 C 
BRANCH  21  22
ATOM     22  C   UNL     1      34.514 -17.547 -23.550  0.00  0.00    +0.035 C 
ATOM     23  C   UNL     1      33.989 -17.310 -24.821  0.00  0.00    +0.003 C 
ATOM     24  C   UNL     1      34.839 -16.475 -22.719  0.00  0.00    +0.003 C 
ATOM     25  C   UNL     1      34.116 -14.929 -24.429  0.00  0.00    +0.000 C 
ATOM     26  C   UNL     1      33.791 -16.001 -25.260  0.00  0.00    +0.000 C 
ATOM     27  C   UNL     1      34.640 -15.165 -23.158  0.00  0.00    +0.000 C 
BRANCH  25  28
ATOM     28  C   UNL     1      33.910 -13.571 -24.884  0.00  0.00    +0.000 C 
ATOM     29  C   UNL     1      33.986 -12.513 -23.977  0.00  0.00    +0.003 C 
ATOM     30  C   UNL     1      33.634 -13.319 -26.228  0.00  0.00    +0.003 C 
ATOM     31  C   UNL     1      33.787 -11.204 -24.415  0.00  0.00    +0.037 C 
ATOM     32  C   UNL     1      33.434 -12.010 -26.665  0.00  0.00    +0.037 C 
ATOM     33  C   UNL     1      33.510 -10.953 -25.759  0.00  0.00    +0.139 C 
BRANCH  33  34
ATOM     34  O   UNL     1      33.318  -9.674 -26.186  0.00  0.00    -0.475 OA
BRANCH  34  35
ATOM     35  C   UNL     1      33.313  -8.651 -25.191  0.00  0.00    +0.206 C 
ATOM     36  C   UNL     1      32.079  -7.792 -25.374  0.00  0.00    +0.051 C 
ENDBRANCH  34  35
ENDBRANCH  33  34
ENDBRANCH  25  28
ENDBRANCH  21  22
ENDBRANCH  19  21
ENDBRANCH   1  19
TORSDOF 11
ENDMDL
MODEL 6
REMARK VINA RESULT:     -11.6      3.653      7.658
REMARK  Name = 448384
REMARK  11 active torsions:
REMARK  status: ('A' for Active; 'I' for Inactive)
REMARK    1  A    between atoms: C_1  and  C_3
REMARK    2  A    between atoms: C_1  and  C_6
REMARK    3  A    between atoms: C_1  and  C_19
REMARK    4  A    between atoms: C_3  and  O_4
REMARK    5  A    between atoms: C_6  and  C_7
REMARK    6  A    between atoms: C_7  and  N_10
REMARK    7  A    between atoms: C_19  and  C_21
REMARK    8  A    between atoms: C_21  and  C_22
REMARK    9  A    between atoms: C_25  and  C_28
REMARK   10  A    between atoms: C_33  and  O_34
REMARK   11  A    between atoms: O_34  and  C_35
REMARK                            x       y       z     vdW  Elec       q    Type
REMARK                         _______ _______ _______ _____ _____    ______ ____
ROOT
ATOM      1  C   UNL     1      35.604 -19.042 -21.916  0.00  0.00    +0.108 C 
ENDROOT
BRANCH   1   3
ATOM      2  O   UNL     1      37.305 -18.963 -20.178  0.00  0.00    -0.250 OA
ATOM      3  C   UNL     1      37.019 -18.918 -21.368  0.00  0.00    +0.314 C 
BRANCH   3   4
ATOM      4  O   UNL     1      37.949 -18.756 -22.342  0.00  0.00    -0.480 OA
ATOM      5  H   UNL     1      38.860 -18.847 -22.139  0.00  0.00    +0.295 HD
ENDBRANCH   3   4
ENDBRANCH   1   3
BRANCH   1   6
ATOM      6  C   UNL     1      34.748 -19.923 -20.983  0.00  0.00    +0.034 C 
BRANCH   6   7
ATOM      7  C   UNL     1      35.388 -21.269 -20.644  0.00  0.00    +0.102 C 
BRANCH   7  10
ATOM      8  O   UNL     1      36.795 -21.944 -18.105  0.00  0.00    -0.269 OA
ATOM      9  O   UNL     1      32.599 -22.156 -20.058  0.00  0.00    -0.269 OA
ATOM     10  N   UNL     1      34.859 -21.863 -19.449  0.00  0.00    -0.223 N 
ATOM     11  C   UNL     1      35.611 -22.133 -18.315  0.00  0.00    +0.255 C 
ATOM     12  C   UNL     1      33.534 -22.237 -19.284  0.00  0.00    +0.255 C 
ATOM     13  C   UNL     1      34.687 -22.719 -17.344  0.00  0.00    +0.058 C 
ATOM     14  C   UNL     1      33.431 -22.781 -17.930  0.00  0.00    +0.058 C 
ATOM     15  C   UNL     1      34.916 -23.162 -16.058  0.00  0.00    +0.005 C 
ATOM     16  C   UNL     1      32.338 -23.291 -17.261  0.00  0.00    +0.005 C 
ATOM     17  C   UNL     1      33.823 -23.683 -15.360  0.00  0.00    +0.000 C 
ATOM     18  C   UNL     1      32.546 -23.747 -15.956  0.00  0.00    +0.000 C 
ENDBRANCH   7  10
ENDBRANCH   6   7
ENDBRANCH   1   6
BRANCH   1  19
ATOM     19  C   UNL     1      34.998 -17.630 -22.028  0.00  0.00    +0.080 C 
BRANCH  19  21
ATOM     20  O   UNL     1      34.595 -18.066 -24.371  0.00  0.00    -0.291 OA
ATOM     21  C   UNL     1      34.647 -17.242 -23.461  0.00  0.00    +0.174 C 
BRANCH  21  22
ATOM     22  C   UNL     1      34.370 -15.808 -23.765  0.00  0.00    +0.035 C 
ATOM     23  C   UNL     1      34.505 -14.844 -22.765  0.00  0.00    +0.003 C 
ATOM     24  C   UNL     1      33.976 -15.432 -25.049  0.00  0.00    +0.003 C 
ATOM     25  C   UNL     1      33.851 -13.127 -24.335  0.00  0.00    +0.000 C 
ATOM     26  C   UNL     1      34.245 -13.504 -23.050  0.00  0.00    +0.000 C 
ATOM     27  C   UNL     1      33.716 -14.091 -25.334  0.00  0.00    +0.000 C 
BRANCH  25  28
ATOM     28  C   UNL     1      33.581 -11.737 -24.631  0.00  0.00    +0.000 C 
ATOM     29  C   UNL     1      33.861 -11.228 -25.900  0.00  0.00    +0.003 C 
ATOM     30  C   UNL     1      33.044 -10.905 -23.648  0.00  0.00    +0.003 C 
ATOM     31  C   UNL     1      33.603  -9.887 -26.185  0.00  0.00    +0.037 C 
ATOM     32  C   UNL     1      32.786  -9.565 -23.935  0.00  0.00    +0.037 C 
ATOM     33  C   UNL     1      33.066  -9.056 -25.203  0.00  0.00    +0.139 C 
BRANCH  33  34
ATOM     34  O   UNL     1      32.812  -7.748 -25.484  0.00  0.00    -0.475 OA
BRANCH  34  35
ATOM     35  C   UNL     1      33.337  -6.776 -24.580  0.00  0.00    +0.206 C 
ATOM     36  C   UNL     1      34.677  -6.296 -25.097  0.00  0.00    +0.051 C 
ENDBRANCH  34  35
ENDBRANCH  33  34
ENDBRANCH  25  28
ENDBRANCH  21  22
ENDBRANCH  19  21
ENDBRANCH   1  19
TORSDOF 11
ENDMDL
MODEL 7
REMARK VINA RESULT:     -11.3      4.467     12.335
REMARK  Name = 448384
REMARK  11 active torsions:
REMARK  status: ('A' for Active; 'I' for Inactive)
REMARK    1  A    between atoms: C_1  and  C_3
REMARK    2  A    between atoms: C_1  and  C_6
REMARK    3  A    between atoms: C_1  and  C_19
REMARK    4  A    between atoms: C_3  and  O_4
REMARK    5  A    between atoms: C_6  and  C_7
REMARK    6  A    between atoms: C_7  and  N_10
REMARK    7  A    between atoms: C_19  and  C_21
REMARK    8  A    between atoms: C_21  and  C_22
REMARK    9  A    between atoms: C_25  and  C_28
REMARK   10  A    between atoms: C_33  and  O_34
REMARK   11  A    between atoms: O_34  and  C_35
REMARK                            x       y       z     vdW  Elec       q    Type
REMARK                         _______ _______ _______ _____ _____    ______ ____
ROOT
ATOM      1  C   UNL     1      34.189 -14.140 -24.669  0.00  0.00    +0.108 C 
ENDROOT
BRANCH   1   3
ATOM      2  O   UNL     1      32.752 -13.533 -26.537  0.00  0.00    -0.250 OA
ATOM      3  C   UNL     1      33.596 -13.204 -25.713  0.00  0.00    +0.314 C 
BRANCH   3   4
ATOM      4  O   UNL     1      34.097 -11.945 -25.637  0.00  0.00    -0.480 OA
ATOM      5  H   UNL     1      33.516 -11.212 -25.598  0.00  0.00    +0.295 HD
ENDBRANCH   3   4
ENDBRANCH   1   3
BRANCH   1   6
ATOM      6  C   UNL     1      33.879 -13.619 -23.251  0.00  0.00    +0.034 C 
BRANCH   6   7
ATOM      7  C   UNL     1      32.392 -13.384 -22.990  0.00  0.00    +0.102 C 
BRANCH   7  10
ATOM      8  O   UNL     1      32.568 -10.498 -23.714  0.00  0.00    -0.269 OA
ATOM      9  O   UNL     1      31.550 -13.252 -20.130  0.00  0.00    -0.269 OA
ATOM     10  N   UNL     1      32.134 -12.231 -22.175  0.00  0.00    -0.223 N 
ATOM     11  C   UNL     1      32.246 -10.922 -22.619  0.00  0.00    +0.255 C 
ATOM     12  C   UNL     1      31.741 -12.288 -20.846  0.00  0.00    +0.255 C 
ATOM     13  C   UNL     1      31.887 -10.075 -21.483  0.00  0.00    +0.058 C 
ATOM     14  C   UNL     1      31.581 -10.900 -20.410  0.00  0.00    +0.058 C 
ATOM     15  C   UNL     1      31.829  -8.700 -21.385  0.00  0.00    +0.005 C 
ATOM     16  C   UNL     1      31.203 -10.394 -19.184  0.00  0.00    +0.005 C 
ATOM     17  C   UNL     1      31.449  -8.164 -20.152  0.00  0.00    +0.000 C 
ATOM     18  C   UNL     1      31.139  -9.003 -19.061  0.00  0.00    +0.000 C 
ENDBRANCH   7  10
ENDBRANCH   6   7
ENDBRANCH   1   6
BRANCH   1  19
ATOM     19  C   UNL     1      33.582 -15.543 -24.871  0.00  0.00    +0.080 C 
BRANCH  19  21
ATOM     20  O   UNL     1      35.490 -16.744 -25.741  0.00  0.00    -0.291 OA
ATOM     21  C   UNL     1      34.629 -16.652 -24.870  0.00  0.00    +0.174 C 
BRANCH  21  22
ATOM     22  C   UNL     1      34.595 -17.664 -23.774  0.00  0.00    +0.035 C 
ATOM     23  C   UNL     1      33.864 -18.842 -23.934  0.00  0.00    +0.003 C 
ATOM     24  C   UNL     1      35.296 -17.434 -22.590  0.00  0.00    +0.003 C 
ATOM     25  C   UNL     1      34.533 -19.557 -21.726  0.00  0.00    +0.000 C 
ATOM     26  C   UNL     1      33.832 -19.787 -22.910  0.00  0.00    +0.000 C 
ATOM     27  C   UNL     1      35.264 -18.380 -21.566  0.00  0.00    +0.000 C 
BRANCH  25  28
ATOM     28  C   UNL     1      34.500 -20.538 -20.662  0.00  0.00    +0.000 C 
ATOM     29  C   UNL     1      35.691 -20.974 -20.080  0.00  0.00    +0.003 C 
ATOM     30  C   UNL     1      33.280 -21.049 -20.221  0.00  0.00    +0.003 C 
ATOM     31  C   UNL     1      35.661 -21.921 -19.057  0.00  0.00    +0.037 C 
ATOM     32  C   UNL     1      33.250 -21.995 -19.197  0.00  0.00    +0.037 C 
ATOM     33  C   UNL     1      34.440 -22.432 -18.615  0.00  0.00    +0.139 C 
BRANCH  33  34
ATOM     34  O   UNL     1      34.412 -23.354 -17.614  0.00  0.00    -0.475 OA
BRANCH  34  35
ATOM     35  C   UNL     1      33.160 -23.567 -16.964  0.00  0.00    +0.206 C 
ATOM     36  C   UNL     1      33.373 -23.543 -15.465  0.00  0.00    +0.051 C 
ENDBRANCH  34  35
ENDBRANCH  33  34
ENDBRANCH  25  28
ENDBRANCH  21  22
ENDBRANCH  19  21
ENDBRANCH   1  19
TORSDOF 11
ENDMDL
MODEL 8
REMARK VINA RESULT:     -11.3      2.580      4.858
REMARK  Name = 448384
REMARK  11 active torsions:
REMARK  status: ('A' for Active; 'I' for Inactive)
REMARK    1  A    between atoms: C_1  and  C_3
REMARK    2  A    between atoms: C_1  and  C_6
REMARK    3  A    between atoms: C_1  and  C_19
REMARK    4  A    between atoms: C_3  and  O_4
REMARK    5  A    between atoms: C_6  and  C_7
REMARK    6  A    between atoms: C_7  and  N_10
REMARK    7  A    between atoms: C_19  and  C_21
REMARK    8  A    between atoms: C_21  and  C_22
REMARK    9  A    between atoms: C_25  and  C_28
REMARK   10  A    between atoms: C_33  and  O_34
REMARK   11  A    between atoms: O_34  and  C_35
REMARK                            x       y       z     vdW  Elec       q    Type
REMARK                         _______ _______ _______ _____ _____    ______ ____
ROOT
ATOM      1  C   UNL     1      34.266 -20.877 -19.998  0.00  0.00    +0.108 C 
ENDROOT
BRANCH   1   3
ATOM      2  O   UNL     1      32.069 -20.562 -20.996  0.00  0.00    -0.250 OA
ATOM      3  C   UNL     1      32.759 -21.063 -20.118  0.00  0.00    +0.314 C 
BRANCH   3   4
ATOM      4  O   UNL     1      32.248 -21.857 -19.144  0.00  0.00    -0.480 OA
ATOM      5  H   UNL     1      31.391 -21.689 -18.805  0.00  0.00    +0.295 HD
ENDBRANCH   3   4
ENDBRANCH   1   3
BRANCH   1   6
ATOM      6  C   UNL     1      34.926 -22.186 -19.518  0.00  0.00    +0.034 C 
BRANCH   6   7
ATOM      7  C   UNL     1      36.052 -21.975 -18.505  0.00  0.00    +0.102 C 
BRANCH   7  10
ATOM      8  O   UNL     1      33.688 -23.564 -17.628  0.00  0.00    -0.269 OA
ATOM      9  O   UNL     1      37.630 -21.773 -15.980  0.00  0.00    -0.269 OA
ATOM     10  N   UNL     1      35.753 -22.507 -17.207  0.00  0.00    -0.223 N 
ATOM     11  C   UNL     1      34.615 -23.241 -16.909  0.00  0.00    +0.255 C 
ATOM     12  C   UNL     1      36.568 -22.354 -16.094  0.00  0.00    +0.255 C 
ATOM     13  C   UNL     1      34.715 -23.591 -15.492  0.00  0.00    +0.058 C 
ATOM     14  C   UNL     1      35.897 -23.055 -15.000  0.00  0.00    +0.058 C 
ATOM     15  C   UNL     1      33.854 -24.315 -14.694  0.00  0.00    +0.005 C 
ATOM     16  C   UNL     1      36.277 -23.214 -13.684  0.00  0.00    +0.005 C 
ATOM     17  C   UNL     1      34.219 -24.489 -13.357  0.00  0.00    +0.000 C 
ATOM     18  C   UNL     1      35.419 -23.943 -12.856  0.00  0.00    +0.000 C 
ENDBRANCH   7  10
ENDBRANCH   6   7
ENDBRANCH   1   6
BRANCH   1  19
ATOM     19  C   UNL     1      34.819 -20.470 -21.378  0.00  0.00    +0.080 C 
BRANCH  19  21
ATOM     20  O   UNL     1      36.777 -19.241 -20.674  0.00  0.00    -0.291 OA
ATOM     21  C   UNL     1      35.732 -19.250 -21.319  0.00  0.00    +0.174 C 
BRANCH  21  22
ATOM     22  C   UNL     1      35.330 -18.022 -22.064  0.00  0.00    +0.035 C 
ATOM     23  C   UNL     1      35.297 -18.030 -23.459  0.00  0.00    +0.003 C 
ATOM     24  C   UNL     1      34.986 -16.864 -21.366  0.00  0.00    +0.003 C 
ATOM     25  C   UNL     1      34.577 -15.724 -23.456  0.00  0.00    +0.000 C 
ATOM     26  C   UNL     1      34.921 -16.882 -24.155  0.00  0.00    +0.000 C 
ATOM     27  C   UNL     1      34.609 -15.715 -22.062  0.00  0.00    +0.000 C 
BRANCH  25  28
ATOM     28  C   UNL     1      34.187 -14.532 -24.178  0.00  0.00    +0.000 C 
ATOM     29  C   UNL     1      33.770 -14.627 -25.506  0.00  0.00    +0.003 C 
ATOM     30  C   UNL     1      34.231 -13.289 -23.547  0.00  0.00    +0.003 C 
ATOM     31  C   UNL     1      33.397 -13.478 -26.203  0.00  0.00    +0.037 C 
ATOM     32  C   UNL     1      33.857 -12.140 -24.244  0.00  0.00    +0.037 C 
ATOM     33  C   UNL     1      33.440 -12.234 -25.572  0.00  0.00    +0.139 C 
BRANCH  33  34
ATOM     34  O   UNL     1      33.073 -11.114 -26.252  0.00  0.00    -0.475 OA
BRANCH  34  35
ATOM     35  C   UNL     1      33.909  -9.966 -26.114  0.00  0.00    +0.206 C 
ATOM     36  C   UNL     1      35.188 -10.192 -26.893  0.00  0.00    +0.051 C 
ENDBRANCH  34  35
ENDBRANCH  33  34
ENDBRANCH  25  28
ENDBRANCH  21  22
ENDBRANCH  19  21
ENDBRANCH   1  19
TORSDOF 11
ENDMDL
MODEL 9
REMARK VINA RESULT:     -11.2      3.620     11.548
REMARK  Name = 448384
REMARK  11 active torsions:
REMARK  status: ('A' for Active; 'I' for Inactive)
REMARK    1  A    between atoms: C_1  and  C_3
REMARK    2  A    between atoms: C_1  and  C_6
REMARK    3  A    between atoms: C_1  and  C_19
REMARK    4  A    between atoms: C_3  and  O_4
REMARK    5  A    between atoms: C_6  and  C_7
REMARK    6  A    between atoms: C_7  and  N_10
REMARK    7  A    between atoms: C_19  and  C_21
REMARK    8  A    between atoms: C_21  and  C_22
REMARK    9  A    between atoms: C_25  and  C_28
REMARK   10  A    between atoms: C_33  and  O_34
REMARK   11  A    between atoms: O_34  and  C_35
REMARK                            x       y       z     vdW  Elec       q    Type
REMARK                         _______ _______ _______ _____ _____    ______ ____
ROOT
ATOM      1  C   UNL     1      34.683 -17.573 -24.208  0.00  0.00    +0.108 C 
ENDROOT
BRANCH   1   3
ATOM      2  O   UNL     1      33.512 -16.261 -25.891  0.00  0.00    -0.250 OA
ATOM      3  C   UNL     1      33.596 -17.293 -25.236  0.00  0.00    +0.314 C 
BRANCH   3   4
ATOM      4  O   UNL     1      32.716 -18.318 -25.365  0.00  0.00    -0.480 OA
ATOM      5  H   UNL     1      32.811 -19.085 -24.835  0.00  0.00    +0.295 HD
ENDBRANCH   3   4
ENDBRANCH   1   3
BRANCH   1   6
ATOM      6  C   UNL     1      34.563 -16.588 -23.027  0.00  0.00    +0.034 C 
BRANCH   6   7
ATOM      7  C   UNL     1      34.928 -15.146 -23.384  0.00  0.00    +0.102 C 
BRANCH   7  10
ATOM      8  O   UNL     1      33.679 -12.811 -24.751  0.00  0.00    -0.269 OA
ATOM      9  O   UNL     1      33.766 -14.950 -20.642  0.00  0.00    -0.269 OA
ATOM     10  N   UNL     1      34.004 -14.181 -22.860  0.00  0.00    -0.223 N 
ATOM     11  C   UNL     1      33.480 -13.127 -23.592  0.00  0.00    +0.255 C 
ATOM     12  C   UNL     1      33.524 -14.188 -21.559  0.00  0.00    +0.255 C 
ATOM     13  C   UNL     1      32.585 -12.407 -22.686  0.00  0.00    +0.058 C 
ATOM     14  C   UNL     1      32.612 -13.049 -21.456  0.00  0.00    +0.058 C 
ATOM     15  C   UNL     1      31.811 -11.287 -22.908  0.00  0.00    +0.005 C 
ATOM     16  C   UNL     1      31.867 -12.604 -20.385  0.00  0.00    +0.005 C 
ATOM     17  C   UNL     1      31.047 -10.818 -21.837  0.00  0.00    +0.000 C 
ATOM     18  C   UNL     1      31.075 -11.469 -20.586  0.00  0.00    +0.000 C 
ENDBRANCH   7  10
ENDBRANCH   6   7
ENDBRANCH   1   6
BRANCH   1  19
ATOM     19  C   UNL     1      34.526 -19.025 -23.714  0.00  0.00    +0.080 C 
BRANCH  19  21
ATOM     20  O   UNL     1      36.614 -19.001 -22.497  0.00  0.00    -0.291 OA
ATOM     21  C   UNL     1      35.439 -19.356 -22.538  0.00  0.00    +0.174 C 
BRANCH  21  22
ATOM     22  C   UNL     1      34.882 -20.150 -21.404  0.00  0.00    +0.035 C 
ATOM     23  C   UNL     1      35.736 -20.875 -20.573  0.00  0.00    +0.003 C 
ATOM     24  C   UNL     1      33.506 -20.167 -21.176  0.00  0.00    +0.003 C 
ATOM     25  C   UNL     1      33.838 -21.633 -19.285  0.00  0.00    +0.000 C 
ATOM     26  C   UNL     1      35.214 -21.616 -19.514  0.00  0.00    +0.000 C 
ATOM     27  C   UNL     1      32.984 -20.909 -20.116  0.00  0.00    +0.000 C 
BRANCH  25  28
ATOM     28  C   UNL     1      33.296 -22.403 -18.186  0.00  0.00    +0.000 C 
ATOM     29  C   UNL     1      31.919 -22.416 -17.957  0.00  0.00    +0.003 C 
ATOM     30  C   UNL     1      34.148 -23.130 -17.355  0.00  0.00    +0.003 C 
ATOM     31  C   UNL     1      31.396 -23.156 -16.897  0.00  0.00    +0.037 C 
ATOM     32  C   UNL     1      33.624 -23.870 -16.295  0.00  0.00    +0.037 C 
ATOM     33  C   UNL     1      32.248 -23.883 -16.066  0.00  0.00    +0.139 C 
BRANCH  33  34
ATOM     34  O   UNL     1      31.736 -24.607 -15.033  0.00  0.00    -0.475 OA
BRANCH  34  35
ATOM     35  C   UNL     1      30.338 -24.479 -14.781  0.00  0.00    +0.206 C 
ATOM     36  C   UNL     1      29.656 -25.793 -15.101  0.00  0.00    +0.051 C 
ENDBRANCH  34  35
ENDBRANCH  33  34
ENDBRANCH  25  28
ENDBRANCH  21  22
ENDBRANCH  19  21
ENDBRANCH   1  19
TORSDOF 11
ENDMDL
