MODEL 1
REMARK VINA RESULT:     -11.3      0.000      0.000
REMARK  Name = 9799284
REMARK  5 active torsions:
REMARK  status: ('A' for Active; 'I' for Inactive)
REMARK    1  A    between atoms: N_1  and  C_19
REMARK    2  A    between atoms: C_2  and  C_8
REMARK    3  A    between atoms: C_8  and  N_10
REMARK    4  A    between atoms: C_19  and  C_21
REMARK    5  A    between atoms: C_21  and  C_23
REMARK                            x       y       z     vdW  Elec       q    Type
REMARK                         _______ _______ _______ _____ _____    ______ ____
ROOT
ATOM      1  N   UNL     1      34.023 -14.535 -24.363  0.00  0.00    +0.392 N 
ATOM      2  C   UNL     1      34.827 -17.110 -23.216  0.00  0.00    +0.016 C 
ATOM      3  C   UNL     1      34.849 -16.839 -24.724  0.00  0.00    -0.021 C 
ATOM      4  C   UNL     1      34.963 -15.789 -22.449  0.00  0.00    -0.021 C 
ATOM      5  C   UNL     1      33.816 -15.780 -25.114  0.00  0.00    -0.077 C 
ATOM      6  C   UNL     1      33.926 -14.766 -22.915  0.00  0.00    -0.077 C 
ATOM      7  H   UNL     1      34.964 -14.198 -24.566  0.00  0.00    -0.079 HD
ENDROOT
BRANCH   2   8
ATOM      8  C   UNL     1      35.926 -18.091 -22.817  0.00  0.00    +0.094 C 
BRANCH   8  10
ATOM      9  O   UNL     1      37.400 -19.842 -20.848  0.00  0.00    -0.270 OA
ATOM     10  N   UNL     1      35.427 -19.081 -21.911  0.00  0.00    -0.272 N 
ATOM     11  C   UNL     1      33.998 -19.395 -21.816  0.00  0.00    +0.121 C 
ATOM     12  C   UNL     1      36.196 -19.848 -21.028  0.00  0.00    +0.249 C 
ATOM     13  C   UNL     1      33.970 -20.453 -20.766  0.00  0.00    +0.002 C 
ATOM     14  C   UNL     1      35.261 -20.717 -20.306  0.00  0.00    +0.051 C 
ATOM     15  C   UNL     1      32.890 -21.140 -20.247  0.00  0.00    -0.002 C 
ATOM     16  C   UNL     1      35.526 -21.656 -19.329  0.00  0.00    +0.004 C 
ATOM     17  C   UNL     1      33.131 -22.097 -19.256  0.00  0.00    -0.000 C 
ATOM     18  C   UNL     1      34.438 -22.353 -18.801  0.00  0.00    +0.000 C 
ENDBRANCH   8  10
ENDBRANCH   2   8
BRANCH   1  19
ATOM     19  C   UNL     1      33.061 -13.517 -24.784  0.00  0.00    -0.006 C 
BRANCH  19  21
ATOM     20  O   UNL     1      33.807 -13.109 -27.043  0.00  0.00    -0.294 OA
ATOM     21  C   UNL     1      33.674 -12.686 -25.897  0.00  0.00    +0.152 C 
BRANCH  21  23
ATOM     22  F   UNL     1      35.373  -7.500 -24.715  0.00  0.00    -0.204 F 
ATOM     23  C   UNL     1      34.129 -11.299 -25.580  0.00  0.00    +0.033 C 
ATOM     24  C   UNL     1      34.884 -10.625 -26.513  0.00  0.00    +0.005 C 
ATOM     25  C   UNL     1      33.775 -10.750 -24.370  0.00  0.00    +0.005 C 
ATOM     26  C   UNL     1      35.308  -9.329 -26.218  0.00  0.00    +0.030 C 
ATOM     27  C   UNL     1      34.198  -9.455 -24.075  0.00  0.00    +0.030 C 
ATOM     28  C   UNL     1      34.966  -8.744 -24.998  0.00  0.00    +0.140 C 
ENDBRANCH  21  23
ENDBRANCH  19  21
ENDBRANCH   1  19
TORSDOF 5
ENDMDL
MODEL 2
REMARK VINA RESULT:     -11.3      3.300     10.079
REMARK  Name = 9799284
REMARK  5 active torsions:
REMARK  status: ('A' for Active; 'I' for Inactive)
REMARK    1  A    between atoms: N_1  and  C_19
REMARK    2  A    between atoms: C_2  and  C_8
REMARK    3  A    between atoms: C_8  and  N_10
REMARK    4  A    between atoms: C_19  and  C_21
REMARK    5  A    between atoms: C_21  and  C_23
REMARK                            x       y       z     vdW  Elec       q    Type
REMARK                         _______ _______ _______ _____ _____    ______ ____
ROOT
ATOM      1  N   UNL     1      34.817 -17.854 -23.325  0.00  0.00    +0.392 N 
ATOM      2  C   UNL     1      33.968 -15.259 -24.393  0.00  0.00    +0.016 C 
ATOM      3  C   UNL     1      33.514 -16.589 -25.005  0.00  0.00    -0.021 C 
ATOM      4  C   UNL     1      34.327 -15.463 -22.917  0.00  0.00    -0.021 C 
ATOM      5  C   UNL     1      34.542 -17.694 -24.759  0.00  0.00    -0.077 C 
ATOM      6  C   UNL     1      35.329 -16.606 -22.741  0.00  0.00    -0.077 C 
ATOM      7  H   UNL     1      33.939 -18.082 -22.859  0.00  0.00    -0.079 HD
ENDROOT
BRANCH   2   8
ATOM      8  C   UNL     1      32.894 -14.186 -24.553  0.00  0.00    +0.094 C 
BRANCH   8  10
ATOM      9  O   UNL     1      33.955 -13.188 -27.198  0.00  0.00    -0.270 OA
ATOM     10  N   UNL     1      33.478 -12.923 -24.895  0.00  0.00    -0.272 N 
ATOM     11  C   UNL     1      33.647 -11.854 -23.907  0.00  0.00    +0.121 C 
ATOM     12  C   UNL     1      33.944 -12.551 -26.162  0.00  0.00    +0.249 C 
ATOM     13  C   UNL     1      34.276 -10.769 -24.711  0.00  0.00    +0.002 C 
ATOM     14  C   UNL     1      34.449 -11.180 -26.033  0.00  0.00    +0.051 C 
ATOM     15  C   UNL     1      34.671  -9.505 -24.316  0.00  0.00    -0.002 C 
ATOM     16  C   UNL     1      35.011 -10.368 -27.000  0.00  0.00    +0.004 C 
ATOM     17  C   UNL     1      35.244  -8.663 -25.275  0.00  0.00    -0.000 C 
ATOM     18  C   UNL     1      35.412  -9.091 -26.605  0.00  0.00    +0.000 C 
ENDBRANCH   8  10
ENDBRANCH   2   8
BRANCH   1  19
ATOM     19  C   UNL     1      35.762 -18.947 -23.103  0.00  0.00    -0.006 C 
BRANCH  19  21
ATOM     20  O   UNL     1      36.821 -18.525 -20.976  0.00  0.00    -0.294 OA
ATOM     21  C   UNL     1      35.963 -19.134 -21.610  0.00  0.00    +0.152 C 
BRANCH  21  23
ATOM     22  F   UNL     1      32.657 -22.740 -18.918  0.00  0.00    -0.204 F 
ATOM     23  C   UNL     1      35.079 -20.099 -20.889  0.00  0.00    +0.033 C 
ATOM     24  C   UNL     1      33.716 -19.970 -21.026  0.00  0.00    +0.005 C 
ATOM     25  C   UNL     1      35.661 -21.077 -20.118  0.00  0.00    +0.005 C 
ATOM     26  C   UNL     1      32.889 -20.871 -20.354  0.00  0.00    +0.030 C 
ATOM     27  C   UNL     1      34.837 -21.978 -19.447  0.00  0.00    +0.030 C 
ATOM     28  C   UNL     1      33.450 -21.875 -19.564  0.00  0.00    +0.140 C 
ENDBRANCH  21  23
ENDBRANCH  19  21
ENDBRANCH   1  19
TORSDOF 5
ENDMDL
MODEL 3
REMARK VINA RESULT:     -11.2      1.164      1.659
REMARK  Name = 9799284
REMARK  5 active torsions:
REMARK  status: ('A' for Active; 'I' for Inactive)
REMARK    1  A    between atoms: N_1  and  C_19
REMARK    2  A    between atoms: C_2  and  C_8
REMARK    3  A    between atoms: C_8  and  N_10
REMARK    4  A    between atoms: C_19  and  C_21
REMARK    5  A    between atoms: C_21  and  C_23
REMARK                            x       y       z     vdW  Elec       q    Type
REMARK                         _______ _______ _______ _____ _____    ______ ____
ROOT
ATOM      1  N   UNL     1      34.019 -13.859 -23.742  0.00  0.00    +0.392 N 
ATOM      2  C   UNL     1      34.649 -16.689 -23.307  0.00  0.00    +0.016 C 
ATOM      3  C   UNL     1      34.623 -16.058 -24.703  0.00  0.00    -0.021 C 
ATOM      4  C   UNL     1      34.937 -15.611 -22.256  0.00  0.00    -0.021 C 
ATOM      5  C   UNL     1      33.668 -14.864 -24.755  0.00  0.00    -0.077 C 
ATOM      6  C   UNL     1      33.972 -14.432 -22.389  0.00  0.00    -0.077 C 
ATOM      7  H   UNL     1      34.975 -13.552 -23.920  0.00  0.00    -0.079 HD
ENDROOT
BRANCH   2   8
ATOM      8  C   UNL     1      35.677 -17.816 -23.232  0.00  0.00    +0.094 C 
BRANCH   8  10
ATOM      9  O   UNL     1      37.348 -19.424 -21.299  0.00  0.00    -0.270 OA
ATOM     10  N   UNL     1      35.283 -18.808 -22.278  0.00  0.00    -0.272 N 
ATOM     11  C   UNL     1      33.882 -19.202 -22.103  0.00  0.00    +0.121 C 
ATOM     12  C   UNL     1      36.139 -19.505 -21.417  0.00  0.00    +0.249 C 
ATOM     13  C   UNL     1      33.969 -20.230 -21.028  0.00  0.00    +0.002 C 
ATOM     14  C   UNL     1      35.294 -20.406 -20.628  0.00  0.00    +0.051 C 
ATOM     15  C   UNL     1      32.958 -20.965 -20.437  0.00  0.00    -0.002 C 
ATOM     16  C   UNL     1      35.663 -21.302 -19.643  0.00  0.00    +0.004 C 
ATOM     17  C   UNL     1      33.305 -21.879 -19.437  0.00  0.00    -0.000 C 
ATOM     18  C   UNL     1      34.646 -22.046 -19.044  0.00  0.00    +0.000 C 
ENDBRANCH   8  10
ENDBRANCH   2   8
BRANCH   1  19
ATOM     19  C   UNL     1      33.130 -12.702 -23.838  0.00  0.00    -0.006 C 
BRANCH  19  21
ATOM     20  O   UNL     1      34.478 -11.803 -25.627  0.00  0.00    -0.294 OA
ATOM     21  C   UNL     1      33.838 -11.595 -24.599  0.00  0.00    +0.152 C 
BRANCH  21  23
ATOM     22  F   UNL     1      33.499  -6.383 -22.626  0.00  0.00    -0.204 F 
ATOM     23  C   UNL     1      33.747 -10.201 -24.072  0.00  0.00    +0.033 C 
ATOM     24  C   UNL     1      32.647  -9.851 -23.323  0.00  0.00    +0.005 C 
ATOM     25  C   UNL     1      34.766  -9.322 -24.355  0.00  0.00    +0.005 C 
ATOM     26  C   UNL     1      32.562  -8.549 -22.829  0.00  0.00    +0.030 C 
ATOM     27  C   UNL     1      34.682  -8.020 -23.862  0.00  0.00    +0.030 C 
ATOM     28  C   UNL     1      33.580  -7.633 -23.099  0.00  0.00    +0.140 C 
ENDBRANCH  21  23
ENDBRANCH  19  21
ENDBRANCH   1  19
TORSDOF 5
ENDMDL
MODEL 4
REMARK VINA RESULT:     -11.0      3.313      6.059
REMARK  Name = 9799284
REMARK  5 active torsions:
REMARK  status: ('A' for Active; 'I' for Inactive)
REMARK    1  A    between atoms: N_1  and  C_19
REMARK    2  A    between atoms: C_2  and  C_8
REMARK    3  A    between atoms: C_8  and  N_10
REMARK    4  A    between atoms: C_19  and  C_21
REMARK    5  A    between atoms: C_21  and  C_23
REMARK                            x       y       z     vdW  Elec       q    Type
REMARK                         _______ _______ _______ _____ _____    ______ ____
ROOT
ATOM      1  N   UNL     1      35.206 -19.799 -21.467  0.00  0.00    +0.392 N 
ATOM      2  C   UNL     1      34.284 -21.772 -19.504  0.00  0.00    +0.016 C 
ATOM      3  C   UNL     1      33.347 -21.145 -20.542  0.00  0.00    -0.021 C 
ATOM      4  C   UNL     1      35.727 -21.737 -20.019  0.00  0.00    -0.021 C 
ATOM      5  C   UNL     1      33.829 -19.754 -20.958  0.00  0.00    -0.077 C 
ATOM      6  C   UNL     1      36.129 -20.326 -20.452  0.00  0.00    -0.077 C 
ATOM      7  H   UNL     1      35.225 -20.431 -22.268  0.00  0.00    -0.079 HD
ENDROOT
BRANCH   2   8
ATOM      8  C   UNL     1      33.856 -23.198 -19.167  0.00  0.00    +0.094 C 
BRANCH   8  10
ATOM      9  O   UNL     1      35.077 -23.900 -16.497  0.00  0.00    -0.270 OA
ATOM     10  N   UNL     1      33.257 -23.261 -17.868  0.00  0.00    -0.272 N 
ATOM     11  C   UNL     1      31.838 -22.961 -17.653  0.00  0.00    +0.121 C 
ATOM     12  C   UNL     1      33.911 -23.599 -16.678  0.00  0.00    +0.249 C 
ATOM     13  C   UNL     1      31.688 -23.153 -16.183  0.00  0.00    +0.002 C 
ATOM     14  C   UNL     1      32.905 -23.528 -15.613  0.00  0.00    +0.051 C 
ATOM     15  C   UNL     1      30.562 -23.011 -15.394  0.00  0.00    -0.002 C 
ATOM     16  C   UNL     1      33.053 -23.772 -14.262  0.00  0.00    +0.004 C 
ATOM     17  C   UNL     1      30.684 -23.253 -14.021  0.00  0.00    -0.000 C 
ATOM     18  C   UNL     1      31.919 -23.630 -13.461  0.00  0.00    +0.000 C 
ENDBRANCH   8  10
ENDBRANCH   2   8
BRANCH   1  19
ATOM     19  C   UNL     1      35.633 -18.472 -21.908  0.00  0.00    -0.006 C 
BRANCH  19  21
ATOM     20  O   UNL     1      34.932 -19.075 -24.137  0.00  0.00    -0.294 OA
ATOM     21  C   UNL     1      35.058 -18.198 -23.286  0.00  0.00    +0.152 C 
BRANCH  21  23
ATOM     22  F   UNL     1      33.458 -12.991 -24.511  0.00  0.00    -0.204 F 
ATOM     23  C   UNL     1      34.631 -16.805 -23.614  0.00  0.00    +0.033 C 
ATOM     24  C   UNL     1      34.148 -16.545 -24.876  0.00  0.00    +0.005 C 
ATOM     25  C   UNL     1      34.736 -15.838 -22.642  0.00  0.00    +0.005 C 
ATOM     26  C   UNL     1      33.747 -15.244 -25.182  0.00  0.00    +0.030 C 
ATOM     27  C   UNL     1      34.336 -14.538 -22.946  0.00  0.00    +0.030 C 
ATOM     28  C   UNL     1      33.842 -14.240 -24.217  0.00  0.00    +0.140 C 
ENDBRANCH  21  23
ENDBRANCH  19  21
ENDBRANCH   1  19
TORSDOF 5
ENDMDL
MODEL 5
REMARK VINA RESULT:     -11.0      3.634     10.284
REMARK  Name = 9799284
REMARK  5 active torsions:
REMARK  status: ('A' for Active; 'I' for Inactive)
REMARK    1  A    between atoms: N_1  and  C_19
REMARK    2  A    between atoms: C_2  and  C_8
REMARK    3  A    between atoms: C_8  and  N_10
REMARK    4  A    between atoms: C_19  and  C_21
REMARK    5  A    between atoms: C_21  and  C_23
REMARK                            x       y       z     vdW  Elec       q    Type
REMARK                         _______ _______ _______ _____ _____    ______ ____
ROOT
ATOM      1  N   UNL     1      34.607 -16.521 -22.464  0.00  0.00    +0.392 N 
ATOM      2  C   UNL     1      33.933 -13.924 -23.646  0.00  0.00    +0.016 C 
ATOM      3  C   UNL     1      34.043 -15.204 -24.481  0.00  0.00    -0.021 C 
ATOM      4  C   UNL     1      33.593 -14.280 -22.195  0.00  0.00    -0.021 C 
ATOM      5  C   UNL     1      35.008 -16.204 -23.841  0.00  0.00    -0.077 C 
ATOM      6  C   UNL     1      34.572 -15.311 -21.631  0.00  0.00    -0.077 C 
ATOM      7  H   UNL     1      33.664 -16.910 -22.492  0.00  0.00    -0.079 HD
ENDROOT
BRANCH   2   8
ATOM      8  C   UNL     1      32.895 -12.972 -24.235  0.00  0.00    +0.094 C 
BRANCH   8  10
ATOM      9  O   UNL     1      31.759 -10.720 -22.575  0.00  0.00    -0.270 OA
ATOM     10  N   UNL     1      33.321 -11.610 -24.114  0.00  0.00    -0.272 N 
ATOM     11  C   UNL     1      34.476 -11.091 -24.852  0.00  0.00    +0.121 C 
ATOM     12  C   UNL     1      32.725 -10.631 -23.311  0.00  0.00    +0.249 C 
ATOM     13  C   UNL     1      34.528  -9.668 -24.411  0.00  0.00    +0.002 C 
ATOM     14  C   UNL     1      33.499  -9.401 -23.507  0.00  0.00    +0.051 C 
ATOM     15  C   UNL     1      35.413  -8.672 -24.775  0.00  0.00    -0.002 C 
ATOM     16  C   UNL     1      33.311  -8.157 -22.937  0.00  0.00    +0.004 C 
ATOM     17  C   UNL     1      35.245  -7.403 -24.212  0.00  0.00    -0.000 C 
ATOM     18  C   UNL     1      34.203  -7.148 -23.301  0.00  0.00    +0.000 C 
ENDBRANCH   8  10
ENDBRANCH   2   8
BRANCH   1  19
ATOM     19  C   UNL     1      35.507 -17.516 -21.884  0.00  0.00    -0.006 C 
BRANCH  19  21
ATOM     20  O   UNL     1      35.164 -19.229 -23.549  0.00  0.00    -0.294 OA
ATOM     21  C   UNL     1      35.100 -18.896 -22.368  0.00  0.00    +0.152 C 
BRANCH  21  23
ATOM     22  F   UNL     1      33.240 -22.590 -18.617  0.00  0.00    -0.204 F 
ATOM     23  C   UNL     1      34.603 -19.884 -21.364  0.00  0.00    +0.033 C 
ATOM     24  C   UNL     1      33.245 -19.996 -21.167  0.00  0.00    +0.005 C 
ATOM     25  C   UNL     1      35.520 -20.643 -20.676  0.00  0.00    +0.005 C 
ATOM     26  C   UNL     1      32.780 -20.919 -20.231  0.00  0.00    +0.030 C 
ATOM     27  C   UNL     1      35.057 -21.566 -19.740  0.00  0.00    +0.030 C 
ATOM     28  C   UNL     1      33.686 -21.704 -19.517  0.00  0.00    +0.140 C 
ENDBRANCH  21  23
ENDBRANCH  19  21
ENDBRANCH   1  19
TORSDOF 5
ENDMDL
MODEL 6
REMARK VINA RESULT:     -10.9      3.560     10.100
REMARK  Name = 9799284
REMARK  5 active torsions:
REMARK  status: ('A' for Active; 'I' for Inactive)
REMARK    1  A    between atoms: N_1  and  C_19
REMARK    2  A    between atoms: C_2  and  C_8
REMARK    3  A    between atoms: C_8  and  N_10
REMARK    4  A    between atoms: C_19  and  C_21
REMARK    5  A    between atoms: C_21  and  C_23
REMARK                            x       y       z     vdW  Elec       q    Type
REMARK                         _______ _______ _______ _____ _____    ______ ____
ROOT
ATOM      1  N   UNL     1      34.055 -15.842 -24.049  0.00  0.00    +0.392 N 
ATOM      2  C   UNL     1      33.405 -13.037 -23.495  0.00  0.00    +0.016 C 
ATOM      3  C   UNL     1      32.903 -13.766 -24.746  0.00  0.00    -0.021 C 
ATOM      4  C   UNL     1      33.684 -14.052 -22.381  0.00  0.00    -0.021 C 
ATOM      5  C   UNL     1      33.855 -14.893 -25.152  0.00  0.00    -0.077 C 
ATOM      6  C   UNL     1      34.610 -15.169 -22.866  0.00  0.00    -0.077 C 
ATOM      7  H   UNL     1      33.144 -16.225 -23.794  0.00  0.00    -0.079 HD
ENDROOT
BRANCH   2   8
ATOM      8  C   UNL     1      32.403 -11.981 -23.036  0.00  0.00    +0.094 C 
BRANCH   8  10
ATOM      9  O   UNL     1      31.435  -9.300 -22.039  0.00  0.00    -0.270 OA
ATOM     10  N   UNL     1      32.876 -10.662 -23.332  0.00  0.00    -0.272 N 
ATOM     11  C   UNL     1      34.001 -10.427 -24.242  0.00  0.00    +0.121 C 
ATOM     12  C   UNL     1      32.358  -9.468 -22.815  0.00  0.00    +0.249 C 
ATOM     13  C   UNL     1      34.120  -8.942 -24.231  0.00  0.00    +0.002 C 
ATOM     14  C   UNL     1      33.155  -8.382 -23.393  0.00  0.00    +0.051 C 
ATOM     15  C   UNL     1      35.012  -8.132 -24.907  0.00  0.00    -0.002 C 
ATOM     16  C   UNL     1      33.039  -7.020 -23.195  0.00  0.00    +0.004 C 
ATOM     17  C   UNL     1      34.916  -6.748 -24.725  0.00  0.00    -0.000 C 
ATOM     18  C   UNL     1      33.938  -6.197 -23.876  0.00  0.00    +0.000 C 
ENDBRANCH   8  10
ENDBRANCH   2   8
BRANCH   1  19
ATOM     19  C   UNL     1      34.924 -16.940 -24.468  0.00  0.00    -0.006 C 
BRANCH  19  21
ATOM     20  O   UNL     1      33.389 -18.801 -24.526  0.00  0.00    -0.294 OA
ATOM     21  C   UNL     1      34.341 -18.251 -23.975  0.00  0.00    +0.152 C 
BRANCH  21  23
ATOM     22  F   UNL     1      36.625 -20.650 -19.481  0.00  0.00    -0.204 F 
ATOM     23  C   UNL     1      34.952 -18.894 -22.774  0.00  0.00    +0.033 C 
ATOM     24  C   UNL     1      36.268 -18.621 -22.480  0.00  0.00    +0.005 C 
ATOM     25  C   UNL     1      34.175 -19.731 -22.008  0.00  0.00    +0.005 C 
ATOM     26  C   UNL     1      36.839 -19.220 -21.356  0.00  0.00    +0.030 C 
ATOM     27  C   UNL     1      34.745 -20.330 -20.885  0.00  0.00    +0.030 C 
ATOM     28  C   UNL     1      36.077 -20.075 -20.559  0.00  0.00    +0.140 C 
ENDBRANCH  21  23
ENDBRANCH  19  21
ENDBRANCH   1  19
TORSDOF 5
ENDMDL
MODEL 7
REMARK VINA RESULT:     -10.8      4.665     10.926
REMARK  Name = 9799284
REMARK  5 active torsions:
REMARK  status: ('A' for Active; 'I' for Inactive)
REMARK    1  A    between atoms: N_1  and  C_19
REMARK    2  A    between atoms: C_2  and  C_8
REMARK    3  A    between atoms: C_8  and  N_10
REMARK    4  A    between atoms: C_19  and  C_21
REMARK    5  A    between atoms: C_21  and  C_23
REMARK                            x       y       z     vdW  Elec       q    Type
REMARK                         _______ _______ _______ _____ _____    ______ ____
ROOT
ATOM      1  N   UNL     1      35.030 -21.681 -19.610  0.00  0.00    +0.392 N 
ATOM      2  C   UNL     1      35.267 -19.535 -21.594  0.00  0.00    +0.016 C 
ATOM      3  C   UNL     1      36.476 -20.342 -21.106  0.00  0.00    -0.021 C 
ATOM      4  C   UNL     1      33.989 -20.366 -21.428  0.00  0.00    -0.021 C 
ATOM      5  C   UNL     1      36.254 -20.873 -19.688  0.00  0.00    -0.077 C 
ATOM      6  C   UNL     1      33.851 -20.896 -20.000  0.00  0.00    -0.077 C 
ATOM      7  H   UNL     1      35.123 -22.457 -20.265  0.00  0.00    -0.079 HD
ENDROOT
BRANCH   2   8
ATOM      8  C   UNL     1      35.450 -19.093 -23.043  0.00  0.00    +0.094 C 
BRANCH   8  10
ATOM      9  O   UNL     1      34.253 -17.771 -25.479  0.00  0.00    -0.270 OA
ATOM     10  N   UNL     1      34.993 -17.749 -23.231  0.00  0.00    -0.272 N 
ATOM     11  C   UNL     1      35.054 -16.752 -22.158  0.00  0.00    +0.121 C 
ATOM     12  C   UNL     1      34.448 -17.224 -24.409  0.00  0.00    +0.249 C 
ATOM     13  C   UNL     1      34.481 -15.541 -22.811  0.00  0.00    +0.002 C 
ATOM     14  C   UNL     1      34.126 -15.821 -24.131  0.00  0.00    +0.051 C 
ATOM     15  C   UNL     1      34.281 -14.278 -22.287  0.00  0.00    -0.002 C 
ATOM     16  C   UNL     1      33.569 -14.876 -24.970  0.00  0.00    +0.004 C 
ATOM     17  C   UNL     1      33.718 -13.302 -23.116  0.00  0.00    -0.000 C 
ATOM     18  C   UNL     1      33.365 -13.598 -24.445  0.00  0.00    +0.000 C 
ENDBRANCH   8  10
ENDBRANCH   2   8
BRANCH   1  19
ATOM     19  C   UNL     1      34.861 -22.224 -18.263  0.00  0.00    -0.006 C 
BRANCH  19  21
ATOM     20  O   UNL     1      33.467 -23.950 -19.212  0.00  0.00    -0.294 OA
ATOM     21  C   UNL     1      33.701 -23.203 -18.264  0.00  0.00    +0.152 C 
BRANCH  21  23
ATOM     22  F   UNL     1      30.384 -23.406 -13.778  0.00  0.00    -0.204 F 
ATOM     23  C   UNL     1      32.814 -23.256 -17.064  0.00  0.00    +0.033 C 
ATOM     24  C   UNL     1      31.464 -23.046 -17.233  0.00  0.00    +0.005 C 
ATOM     25  C   UNL     1      33.380 -23.515 -15.837  0.00  0.00    +0.005 C 
ATOM     26  C   UNL     1      30.635 -23.097 -16.112  0.00  0.00    +0.030 C 
ATOM     27  C   UNL     1      32.552 -23.566 -14.717  0.00  0.00    +0.030 C 
ATOM     28  C   UNL     1      31.180 -23.357 -14.854  0.00  0.00    +0.140 C 
ENDBRANCH  21  23
ENDBRANCH  19  21
ENDBRANCH   1  19
TORSDOF 5
ENDMDL
MODEL 8
REMARK VINA RESULT:     -10.6      3.567      6.482
REMARK  Name = 9799284
REMARK  5 active torsions:
REMARK  status: ('A' for Active; 'I' for Inactive)
REMARK    1  A    between atoms: N_1  and  C_19
REMARK    2  A    between atoms: C_2  and  C_8
REMARK    3  A    between atoms: C_8  and  N_10
REMARK    4  A    between atoms: C_19  and  C_21
REMARK    5  A    between atoms: C_21  and  C_23
REMARK                            x       y       z     vdW  Elec       q    Type
REMARK                         _______ _______ _______ _____ _____    ______ ____
ROOT
ATOM      1  N   UNL     1      35.121 -20.145 -21.495  0.00  0.00    +0.392 N 
ATOM      2  C   UNL     1      34.003 -21.667 -19.253  0.00  0.00    +0.016 C 
ATOM      3  C   UNL     1      33.122 -21.017 -20.326  0.00  0.00    -0.021 C 
ATOM      4  C   UNL     1      35.395 -21.951 -19.827  0.00  0.00    -0.021 C 
ATOM      5  C   UNL     1      33.806 -19.795 -20.940  0.00  0.00    -0.077 C 
ATOM      6  C   UNL     1      36.003 -20.698 -20.459  0.00  0.00    -0.077 C 
ATOM      7  H   UNL     1      34.981 -20.864 -22.206  0.00  0.00    -0.079 HD
ENDROOT
BRANCH   2   8
ATOM      8  C   UNL     1      33.361 -22.943 -18.714  0.00  0.00    +0.094 C 
BRANCH   8  10
ATOM      9  O   UNL     1      31.732 -23.950 -16.380  0.00  0.00    -0.270 OA
ATOM     10  N   UNL     1      33.745 -23.176 -17.354  0.00  0.00    -0.272 N 
ATOM     11  C   UNL     1      35.111 -22.933 -16.882  0.00  0.00    +0.121 C 
ATOM     12  C   UNL     1      32.910 -23.649 -16.335  0.00  0.00    +0.249 C 
ATOM     13  C   UNL     1      35.027 -23.312 -15.443  0.00  0.00    +0.002 C 
ATOM     14  C   UNL     1      33.735 -23.731 -15.125  0.00  0.00    +0.051 C 
ATOM     15  C   UNL     1      36.013 -23.291 -14.475  0.00  0.00    -0.002 C 
ATOM     16  C   UNL     1      33.375 -24.140 -13.855  0.00  0.00    +0.004 C 
ATOM     17  C   UNL     1      35.675 -23.701 -13.181  0.00  0.00    -0.000 C 
ATOM     18  C   UNL     1      34.368 -24.122 -12.874  0.00  0.00    +0.000 C 
ENDBRANCH   8  10
ENDBRANCH   2   8
BRANCH   1  19
ATOM     19  C   UNL     1      35.738 -18.979 -22.125  0.00  0.00    -0.006 C 
BRANCH  19  21
ATOM     20  O   UNL     1      34.698 -19.533 -24.231  0.00  0.00    -0.294 OA
ATOM     21  C   UNL     1      35.006 -18.666 -23.417  0.00  0.00    +0.152 C 
BRANCH  21  23
ATOM     22  F   UNL     1      33.658 -13.354 -24.487  0.00  0.00    -0.204 F 
ATOM     23  C   UNL     1      34.646 -17.245 -23.703  0.00  0.00    +0.033 C 
ATOM     24  C   UNL     1      34.123 -16.934 -24.938  0.00  0.00    +0.005 C 
ATOM     25  C   UNL     1      34.850 -16.303 -22.722  0.00  0.00    +0.005 C 
ATOM     26  C   UNL     1      33.785 -15.607 -25.205  0.00  0.00    +0.030 C 
ATOM     27  C   UNL     1      34.513 -14.977 -22.989  0.00  0.00    +0.030 C 
ATOM     28  C   UNL     1      33.981 -14.628 -24.231  0.00  0.00    +0.140 C 
ENDBRANCH  21  23
ENDBRANCH  19  21
ENDBRANCH   1  19
TORSDOF 5
ENDMDL
MODEL 9
REMARK VINA RESULT:     -10.6      7.336     13.461
REMARK  Name = 9799284
REMARK  5 active torsions:
REMARK  status: ('A' for Active; 'I' for Inactive)
REMARK    1  A    between atoms: N_1  and  C_19
REMARK    2  A    between atoms: C_2  and  C_8
REMARK    3  A    between atoms: C_8  and  N_10
REMARK    4  A    between atoms: C_19  and  C_21
REMARK    5  A    between atoms: C_21  and  C_23
REMARK                            x       y       z     vdW  Elec       q    Type
REMARK                         _______ _______ _______ _____ _____    ______ ____
ROOT
ATOM      1  N   UNL     1      34.650 -24.009 -14.045  0.00  0.00    +0.392 N 
ATOM      2  C   UNL     1      33.902 -23.127 -16.739  0.00  0.00    +0.016 C 
ATOM      3  C   UNL     1      35.360 -23.342 -16.319  0.00  0.00    -0.021 C 
ATOM      4  C   UNL     1      32.980 -23.990 -15.871  0.00  0.00    -0.021 C 
ATOM      5  C   UNL     1      35.542 -23.132 -14.815  0.00  0.00    -0.077 C 
ATOM      6  C   UNL     1      33.242 -23.759 -14.381  0.00  0.00    -0.077 C 
ATOM      7  H   UNL     1      34.866 -24.975 -14.294  0.00  0.00    -0.079 HD
ENDROOT
BRANCH   2   8
ATOM      8  C   UNL     1      33.706 -23.434 -18.221  0.00  0.00    +0.094 C 
BRANCH   8  10
ATOM      9  O   UNL     1      32.219 -21.556 -20.059  0.00  0.00    -0.270 OA
ATOM     10  N   UNL     1      34.195 -22.364 -19.037  0.00  0.00    -0.272 N 
ATOM     11  C   UNL     1      35.617 -22.011 -19.083  0.00  0.00    +0.121 C 
ATOM     12  C   UNL     1      33.420 -21.541 -19.863  0.00  0.00    +0.249 C 
ATOM     13  C   UNL     1      35.635 -20.868 -20.039  0.00  0.00    +0.002 C 
ATOM     14  C   UNL     1      34.345 -20.595 -20.495  0.00  0.00    +0.051 C 
ATOM     15  C   UNL     1      36.706 -20.116 -20.482  0.00  0.00    -0.002 C 
ATOM     16  C   UNL     1      34.071 -19.582 -21.393  0.00  0.00    +0.004 C 
ATOM     17  C   UNL     1      36.456 -19.084 -21.392  0.00  0.00    -0.000 C 
ATOM     18  C   UNL     1      35.150 -18.819 -21.843  0.00  0.00    +0.000 C 
ENDBRANCH   8  10
ENDBRANCH   2   8
BRANCH   1  19
ATOM     19  C   UNL     1      34.873 -23.835 -12.611  0.00  0.00    -0.006 C 
BRANCH  19  21
ATOM     20  O   UNL     1      35.568 -25.543 -11.053  0.00  0.00    -0.294 OA
ATOM     21  C   UNL     1      35.774 -24.949 -12.109  0.00  0.00    +0.152 C 
BRANCH  21  23
ATOM     22  F   UNL     1      40.190 -26.386 -15.208  0.00  0.00    -0.204 F 
ATOM     23  C   UNL     1      36.956 -25.334 -12.937  0.00  0.00    +0.033 C 
ATOM     24  C   UNL     1      36.819 -26.364 -13.840  0.00  0.00    +0.005 C 
ATOM     25  C   UNL     1      38.133 -24.644 -12.766  0.00  0.00    +0.005 C 
ATOM     26  C   UNL     1      37.923 -26.722 -14.615  0.00  0.00    +0.030 C 
ATOM     27  C   UNL     1      39.236 -25.001 -13.540  0.00  0.00    +0.030 C 
ATOM     28  C   UNL     1      39.131 -26.041 -14.465  0.00  0.00    +0.140 C 
ENDBRANCH  21  23
ENDBRANCH  19  21
ENDBRANCH   1  19
TORSDOF 5
ENDMDL
