MODEL 1
REMARK VINA RESULT:     -11.4      0.000      0.000
REMARK  Name = 5326930
REMARK  4 active torsions:
REMARK  status: ('A' for Active; 'I' for Inactive)
REMARK    1  A    between atoms: C_7  and  C_21
REMARK    2  A    between atoms: C_21  and  C_22
REMARK    3  A    between atoms: C_22  and  C_23
REMARK    4  A    between atoms: C_28  and  O_29
REMARK                            x       y       z     vdW  Elec       q    Type
REMARK                         _______ _______ _______ _____ _____    ______ ____
ROOT
ATOM      1  O   UNL     1      34.568 -25.028 -12.169  0.00  0.00    -0.209 OA
ATOM      2  N   UNL     1      34.507 -23.015 -15.631  0.00  0.00    -0.275 N 
ATOM      3  N   UNL     1      29.755 -25.416 -14.242  0.00  0.00    -0.315 N 
ATOM      4  N   UNL     1      29.753 -24.290 -16.157  0.00  0.00    -0.316 N 
ATOM      5  N   UNL     1      35.691 -23.752 -13.704  0.00  0.00    -0.302 NA
ATOM      6  N   UNL     1      36.709 -22.441 -15.357  0.00  0.00    -0.320 N 
ATOM      7  C   UNL     1      32.164 -23.567 -16.021  0.00  0.00    +0.007 C 
ATOM      8  C   UNL     1      33.322 -23.644 -15.233  0.00  0.00    +0.060 C 
ATOM      9  C   UNL     1      30.998 -24.217 -15.576  0.00  0.00    +0.056 C 
ATOM     10  C   UNL     1      31.026 -24.916 -14.373  0.00  0.00    +0.060 C 
ATOM     11  C   UNL     1      33.311 -24.358 -14.025  0.00  0.00    +0.109 C 
ATOM     12  C   UNL     1      32.159 -25.013 -13.564  0.00  0.00    +0.029 C 
ATOM     13  C   UNL     1      34.570 -24.406 -13.227  0.00  0.00    +0.208 C 
ATOM     14  C   UNL     1      29.034 -25.016 -15.331  0.00  0.00    +0.182 C 
ATOM     15  C   UNL     1      35.628 -23.107 -14.838  0.00  0.00    +0.248 C 
ATOM     16  H   UNL     1      34.537 -22.510 -16.475  0.00  0.00    +0.156 HD
ATOM     17  H   UNL     1      29.424 -25.965 -13.496  0.00  0.00    +0.148 HD
ATOM     18  H   UNL     1      29.464 -23.886 -17.007  0.00  0.00    +0.148 HD
ATOM     19  H   UNL     1      36.629 -21.964 -16.214  0.00  0.00    +0.146 HD
ATOM     20  H   UNL     1      37.566 -22.440 -14.871  0.00  0.00    +0.146 HD
ENDROOT
BRANCH   7  21
ATOM     21  C   UNL     1      32.169 -22.808 -17.310  0.00  0.00    +0.034 C 
BRANCH  21  22
ATOM     22  C   UNL     1      33.214 -23.308 -18.324  0.00  0.00    +0.031 C 
BRANCH  22  23
ATOM     23  C   UNL     1      33.724 -22.221 -19.239  0.00  0.00    -0.022 C 
ATOM     24  C   UNL     1      32.817 -21.403 -19.893  0.00  0.00    -0.001 C 
ATOM     25  C   UNL     1      35.089 -22.063 -19.411  0.00  0.00    -0.001 C 
ATOM     26  C   UNL     1      33.287 -20.399 -20.739  0.00  0.00    +0.037 C 
ATOM     27  C   UNL     1      35.560 -21.059 -20.258  0.00  0.00    +0.037 C 
ATOM     28  C   UNL     1      34.659 -20.227 -20.921  0.00  0.00    +0.139 C 
BRANCH  28  29
ATOM     29  O   UNL     1      35.118 -19.248 -21.748  0.00  0.00    -0.471 OA
ATOM     30  C   UNL     1      34.613 -19.233 -23.082  0.00  0.00    +0.252 C 
ENDBRANCH  28  29
ENDBRANCH  22  23
ENDBRANCH  21  22
ENDBRANCH   7  21
TORSDOF 4
ENDMDL
MODEL 2
REMARK VINA RESULT:     -11.1      1.761      4.226
REMARK  Name = 5326930
REMARK  4 active torsions:
REMARK  status: ('A' for Active; 'I' for Inactive)
REMARK    1  A    between atoms: C_7  and  C_21
REMARK    2  A    between atoms: C_21  and  C_22
REMARK    3  A    between atoms: C_22  and  C_23
REMARK    4  A    between atoms: C_28  and  O_29
REMARK                            x       y       z     vdW  Elec       q    Type
REMARK                         _______ _______ _______ _____ _____    ______ ____
ROOT
ATOM      1  O   UNL     1      28.612 -25.706 -14.114  0.00  0.00    -0.209 OA
ATOM      2  N   UNL     1      29.629 -23.234 -17.097  0.00  0.00    -0.275 N 
ATOM      3  N   UNL     1      33.817 -24.992 -13.991  0.00  0.00    -0.315 N 
ATOM      4  N   UNL     1      34.348 -23.619 -15.656  0.00  0.00    -0.316 N 
ATOM      5  N   UNL     1      27.957 -24.426 -15.896  0.00  0.00    -0.302 NA
ATOM      6  N   UNL     1      27.434 -23.078 -17.739  0.00  0.00    -0.320 N 
ATOM      7  C   UNL     1      31.992 -23.330 -16.499  0.00  0.00    +0.007 C 
ATOM      8  C   UNL     1      30.659 -23.709 -16.277  0.00  0.00    +0.060 C 
ATOM      9  C   UNL     1      32.990 -23.836 -15.648  0.00  0.00    +0.056 C 
ATOM     10  C   UNL     1      32.630 -24.693 -14.613  0.00  0.00    +0.060 C 
ATOM     11  C   UNL     1      30.336 -24.577 -15.223  0.00  0.00    +0.109 C 
ATOM     12  C   UNL     1      31.317 -25.092 -14.362  0.00  0.00    +0.029 C 
ATOM     13  C   UNL     1      28.904 -24.947 -15.034  0.00  0.00    +0.208 C 
ATOM     14  C   UNL     1      34.813 -24.326 -14.650  0.00  0.00    +0.182 C 
ATOM     15  C   UNL     1      28.331 -23.623 -16.856  0.00  0.00    +0.248 C 
ATOM     16  H   UNL     1      29.833 -22.624 -17.842  0.00  0.00    +0.156 HD
ATOM     17  H   UNL     1      33.930 -25.579 -13.210  0.00  0.00    +0.148 HD
ATOM     18  H   UNL     1      34.862 -23.056 -16.280  0.00  0.00    +0.148 HD
ATOM     19  H   UNL     1      27.748 -22.476 -18.452  0.00  0.00    +0.146 HD
ATOM     20  H   UNL     1      26.475 -23.289 -17.660  0.00  0.00    +0.146 HD
ENDROOT
BRANCH   7  21
ATOM     21  C   UNL     1      32.343 -22.405 -17.622  0.00  0.00    +0.034 C 
BRANCH  21  22
ATOM     22  C   UNL     1      33.341 -23.000 -18.632  0.00  0.00    +0.031 C 
BRANCH  22  23
ATOM     23  C   UNL     1      34.026 -21.956 -19.479  0.00  0.00    -0.022 C 
ATOM     24  C   UNL     1      35.410 -21.901 -19.503  0.00  0.00    -0.001 C 
ATOM     25  C   UNL     1      33.258 -21.070 -20.217  0.00  0.00    -0.001 C 
ATOM     26  C   UNL     1      36.044 -20.936 -20.285  0.00  0.00    +0.037 C 
ATOM     27  C   UNL     1      33.891 -20.104 -21.000  0.00  0.00    +0.037 C 
ATOM     28  C   UNL     1      35.284 -20.038 -21.034  0.00  0.00    +0.139 C 
BRANCH  28  29
ATOM     29  O   UNL     1      35.901 -19.095 -21.797  0.00  0.00    -0.471 OA
ATOM     30  C   UNL     1      35.340 -17.784 -21.791  0.00  0.00    +0.252 C 
ENDBRANCH  28  29
ENDBRANCH  22  23
ENDBRANCH  21  22
ENDBRANCH   7  21
TORSDOF 4
ENDMDL
MODEL 3
REMARK VINA RESULT:     -10.8      1.681      2.169
REMARK  Name = 5326930
REMARK  4 active torsions:
REMARK  status: ('A' for Active; 'I' for Inactive)
REMARK    1  A    between atoms: C_7  and  C_21
REMARK    2  A    between atoms: C_21  and  C_22
REMARK    3  A    between atoms: C_22  and  C_23
REMARK    4  A    between atoms: C_28  and  O_29
REMARK                            x       y       z     vdW  Elec       q    Type
REMARK                         _______ _______ _______ _____ _____    ______ ____
ROOT
ATOM      1  O   UNL     1      36.194 -25.817 -11.769  0.00  0.00    -0.209 OA
ATOM      2  N   UNL     1      36.966 -24.395 -15.434  0.00  0.00    -0.275 N 
ATOM      3  N   UNL     1      31.810 -23.631 -13.671  0.00  0.00    -0.315 N 
ATOM      4  N   UNL     1      32.270 -22.853 -15.700  0.00  0.00    -0.316 N 
ATOM      5  N   UNL     1      37.703 -25.507 -13.464  0.00  0.00    -0.302 NA
ATOM      6  N   UNL     1      39.135 -25.121 -15.278  0.00  0.00    -0.320 N 
ATOM      7  C   UNL     1      34.682 -23.582 -15.704  0.00  0.00    +0.007 C 
ATOM      8  C   UNL     1      35.668 -24.226 -14.939  0.00  0.00    +0.060 C 
ATOM      9  C   UNL     1      33.393 -23.437 -15.161  0.00  0.00    +0.056 C 
ATOM     10  C   UNL     1      33.131 -23.933 -13.888  0.00  0.00    +0.060 C 
ATOM     11  C   UNL     1      35.365 -24.713 -13.659  0.00  0.00    +0.109 C 
ATOM     12  C   UNL     1      34.085 -24.578 -13.100  0.00  0.00    +0.029 C 
ATOM     13  C   UNL     1      36.451 -25.388 -12.891  0.00  0.00    +0.208 C 
ATOM     14  C   UNL     1      31.341 -22.987 -14.781  0.00  0.00    +0.182 C 
ATOM     15  C   UNL     1      37.912 -25.030 -14.662  0.00  0.00    +0.248 C 
ATOM     16  H   UNL     1      37.200 -24.061 -16.330  0.00  0.00    +0.156 HD
ATOM     17  H   UNL     1      31.294 -23.842 -12.860  0.00  0.00    +0.148 HD
ATOM     18  H   UNL     1      32.182 -22.426 -16.584  0.00  0.00    +0.148 HD
ATOM     19  H   UNL     1      39.260 -24.750 -16.182  0.00  0.00    +0.146 HD
ATOM     20  H   UNL     1      39.887 -25.557 -14.816  0.00  0.00    +0.146 HD
ENDROOT
BRANCH   7  21
ATOM     21  C   UNL     1      34.999 -23.061 -17.070  0.00  0.00    +0.034 C 
BRANCH  21  22
ATOM     22  C   UNL     1      33.797 -23.063 -18.032  0.00  0.00    +0.031 C 
BRANCH  22  23
ATOM     23  C   UNL     1      33.911 -22.036 -19.132  0.00  0.00    -0.022 C 
ATOM     24  C   UNL     1      32.761 -21.456 -19.643  0.00  0.00    -0.001 C 
ATOM     25  C   UNL     1      35.164 -21.693 -19.613  0.00  0.00    -0.001 C 
ATOM     26  C   UNL     1      32.866 -20.507 -20.659  0.00  0.00    +0.037 C 
ATOM     27  C   UNL     1      35.270 -20.743 -20.630  0.00  0.00    +0.037 C 
ATOM     28  C   UNL     1      34.121 -20.151 -21.152  0.00  0.00    +0.139 C 
BRANCH  28  29
ATOM     29  O   UNL     1      34.224 -19.226 -22.145  0.00  0.00    -0.471 OA
ATOM     30  C   UNL     1      35.314 -18.309 -22.068  0.00  0.00    +0.252 C 
ENDBRANCH  28  29
ENDBRANCH  22  23
ENDBRANCH  21  22
ENDBRANCH   7  21
TORSDOF 4
ENDMDL
MODEL 4
REMARK VINA RESULT:     -10.8      1.523      3.849
REMARK  Name = 5326930
REMARK  4 active torsions:
REMARK  status: ('A' for Active; 'I' for Inactive)
REMARK    1  A    between atoms: C_7  and  C_21
REMARK    2  A    between atoms: C_21  and  C_22
REMARK    3  A    between atoms: C_22  and  C_23
REMARK    4  A    between atoms: C_28  and  O_29
REMARK                            x       y       z     vdW  Elec       q    Type
REMARK                         _______ _______ _______ _____ _____    ______ ____
ROOT
ATOM      1  O   UNL     1      30.427 -23.963 -12.928  0.00  0.00    -0.209 OA
ATOM      2  N   UNL     1      31.020 -23.196 -16.815  0.00  0.00    -0.275 N 
ATOM      3  N   UNL     1      35.570 -24.342 -13.940  0.00  0.00    -0.315 N 
ATOM      4  N   UNL     1      35.865 -23.913 -16.100  0.00  0.00    -0.316 N 
ATOM      5  N   UNL     1      29.537 -23.422 -14.968  0.00  0.00    -0.302 NA
ATOM      6  N   UNL     1      28.770 -22.873 -17.112  0.00  0.00    -0.320 N 
ATOM      7  C   UNL     1      33.428 -23.520 -16.609  0.00  0.00    +0.007 C 
ATOM      8  C   UNL     1      32.146 -23.493 -16.039  0.00  0.00    +0.060 C 
ATOM      9  C   UNL     1      34.528 -23.825 -15.787  0.00  0.00    +0.056 C 
ATOM     10  C   UNL     1      34.316 -24.089 -14.438  0.00  0.00    +0.060 C 
ATOM     11  C   UNL     1      31.972 -23.766 -14.674  0.00  0.00    +0.109 C 
ATOM     12  C   UNL     1      33.056 -24.072 -13.838  0.00  0.00    +0.029 C 
ATOM     13  C   UNL     1      30.588 -23.725 -14.122  0.00  0.00    +0.208 C 
ATOM     14  C   UNL     1      36.460 -24.224 -14.971  0.00  0.00    +0.182 C 
ATOM     15  C   UNL     1      29.775 -23.178 -16.229  0.00  0.00    +0.248 C 
ATOM     16  H   UNL     1      31.119 -23.001 -17.775  0.00  0.00    +0.156 HD
ATOM     17  H   UNL     1      35.787 -24.567 -13.007  0.00  0.00    +0.148 HD
ATOM     18  H   UNL     1      36.285 -23.773 -16.980  0.00  0.00    +0.148 HD
ATOM     19  H   UNL     1      28.982 -22.694 -18.057  0.00  0.00    +0.146 HD
ATOM     20  H   UNL     1      27.837 -22.832 -16.801  0.00  0.00    +0.146 HD
ENDROOT
BRANCH   7  21
ATOM     21  C   UNL     1      33.621 -23.230 -18.064  0.00  0.00    +0.034 C 
BRANCH  21  22
ATOM     22  C   UNL     1      34.874 -22.390 -18.373  0.00  0.00    +0.031 C 
BRANCH  22  23
ATOM     23  C   UNL     1      34.693 -21.458 -19.546  0.00  0.00    -0.022 C 
ATOM     24  C   UNL     1      33.413 -21.137 -19.968  0.00  0.00    -0.001 C 
ATOM     25  C   UNL     1      35.811 -20.942 -20.181  0.00  0.00    -0.001 C 
ATOM     26  C   UNL     1      33.245 -20.276 -21.052  0.00  0.00    +0.037 C 
ATOM     27  C   UNL     1      35.644 -20.080 -21.267  0.00  0.00    +0.037 C 
ATOM     28  C   UNL     1      34.361 -19.748 -21.701  0.00  0.00    +0.139 C 
BRANCH  28  29
ATOM     29  O   UNL     1      34.198 -18.909 -22.760  0.00  0.00    -0.471 OA
ATOM     30  C   UNL     1      35.269 -18.011 -23.049  0.00  0.00    +0.252 C 
ENDBRANCH  28  29
ENDBRANCH  22  23
ENDBRANCH  21  22
ENDBRANCH   7  21
TORSDOF 4
ENDMDL
MODEL 5
REMARK VINA RESULT:     -10.6      3.129      6.074
REMARK  Name = 5326930
REMARK  4 active torsions:
REMARK  status: ('A' for Active; 'I' for Inactive)
REMARK    1  A    between atoms: C_7  and  C_21
REMARK    2  A    between atoms: C_21  and  C_22
REMARK    3  A    between atoms: C_22  and  C_23
REMARK    4  A    between atoms: C_28  and  O_29
REMARK                            x       y       z     vdW  Elec       q    Type
REMARK                         _______ _______ _______ _____ _____    ______ ____
ROOT
ATOM      1  O   UNL     1      37.214 -21.885 -17.144  0.00  0.00    -0.209 OA
ATOM      2  N   UNL     1      33.616 -23.605 -16.766  0.00  0.00    -0.275 N 
ATOM      3  N   UNL     1      36.841 -23.938 -12.321  0.00  0.00    -0.315 N 
ATOM      4  N   UNL     1      34.838 -24.881 -12.143  0.00  0.00    -0.316 N 
ATOM      5  N   UNL     1      35.190 -22.400 -18.083  0.00  0.00    -0.302 NA
ATOM      6  N   UNL     1      33.081 -22.997 -18.911  0.00  0.00    -0.320 N 
ATOM      7  C   UNL     1      34.082 -24.299 -14.475  0.00  0.00    +0.007 C 
ATOM      8  C   UNL     1      34.475 -23.662 -15.663  0.00  0.00    +0.060 C 
ATOM      9  C   UNL     1      34.982 -24.329 -13.394  0.00  0.00    +0.056 C 
ATOM     10  C   UNL     1      36.230 -23.731 -13.532  0.00  0.00    +0.060 C 
ATOM     11  C   UNL     1      35.743 -23.070 -15.763  0.00  0.00    +0.109 C 
ATOM     12  C   UNL     1      36.654 -23.089 -14.696  0.00  0.00    +0.029 C 
ATOM     13  C   UNL     1      36.107 -22.406 -17.048  0.00  0.00    +0.208 C 
ATOM     14  C   UNL     1      35.970 -24.629 -11.526  0.00  0.00    +0.182 C 
ATOM     15  C   UNL     1      34.028 -22.973 -17.918  0.00  0.00    +0.248 C 
ATOM     16  H   UNL     1      32.722 -24.014 -16.718  0.00  0.00    +0.156 HD
ATOM     17  H   UNL     1      37.746 -23.642 -12.070  0.00  0.00    +0.148 HD
ATOM     18  H   UNL     1      34.055 -25.362 -11.786  0.00  0.00    +0.148 HD
ATOM     19  H   UNL     1      32.214 -23.436 -18.755  0.00  0.00    +0.146 HD
ATOM     20  H   UNL     1      33.270 -22.573 -19.780  0.00  0.00    +0.146 HD
ENDROOT
BRANCH   7  21
ATOM     21  C   UNL     1      32.732 -24.933 -14.362  0.00  0.00    +0.034 C 
BRANCH  21  22
ATOM     22  C   UNL     1      31.619 -23.958 -13.935  0.00  0.00    +0.031 C 
BRANCH  22  23
ATOM     23  C   UNL     1      30.472 -23.897 -14.914  0.00  0.00    -0.022 C 
ATOM     24  C   UNL     1      30.338 -22.787 -15.733  0.00  0.00    -0.001 C 
ATOM     25  C   UNL     1      29.574 -24.950 -14.975  0.00  0.00    -0.001 C 
ATOM     26  C   UNL     1      29.278 -22.729 -16.639  0.00  0.00    +0.037 C 
ATOM     27  C   UNL     1      28.514 -24.892 -15.881  0.00  0.00    +0.037 C 
ATOM     28  C   UNL     1      28.366 -23.782 -16.712  0.00  0.00    +0.139 C 
BRANCH  28  29
ATOM     29  O   UNL     1      27.332 -23.726 -17.594  0.00  0.00    -0.471 OA
ATOM     30  C   UNL     1      26.689 -22.463 -17.763  0.00  0.00    +0.252 C 
ENDBRANCH  28  29
ENDBRANCH  22  23
ENDBRANCH  21  22
ENDBRANCH   7  21
TORSDOF 4
ENDMDL
MODEL 6
REMARK VINA RESULT:     -10.3      3.254      5.601
REMARK  Name = 5326930
REMARK  4 active torsions:
REMARK  status: ('A' for Active; 'I' for Inactive)
REMARK    1  A    between atoms: C_7  and  C_21
REMARK    2  A    between atoms: C_21  and  C_22
REMARK    3  A    between atoms: C_22  and  C_23
REMARK    4  A    between atoms: C_28  and  O_29
REMARK                            x       y       z     vdW  Elec       q    Type
REMARK                         _______ _______ _______ _____ _____    ______ ____
ROOT
ATOM      1  O   UNL     1      37.655 -22.812 -13.666  0.00  0.00    -0.209 OA
ATOM      2  N   UNL     1      34.286 -24.679 -12.565  0.00  0.00    -0.275 N 
ATOM      3  N   UNL     1      34.305 -22.743 -17.715  0.00  0.00    -0.315 N 
ATOM      4  N   UNL     1      32.451 -23.785 -17.073  0.00  0.00    -0.316 N 
ATOM      5  N   UNL     1      36.483 -23.926 -12.045  0.00  0.00    -0.302 NA
ATOM      6  N   UNL     1      35.167 -25.079 -10.486  0.00  0.00    -0.320 N 
ATOM      7  C   UNL     1      33.255 -24.309 -14.743  0.00  0.00    +0.007 C 
ATOM      8  C   UNL     1      34.341 -24.168 -13.866  0.00  0.00    +0.060 C 
ATOM      9  C   UNL     1      33.360 -23.778 -16.041  0.00  0.00    +0.056 C 
ATOM     10  C   UNL     1      34.532 -23.129 -16.418  0.00  0.00    +0.060 C 
ATOM     11  C   UNL     1      35.507 -23.508 -14.283  0.00  0.00    +0.109 C 
ATOM     12  C   UNL     1      35.632 -22.971 -15.573  0.00  0.00    +0.029 C 
ATOM     13  C   UNL     1      36.631 -23.388 -13.309  0.00  0.00    +0.208 C 
ATOM     14  C   UNL     1      33.049 -23.156 -18.060  0.00  0.00    +0.182 C 
ATOM     15  C   UNL     1      35.367 -24.527 -11.726  0.00  0.00    +0.248 C 
ATOM     16  H   UNL     1      33.478 -25.146 -12.251  0.00  0.00    +0.156 HD
ATOM     17  H   UNL     1      34.934 -22.254 -18.292  0.00  0.00    +0.148 HD
ATOM     18  H   UNL     1      31.547 -24.176 -17.073  0.00  0.00    +0.148 HD
ATOM     19  H   UNL     1      34.315 -25.525 -10.277  0.00  0.00    +0.146 HD
ATOM     20  H   UNL     1      35.876 -25.028  -9.804  0.00  0.00    +0.146 HD
ENDROOT
BRANCH   7  21
ATOM     21  C   UNL     1      32.009 -25.012 -14.305  0.00  0.00    +0.034 C 
BRANCH  21  22
ATOM     22  C   UNL     1      30.868 -24.062 -13.896  0.00  0.00    +0.031 C 
BRANCH  22  23
ATOM     23  C   UNL     1      29.835 -23.870 -14.979  0.00  0.00    -0.022 C 
ATOM     24  C   UNL     1      29.296 -24.981 -15.608  0.00  0.00    -0.001 C 
ATOM     25  C   UNL     1      29.445 -22.587 -15.326  0.00  0.00    -0.001 C 
ATOM     26  C   UNL     1      28.341 -24.805 -16.609  0.00  0.00    +0.037 C 
ATOM     27  C   UNL     1      28.489 -22.410 -16.328  0.00  0.00    +0.037 C 
ATOM     28  C   UNL     1      27.938 -23.519 -16.969  0.00  0.00    +0.139 C 
BRANCH  28  29
ATOM     29  O   UNL     1      27.007 -23.346 -17.946  0.00  0.00    -0.471 OA
ATOM     30  C   UNL     1      26.298 -22.108 -17.958  0.00  0.00    +0.252 C 
ENDBRANCH  28  29
ENDBRANCH  22  23
ENDBRANCH  21  22
ENDBRANCH   7  21
TORSDOF 4
ENDMDL
MODEL 7
REMARK VINA RESULT:      -9.8     10.956     15.027
REMARK  Name = 5326930
REMARK  4 active torsions:
REMARK  status: ('A' for Active; 'I' for Inactive)
REMARK    1  A    between atoms: C_7  and  C_21
REMARK    2  A    between atoms: C_21  and  C_22
REMARK    3  A    between atoms: C_22  and  C_23
REMARK    4  A    between atoms: C_28  and  O_29
REMARK                            x       y       z     vdW  Elec       q    Type
REMARK                         _______ _______ _______ _____ _____    ______ ____
ROOT
ATOM      1  O   UNL     1      31.206  -8.788 -19.108  0.00  0.00    -0.209 OA
ATOM      2  N   UNL     1      31.947 -10.970 -22.385  0.00  0.00    -0.275 N 
ATOM      3  N   UNL     1      32.941  -5.582 -22.894  0.00  0.00    -0.315 N 
ATOM      4  N   UNL     1      33.343  -6.821 -24.694  0.00  0.00    -0.316 N 
ATOM      5  N   UNL     1      31.224 -10.841 -20.121  0.00  0.00    -0.302 NA
ATOM      6  N   UNL     1      31.296 -12.873 -21.286  0.00  0.00    -0.320 N 
ATOM      7  C   UNL     1      32.662  -9.009 -23.646  0.00  0.00    +0.007 C 
ATOM      8  C   UNL     1      32.184  -9.593 -22.463  0.00  0.00    +0.060 C 
ATOM      9  C   UNL     1      32.884  -7.620 -23.673  0.00  0.00    +0.056 C 
ATOM     10  C   UNL     1      32.624  -6.867 -22.532  0.00  0.00    +0.060 C 
ATOM     11  C   UNL     1      31.934  -8.800 -21.332  0.00  0.00    +0.109 C 
ATOM     12  C   UNL     1      32.149  -7.414 -21.340  0.00  0.00    +0.029 C 
ATOM     13  C   UNL     1      31.427  -9.474 -20.102  0.00  0.00    +0.208 C 
ATOM     14  C   UNL     1      33.364  -5.606 -24.193  0.00  0.00    +0.182 C 
ATOM     15  C   UNL     1      31.479 -11.515 -21.211  0.00  0.00    +0.248 C 
ATOM     16  H   UNL     1      32.115 -11.545 -23.166  0.00  0.00    +0.156 HD
ATOM     17  H   UNL     1      32.874  -4.786 -22.320  0.00  0.00    +0.148 HD
ATOM     18  H   UNL     1      33.600  -7.098 -25.604  0.00  0.00    +0.148 HD
ATOM     19  H   UNL     1      31.497 -13.353 -22.122  0.00  0.00    +0.146 HD
ATOM     20  H   UNL     1      30.963 -13.369 -20.502  0.00  0.00    +0.146 HD
ENDROOT
BRANCH   7  21
ATOM     21  C   UNL     1      32.931  -9.848 -24.855  0.00  0.00    +0.034 C 
BRANCH  21  22
ATOM     22  C   UNL     1      34.226 -10.676 -24.765  0.00  0.00    +0.031 C 
BRANCH  22  23
ATOM     23  C   UNL     1      34.001 -12.157 -24.947  0.00  0.00    -0.022 C 
ATOM     24  C   UNL     1      33.618 -12.638 -26.189  0.00  0.00    -0.001 C 
ATOM     25  C   UNL     1      34.180 -13.009 -23.870  0.00  0.00    -0.001 C 
ATOM     26  C   UNL     1      33.410 -14.006 -26.359  0.00  0.00    +0.037 C 
ATOM     27  C   UNL     1      33.972 -14.378 -24.039  0.00  0.00    +0.037 C 
ATOM     28  C   UNL     1      33.587 -14.877 -25.283  0.00  0.00    +0.139 C 
BRANCH  28  29
ATOM     29  O   UNL     1      33.383 -16.212 -25.447  0.00  0.00    -0.471 OA
ATOM     30  C   UNL     1      34.218 -17.094 -24.700  0.00  0.00    +0.252 C 
ENDBRANCH  28  29
ENDBRANCH  22  23
ENDBRANCH  21  22
ENDBRANCH   7  21
TORSDOF 4
ENDMDL
MODEL 8
REMARK VINA RESULT:      -9.6      8.964     13.333
REMARK  Name = 5326930
REMARK  4 active torsions:
REMARK  status: ('A' for Active; 'I' for Inactive)
REMARK    1  A    between atoms: C_7  and  C_21
REMARK    2  A    between atoms: C_21  and  C_22
REMARK    3  A    between atoms: C_22  and  C_23
REMARK    4  A    between atoms: C_28  and  O_29
REMARK                            x       y       z     vdW  Elec       q    Type
REMARK                         _______ _______ _______ _____ _____    ______ ____
ROOT
ATOM      1  O   UNL     1      31.993  -8.005 -24.071  0.00  0.00    -0.209 OA
ATOM      2  N   UNL     1      34.403 -10.982 -25.242  0.00  0.00    -0.275 N 
ATOM      3  N   UNL     1      31.193 -12.138 -20.925  0.00  0.00    -0.315 N 
ATOM      4  N   UNL     1      32.541 -13.770 -21.600  0.00  0.00    -0.316 N 
ATOM      5  N   UNL     1      33.601  -8.759 -25.516  0.00  0.00    -0.302 NA
ATOM      6  N   UNL     1      35.244  -9.665 -26.920  0.00  0.00    -0.320 N 
ATOM      7  C   UNL     1      33.578 -12.467 -23.492  0.00  0.00    +0.007 C 
ATOM      8  C   UNL     1      33.567 -11.226 -24.147  0.00  0.00    +0.060 C 
ATOM      9  C   UNL     1      32.717 -12.662 -22.397  0.00  0.00    +0.056 C 
ATOM     10  C   UNL     1      31.883 -11.624 -21.995  0.00  0.00    +0.060 C 
ATOM     11  C   UNL     1      32.710 -10.203 -23.712  0.00  0.00    +0.109 C 
ATOM     12  C   UNL     1      31.845 -10.378 -22.622  0.00  0.00    +0.029 C 
ATOM     13  C   UNL     1      32.739  -8.905 -24.445  0.00  0.00    +0.208 C 
ATOM     14  C   UNL     1      31.622 -13.421 -20.729  0.00  0.00    +0.182 C 
ATOM     15  C   UNL     1      34.371  -9.756 -25.865  0.00  0.00    +0.248 C 
ATOM     16  H   UNL     1      35.012 -11.685 -25.564  0.00  0.00    +0.156 HD
ATOM     17  H   UNL     1      30.512 -11.666 -20.395  0.00  0.00    +0.148 HD
ATOM     18  H   UNL     1      33.004 -14.636 -21.668  0.00  0.00    +0.148 HD
ATOM     19  H   UNL     1      35.810 -10.435 -27.158  0.00  0.00    +0.146 HD
ATOM     20  H   UNL     1      35.304  -8.830 -27.439  0.00  0.00    +0.146 HD
ENDROOT
BRANCH   7  21
ATOM     21  C   UNL     1      34.488 -13.562 -23.952  0.00  0.00    +0.034 C 
BRANCH  21  22
ATOM     22  C   UNL     1      33.770 -14.697 -24.705  0.00  0.00    +0.031 C 
BRANCH  22  23
ATOM     23  C   UNL     1      34.126 -16.071 -24.193  0.00  0.00    -0.022 C 
ATOM     24  C   UNL     1      34.835 -16.192 -23.009  0.00  0.00    -0.001 C 
ATOM     25  C   UNL     1      33.740 -17.186 -24.919  0.00  0.00    -0.001 C 
ATOM     26  C   UNL     1      35.165 -17.462 -22.536  0.00  0.00    +0.037 C 
ATOM     27  C   UNL     1      34.070 -18.457 -24.446  0.00  0.00    +0.037 C 
ATOM     28  C   UNL     1      34.782 -18.595 -23.254  0.00  0.00    +0.139 C 
BRANCH  28  29
ATOM     29  O   UNL     1      35.105 -19.834 -22.794  0.00  0.00    -0.471 OA
ATOM     30  C   UNL     1      34.865 -20.097 -21.413  0.00  0.00    +0.252 C 
ENDBRANCH  28  29
ENDBRANCH  22  23
ENDBRANCH  21  22
ENDBRANCH   7  21
TORSDOF 4
ENDMDL
MODEL 9
REMARK VINA RESULT:      -9.4      2.667      5.995
REMARK  Name = 5326930
REMARK  4 active torsions:
REMARK  status: ('A' for Active; 'I' for Inactive)
REMARK    1  A    between atoms: C_7  and  C_21
REMARK    2  A    between atoms: C_21  and  C_22
REMARK    3  A    between atoms: C_22  and  C_23
REMARK    4  A    between atoms: C_28  and  O_29
REMARK                            x       y       z     vdW  Elec       q    Type
REMARK                         _______ _______ _______ _____ _____    ______ ____
ROOT
ATOM      1  O   UNL     1      33.252 -22.811 -19.529  0.00  0.00    -0.209 OA
ATOM      2  N   UNL     1      35.269 -22.757 -16.068  0.00  0.00    -0.275 N 
ATOM      3  N   UNL     1      30.002 -24.298 -15.676  0.00  0.00    -0.315 N 
ATOM      4  N   UNL     1      31.149 -24.258 -13.774  0.00  0.00    -0.316 N 
ATOM      5  N   UNL     1      35.220 -22.422 -18.424  0.00  0.00    -0.302 NA
ATOM      6  N   UNL     1      37.161 -22.063 -17.162  0.00  0.00    -0.320 N 
ATOM      7  C   UNL     1      33.316 -23.494 -14.808  0.00  0.00    +0.007 C 
ATOM      8  C   UNL     1      33.925 -23.142 -16.022  0.00  0.00    +0.060 C 
ATOM      9  C   UNL     1      31.962 -23.874 -14.815  0.00  0.00    +0.056 C 
ATOM     10  C   UNL     1      31.266 -23.890 -16.020  0.00  0.00    +0.060 C 
ATOM     11  C   UNL     1      33.190 -23.171 -17.217  0.00  0.00    +0.109 C 
ATOM     12  C   UNL     1      31.839 -23.547 -17.245  0.00  0.00    +0.029 C 
ATOM     13  C   UNL     1      33.888 -22.788 -18.479  0.00  0.00    +0.208 C 
ATOM     14  C   UNL     1      29.982 -24.504 -14.325  0.00  0.00    +0.182 C 
ATOM     15  C   UNL     1      35.840 -22.417 -17.274  0.00  0.00    +0.248 C 
ATOM     16  H   UNL     1      35.803 -22.729 -15.242  0.00  0.00    +0.156 HD
ATOM     17  H   UNL     1      29.245 -24.418 -16.293  0.00  0.00    +0.148 HD
ATOM     18  H   UNL     1      31.389 -24.333 -12.822  0.00  0.00    +0.148 HD
ATOM     19  H   UNL     1      37.600 -22.070 -16.281  0.00  0.00    +0.146 HD
ATOM     20  H   UNL     1      37.670 -21.801 -17.964  0.00  0.00    +0.146 HD
ENDROOT
BRANCH   7  21
ATOM     21  C   UNL     1      34.094 -23.465 -13.530  0.00  0.00    +0.034 C 
BRANCH  21  22
ATOM     22  C   UNL     1      34.476 -24.859 -13.001  0.00  0.00    +0.031 C 
BRANCH  22  23
ATOM     23  C   UNL     1      35.795 -25.360 -13.538  0.00  0.00    -0.022 C 
ATOM     24  C   UNL     1      35.824 -26.028 -14.751  0.00  0.00    -0.001 C 
ATOM     25  C   UNL     1      36.952 -25.143 -12.807  0.00  0.00    -0.001 C 
ATOM     26  C   UNL     1      37.042 -26.491 -15.248  0.00  0.00    +0.037 C 
ATOM     27  C   UNL     1      38.171 -25.607 -13.304  0.00  0.00    +0.037 C 
ATOM     28  C   UNL     1      38.216 -26.280 -14.524  0.00  0.00    +0.139 C 
BRANCH  28  29
ATOM     29  O   UNL     1      39.405 -26.733 -15.008  0.00  0.00    -0.471 OA
ATOM     30  C   UNL     1      40.503 -25.822 -14.989  0.00  0.00    +0.252 C 
ENDBRANCH  28  29
ENDBRANCH  22  23
ENDBRANCH  21  22
ENDBRANCH   7  21
TORSDOF 4
ENDMDL
