MODEL 1
REMARK VINA RESULT:     -11.6      0.000      0.000
REMARK  Name = 124173720
REMARK  4 active torsions:
REMARK  status: ('A' for Active; 'I' for Inactive)
REMARK    1  A    between atoms: C_13  and  N_24
REMARK    2  A    between atoms: C_18  and  C_23
REMARK    3  A    between atoms: N_24  and  C_26
REMARK    4  A    between atoms: C_26  and  C_30
REMARK                            x       y       z     vdW  Elec       q    Type
REMARK                         _______ _______ _______ _____ _____    ______ ____
ROOT
ATOM      1  O   UNL     1      32.037 -22.730 -18.458  0.00  0.00    -0.473 OA
ATOM      2  N   UNL     1      33.858 -23.820 -16.292  0.00  0.00    -0.272 N 
ATOM      3  N   UNL     1      35.988 -23.361 -16.638  0.00  0.00    -0.374 NA
ATOM      4  C   UNL     1      35.870 -24.183 -15.552  0.00  0.00    +0.190 C 
ATOM      5  C   UNL     1      34.759 -23.144 -17.092  0.00  0.00    +0.188 C 
ATOM      6  C   UNL     1      32.415 -23.870 -16.391  0.00  0.00    +0.141 C 
ATOM      7  C   UNL     1      34.557 -24.486 -15.318  0.00  0.00    +0.169 C 
ATOM      8  C   UNL     1      34.464 -22.304 -18.271  0.00  0.00    +0.078 C 
ATOM      9  C   UNL     1      31.822 -22.647 -17.053  0.00  0.00    +0.227 C 
ATOM     10  C   UNL     1      33.205 -22.151 -18.876  0.00  0.00    +0.144 C 
ATOM     11  C   UNL     1      35.550 -21.626 -18.866  0.00  0.00    +0.008 C 
ATOM     12  C   UNL     1      33.061 -21.394 -20.052  0.00  0.00    +0.051 C 
ATOM     13  C   UNL     1      34.151 -20.741 -20.617  0.00  0.00    +0.048 C 
ATOM     14  C   UNL     1      35.398 -20.852 -20.020  0.00  0.00    +0.015 C 
ATOM     15  O   UNL     1      39.095 -25.054 -14.259  0.00  0.00    -0.432 OA
ATOM     16  O   UNL     1      38.718 -23.490 -15.887  0.00  0.00    -0.226 OA
ATOM     17  N   UNL     1      36.949 -24.624 -14.825  0.00  0.00    -0.194 N 
ATOM     18  C   UNL     1      36.886 -25.494 -13.672  0.00  0.00    +0.195 C 
ATOM     19  C   UNL     1      38.290 -26.066 -13.645  0.00  0.00    +0.236 C 
ATOM     20  C   UNL     1      38.285 -24.303 -15.081  0.00  0.00    +0.411 C 
ENDROOT
BRANCH  18  23
ATOM     21  F   UNL     1      35.620 -25.392 -11.707  0.00  0.00    -0.196 F 
ATOM     22  F   UNL     1      37.672 -24.672 -11.626  0.00  0.00    -0.196 F 
ATOM     23  C   UNL     1      36.565 -24.719 -12.395  0.00  0.00    +0.340 C 
ENDBRANCH  18  23
BRANCH  13  24
ATOM     24  N   UNL     1      33.989 -19.973 -21.788  0.00  0.00    -0.327 N 
ATOM     25  H   UNL     1      33.077 -19.776 -22.098  0.00  0.00    +0.147 HD
BRANCH  24  26
ATOM     26  C   UNL     1      35.093 -19.469 -22.546  0.00  0.00    +0.146 C 
ATOM     27  C   UNL     1      34.814 -19.647 -24.031  0.00  0.00    +0.031 C 
BRANCH  26  30
ATOM     28  O   UNL     1      35.167 -17.539 -21.078  0.00  0.00    -0.274 OA
ATOM     29  N   UNL     1      35.658 -17.243 -23.301  0.00  0.00    -0.327 N 
ATOM     30  C   UNL     1      35.300 -18.002 -22.208  0.00  0.00    +0.237 C 
ATOM     31  H   UNL     1      35.817 -16.277 -23.200  0.00  0.00    +0.145 HD
ATOM     32  H   UNL     1      35.753 -17.667 -24.185  0.00  0.00    +0.145 HD
ENDBRANCH  26  30
ENDBRANCH  24  26
ENDBRANCH  13  24
TORSDOF 4
ENDMDL
MODEL 2
REMARK VINA RESULT:     -10.9      3.762      6.018
REMARK  Name = 124173720
REMARK  4 active torsions:
REMARK  status: ('A' for Active; 'I' for Inactive)
REMARK    1  A    between atoms: C_13  and  N_24
REMARK    2  A    between atoms: C_18  and  C_23
REMARK    3  A    between atoms: N_24  and  C_26
REMARK    4  A    between atoms: C_26  and  C_30
REMARK                            x       y       z     vdW  Elec       q    Type
REMARK                         _______ _______ _______ _____ _____    ______ ____
ROOT
ATOM      1  O   UNL     1      32.381 -22.436 -17.863  0.00  0.00    -0.473 OA
ATOM      2  N   UNL     1      34.808 -23.325 -16.276  0.00  0.00    -0.272 N 
ATOM      3  N   UNL     1      34.306 -24.034 -14.249  0.00  0.00    -0.374 NA
ATOM      4  C   UNL     1      35.664 -23.998 -14.394  0.00  0.00    +0.190 C 
ATOM      5  C   UNL     1      33.783 -23.618 -15.397  0.00  0.00    +0.188 C 
ATOM      6  C   UNL     1      34.725 -22.852 -17.641  0.00  0.00    +0.141 C 
ATOM      7  C   UNL     1      36.003 -23.557 -15.644  0.00  0.00    +0.169 C 
ATOM      8  C   UNL     1      32.330 -23.507 -15.636  0.00  0.00    +0.078 C 
ATOM      9  C   UNL     1      33.444 -23.258 -18.334  0.00  0.00    +0.227 C 
ATOM     10  C   UNL     1      31.726 -22.946 -16.774  0.00  0.00    +0.144 C 
ATOM     11  C   UNL     1      31.471 -23.969 -14.615  0.00  0.00    +0.008 C 
ATOM     12  C   UNL     1      30.329 -22.812 -16.853  0.00  0.00    +0.051 C 
ATOM     13  C   UNL     1      29.510 -23.273 -15.828  0.00  0.00    +0.048 C 
ATOM     14  C   UNL     1      30.082 -23.859 -14.708  0.00  0.00    +0.015 C 
ATOM     15  O   UNL     1      37.297 -24.916 -11.341  0.00  0.00    -0.432 OA
ATOM     16  O   UNL     1      35.046 -25.082 -11.721  0.00  0.00    -0.226 OA
ATOM     17  N   UNL     1      36.535 -24.360 -13.395  0.00  0.00    -0.194 N 
ATOM     18  C   UNL     1      37.978 -24.340 -13.490  0.00  0.00    +0.195 C 
ATOM     19  C   UNL     1      38.379 -24.280 -12.030  0.00  0.00    +0.236 C 
ATOM     20  C   UNL     1      36.169 -24.808 -12.123  0.00  0.00    +0.411 C 
ENDROOT
BRANCH  18  23
ATOM     21  F   UNL     1      39.134 -25.231 -15.319  0.00  0.00    -0.196 F 
ATOM     22  F   UNL     1      39.444 -26.161 -13.376  0.00  0.00    -0.196 F 
ATOM     23  C   UNL     1      38.518 -25.594 -14.176  0.00  0.00    +0.340 C 
ENDBRANCH  18  23
BRANCH  13  24
ATOM     24  N   UNL     1      28.109 -23.145 -15.926  0.00  0.00    -0.327 N 
ATOM     25  H   UNL     1      27.564 -23.328 -15.128  0.00  0.00    +0.147 HD
BRANCH  24  26
ATOM     26  C   UNL     1      27.446 -22.763 -17.135  0.00  0.00    +0.146 C 
ATOM     27  C   UNL     1      27.217 -23.993 -18.000  0.00  0.00    +0.031 C 
BRANCH  26  30
ATOM     28  O   UNL     1      25.569 -22.210 -15.700  0.00  0.00    -0.274 OA
ATOM     29  N   UNL     1      25.621 -21.336 -17.823  0.00  0.00    -0.327 N 
ATOM     30  C   UNL     1      26.127 -22.093 -16.789  0.00  0.00    +0.237 C 
ATOM     31  H   UNL     1      24.769 -20.856 -17.711  0.00  0.00    +0.145 HD
ATOM     32  H   UNL     1      26.111 -21.275 -18.675  0.00  0.00    +0.145 HD
ENDBRANCH  26  30
ENDBRANCH  24  26
ENDBRANCH  13  24
TORSDOF 4
ENDMDL
MODEL 3
REMARK VINA RESULT:     -10.6      4.113      8.813
REMARK  Name = 124173720
REMARK  4 active torsions:
REMARK  status: ('A' for Active; 'I' for Inactive)
REMARK    1  A    between atoms: C_13  and  N_24
REMARK    2  A    between atoms: C_18  and  C_23
REMARK    3  A    between atoms: N_24  and  C_26
REMARK    4  A    between atoms: C_26  and  C_30
REMARK                            x       y       z     vdW  Elec       q    Type
REMARK                         _______ _______ _______ _____ _____    ______ ____
ROOT
ATOM      1  O   UNL     1      33.583 -23.221 -16.936  0.00  0.00    -0.473 OA
ATOM      2  N   UNL     1      33.773 -21.569 -19.471  0.00  0.00    -0.272 N 
ATOM      3  N   UNL     1      35.759 -20.655 -19.765  0.00  0.00    -0.374 NA
ATOM      4  C   UNL     1      34.904 -20.204 -20.731  0.00  0.00    +0.190 C 
ATOM      5  C   UNL     1      35.066 -21.485 -18.993  0.00  0.00    +0.188 C 
ATOM      6  C   UNL     1      32.667 -22.354 -18.966  0.00  0.00    +0.141 C 
ATOM      7  C   UNL     1      33.662 -20.754 -20.569  0.00  0.00    +0.169 C 
ATOM      8  C   UNL     1      35.641 -22.178 -17.821  0.00  0.00    +0.078 C 
ATOM      9  C   UNL     1      33.109 -23.595 -18.225  0.00  0.00    +0.227 C 
ATOM     10  C   UNL     1      34.925 -22.953 -16.894  0.00  0.00    +0.144 C 
ATOM     11  C   UNL     1      37.024 -22.015 -17.592  0.00  0.00    +0.008 C 
ATOM     12  C   UNL     1      35.565 -23.493 -15.764  0.00  0.00    +0.051 C 
ATOM     13  C   UNL     1      36.929 -23.311 -15.563  0.00  0.00    +0.048 C 
ATOM     14  C   UNL     1      37.662 -22.575 -16.482  0.00  0.00    +0.015 C 
ATOM     15  O   UNL     1      36.518 -17.798 -22.838  0.00  0.00    -0.432 OA
ATOM     16  O   UNL     1      37.574 -19.063 -21.249  0.00  0.00    -0.226 OA
ATOM     17  N   UNL     1      35.280 -19.317 -21.710  0.00  0.00    -0.194 N 
ATOM     18  C   UNL     1      34.420 -18.804 -22.754  0.00  0.00    +0.195 C 
ATOM     19  C   UNL     1      35.146 -17.533 -23.148  0.00  0.00    +0.236 C 
ATOM     20  C   UNL     1      36.555 -18.766 -21.858  0.00  0.00    +0.411 C 
ENDROOT
BRANCH  18  23
ATOM     21  F   UNL     1      34.039 -19.081 -25.046  0.00  0.00    -0.196 F 
ATOM     22  F   UNL     1      35.500 -20.386 -24.099  0.00  0.00    -0.196 F 
ATOM     23  C   UNL     1      34.308 -19.779 -23.924  0.00  0.00    +0.340 C 
ENDBRANCH  18  23
BRANCH  13  24
ATOM     24  N   UNL     1      37.561 -23.870 -14.434  0.00  0.00    -0.327 N 
ATOM     25  H   UNL     1      38.534 -24.010 -14.462  0.00  0.00    +0.147 HD
BRANCH  24  26
ATOM     26  C   UNL     1      36.850 -24.244 -13.250  0.00  0.00    +0.146 C 
ATOM     27  C   UNL     1      37.155 -25.696 -12.911  0.00  0.00    +0.031 C 
BRANCH  26  30
ATOM     28  O   UNL     1      38.079 -22.417 -12.231  0.00  0.00    -0.274 OA
ATOM     29  N   UNL     1      36.616 -23.615 -10.928  0.00  0.00    -0.327 N 
ATOM     30  C   UNL     1      37.260 -23.326 -12.112  0.00  0.00    +0.237 C 
ATOM     31  H   UNL     1      36.804 -23.083 -10.122  0.00  0.00    +0.145 HD
ATOM     32  H   UNL     1      35.966 -24.354 -10.889  0.00  0.00    +0.145 HD
ENDBRANCH  26  30
ENDBRANCH  24  26
ENDBRANCH  13  24
TORSDOF 4
ENDMDL
MODEL 4
REMARK VINA RESULT:      -9.3      9.971     15.367
REMARK  Name = 124173720
REMARK  4 active torsions:
REMARK  status: ('A' for Active; 'I' for Inactive)
REMARK    1  A    between atoms: C_13  and  N_24
REMARK    2  A    between atoms: C_18  and  C_23
REMARK    3  A    between atoms: N_24  and  C_26
REMARK    4  A    between atoms: C_26  and  C_30
REMARK                            x       y       z     vdW  Elec       q    Type
REMARK                         _______ _______ _______ _____ _____    ______ ____
ROOT
ATOM      1  O   UNL     1      33.481 -13.520 -26.747  0.00  0.00    -0.473 OA
ATOM      2  N   UNL     1      33.342 -10.550 -26.147  0.00  0.00    -0.272 N 
ATOM      3  N   UNL     1      33.439 -10.095 -23.991  0.00  0.00    -0.374 NA
ATOM      4  C   UNL     1      33.200  -8.944 -24.687  0.00  0.00    +0.190 C 
ATOM      5  C   UNL     1      33.520 -11.077 -24.883  0.00  0.00    +0.188 C 
ATOM      6  C   UNL     1      33.360 -11.230 -27.424  0.00  0.00    +0.141 C 
ATOM      7  C   UNL     1      33.132  -9.200 -26.030  0.00  0.00    +0.169 C 
ATOM      8  C   UNL     1      33.764 -12.488 -24.519  0.00  0.00    +0.078 C 
ATOM      9  C   UNL     1      34.199 -12.488 -27.417  0.00  0.00    +0.227 C 
ATOM     10  C   UNL     1      33.723 -13.581 -25.401  0.00  0.00    +0.144 C 
ATOM     11  C   UNL     1      34.023 -12.768 -23.160  0.00  0.00    +0.008 C 
ATOM     12  C   UNL     1      33.884 -14.894 -24.924  0.00  0.00    +0.051 C 
ATOM     13  C   UNL     1      34.133 -15.138 -23.578  0.00  0.00    +0.048 C 
ATOM     14  C   UNL     1      34.209 -14.072 -22.694  0.00  0.00    +0.015 C 
ATOM     15  O   UNL     1      32.762  -6.174 -22.459  0.00  0.00    -0.432 OA
ATOM     16  O   UNL     1      33.458  -8.262 -21.830  0.00  0.00    -0.226 OA
ATOM     17  N   UNL     1      33.051  -7.719 -24.084  0.00  0.00    -0.194 N 
ATOM     18  C   UNL     1      32.796  -6.471 -24.768  0.00  0.00    +0.195 C 
ATOM     19  C   UNL     1      32.194  -5.634 -23.657  0.00  0.00    +0.236 C 
ATOM     20  C   UNL     1      33.125  -7.479 -22.709  0.00  0.00    +0.411 C 
ENDROOT
BRANCH  18  23
ATOM     21  F   UNL     1      34.026  -4.515 -25.138  0.00  0.00    -0.196 F 
ATOM     22  F   UNL     1      35.125  -6.314 -24.595  0.00  0.00    -0.196 F 
ATOM     23  C   UNL     1      34.081  -5.851 -25.314  0.00  0.00    +0.340 C 
ENDBRANCH  18  23
BRANCH  13  24
ATOM     24  N   UNL     1      34.307 -16.458 -23.116  0.00  0.00    -0.327 N 
ATOM     25  H   UNL     1      33.855 -16.728 -22.285  0.00  0.00    +0.147 HD
BRANCH  24  26
ATOM     26  C   UNL     1      35.111 -17.423 -23.801  0.00  0.00    +0.146 C 
ATOM     27  C   UNL     1      36.069 -18.076 -22.817  0.00  0.00    +0.031 C 
BRANCH  26  30
ATOM     28  O   UNL     1      33.243 -18.178 -25.153  0.00  0.00    -0.274 OA
ATOM     29  N   UNL     1      34.578 -19.754 -24.150  0.00  0.00    -0.327 N 
ATOM     30  C   UNL     1      34.205 -18.460 -24.443  0.00  0.00    +0.237 C 
ATOM     31  H   UNL     1      34.062 -20.510 -24.513  0.00  0.00    +0.145 HD
ATOM     32  H   UNL     1      35.361 -19.924 -23.577  0.00  0.00    +0.145 HD
ENDBRANCH  26  30
ENDBRANCH  24  26
ENDBRANCH  13  24
TORSDOF 4
ENDMDL
MODEL 5
REMARK VINA RESULT:      -9.2      9.425     14.696
REMARK  Name = 124173720
REMARK  4 active torsions:
REMARK  status: ('A' for Active; 'I' for Inactive)
REMARK    1  A    between atoms: C_13  and  N_24
REMARK    2  A    between atoms: C_18  and  C_23
REMARK    3  A    between atoms: N_24  and  C_26
REMARK    4  A    between atoms: C_26  and  C_30
REMARK                            x       y       z     vdW  Elec       q    Type
REMARK                         _______ _______ _______ _____ _____    ______ ____
ROOT
ATOM      1  O   UNL     1      32.703 -13.693 -21.044  0.00  0.00    -0.473 OA
ATOM      2  N   UNL     1      32.241 -10.845 -21.980  0.00  0.00    -0.272 N 
ATOM      3  N   UNL     1      33.240 -10.388 -23.892  0.00  0.00    -0.374 NA
ATOM      4  C   UNL     1      32.681  -9.248 -23.388  0.00  0.00    +0.190 C 
ATOM      5  C   UNL     1      32.975 -11.363 -23.029  0.00  0.00    +0.188 C 
ATOM      6  C   UNL     1      31.717 -11.527 -20.816  0.00  0.00    +0.141 C 
ATOM      7  C   UNL     1      32.057  -9.504 -22.198  0.00  0.00    +0.169 C 
ATOM      8  C   UNL     1      33.422 -12.759 -23.216  0.00  0.00    +0.078 C 
ATOM      9  C   UNL     1      31.459 -12.997 -21.053  0.00  0.00    +0.227 C 
ATOM     10  C   UNL     1      33.291 -13.795 -22.276  0.00  0.00    +0.144 C 
ATOM     11  C   UNL     1      34.072 -13.070 -24.430  0.00  0.00    +0.008 C 
ATOM     12  C   UNL     1      33.835 -15.066 -22.529  0.00  0.00    +0.051 C 
ATOM     13  C   UNL     1      34.475 -15.341 -23.732  0.00  0.00    +0.048 C 
ATOM     14  C   UNL     1      34.589 -14.342 -24.688  0.00  0.00    +0.015 C 
ATOM     15  O   UNL     1      33.426  -6.433 -25.475  0.00  0.00    -0.432 OA
ATOM     16  O   UNL     1      33.881  -8.612 -26.006  0.00  0.00    -0.226 OA
ATOM     17  N   UNL     1      32.762  -8.030 -24.019  0.00  0.00    -0.194 N 
ATOM     18  C   UNL     1      32.193  -6.793 -23.533  0.00  0.00    +0.195 C 
ATOM     19  C   UNL     1      33.025  -5.765 -24.274  0.00  0.00    +0.236 C 
ATOM     20  C   UNL     1      33.404  -7.790 -25.236  0.00  0.00    +0.411 C 
ENDROOT
BRANCH  18  23
ATOM     21  F   UNL     1      29.999  -6.660 -22.731  0.00  0.00    -0.196 F 
ATOM     22  F   UNL     1      30.500  -5.501 -24.504  0.00  0.00    -0.196 F 
ATOM     23  C   UNL     1      30.709  -6.677 -23.877  0.00  0.00    +0.340 C 
ENDBRANCH  18  23
BRANCH  13  24
ATOM     24  N   UNL     1      35.004 -16.624 -23.979  0.00  0.00    -0.327 N 
ATOM     25  H   UNL     1      35.669 -16.728 -24.696  0.00  0.00    +0.147 HD
BRANCH  24  26
ATOM     26  C   UNL     1      34.616 -17.782 -23.233  0.00  0.00    +0.146 C 
ATOM     27  C   UNL     1      34.396 -18.949 -24.184  0.00  0.00    +0.031 C 
BRANCH  26  30
ATOM     28  O   UNL     1      35.535 -18.042 -21.003  0.00  0.00    -0.274 OA
ATOM     29  N   UNL     1      36.886 -18.489 -22.805  0.00  0.00    -0.327 N 
ATOM     30  C   UNL     1      35.699 -18.108 -22.219  0.00  0.00    +0.237 C 
ATOM     31  H   UNL     1      37.660 -18.724 -22.243  0.00  0.00    +0.145 HD
ATOM     32  H   UNL     1      36.962 -18.527 -23.786  0.00  0.00    +0.145 HD
ENDBRANCH  26  30
ENDBRANCH  24  26
ENDBRANCH  13  24
TORSDOF 4
ENDMDL
MODEL 6
REMARK VINA RESULT:      -9.1     10.738     15.565
REMARK  Name = 124173720
REMARK  4 active torsions:
REMARK  status: ('A' for Active; 'I' for Inactive)
REMARK    1  A    between atoms: C_13  and  N_24
REMARK    2  A    between atoms: C_18  and  C_23
REMARK    3  A    between atoms: N_24  and  C_26
REMARK    4  A    between atoms: C_26  and  C_30
REMARK                            x       y       z     vdW  Elec       q    Type
REMARK                         _______ _______ _______ _____ _____    ______ ____
ROOT
ATOM      1  O   UNL     1      31.554 -12.323 -21.106  0.00  0.00    -0.473 OA
ATOM      2  N   UNL     1      31.794  -9.627 -22.472  0.00  0.00    -0.272 N 
ATOM      3  N   UNL     1      33.389  -9.565 -23.995  0.00  0.00    -0.374 NA
ATOM      4  C   UNL     1      32.861  -8.314 -23.839  0.00  0.00    +0.190 C 
ATOM      5  C   UNL     1      32.740 -10.365 -23.155  0.00  0.00    +0.188 C 
ATOM      6  C   UNL     1      30.848 -10.068 -21.470  0.00  0.00    +0.141 C 
ATOM      7  C   UNL     1      31.870  -8.324 -22.895  0.00  0.00    +0.169 C 
ATOM      8  C   UNL     1      33.030 -11.807 -23.019  0.00  0.00    +0.078 C 
ATOM      9  C   UNL     1      30.481 -11.529 -21.602  0.00  0.00    +0.227 C 
ATOM     10  C   UNL     1      32.476 -12.668 -22.058  0.00  0.00    +0.144 C 
ATOM     11  C   UNL     1      33.976 -12.361 -23.909  0.00  0.00    +0.008 C 
ATOM     12  C   UNL     1      32.895 -14.007 -21.966  0.00  0.00    +0.051 C 
ATOM     13  C   UNL     1      33.832 -14.523 -22.854  0.00  0.00    +0.048 C 
ATOM     14  C   UNL     1      34.370 -13.699 -23.833  0.00  0.00    +0.015 C 
ATOM     15  O   UNL     1      34.588  -5.937 -25.888  0.00  0.00    -0.432 OA
ATOM     16  O   UNL     1      34.887  -8.205 -25.979  0.00  0.00    -0.226 OA
ATOM     17  N   UNL     1      33.296  -7.222 -24.549  0.00  0.00    -0.194 N 
ATOM     18  C   UNL     1      32.778  -5.877 -24.425  0.00  0.00    +0.195 C 
ATOM     19  C   UNL     1      33.929  -5.056 -24.971  0.00  0.00    +0.236 C 
ATOM     20  C   UNL     1      34.311  -7.232 -25.510  0.00  0.00    +0.411 C 
ENDROOT
BRANCH  18  23
ATOM     21  F   UNL     1      30.543  -5.185 -24.441  0.00  0.00    -0.196 F 
ATOM     22  F   UNL     1      31.743  -4.771 -26.209  0.00  0.00    -0.196 F 
ATOM     23  C   UNL     1      31.504  -5.684 -25.245  0.00  0.00    +0.340 C 
ENDBRANCH  18  23
BRANCH  13  24
ATOM     24  N   UNL     1      34.233 -15.871 -22.761  0.00  0.00    -0.327 N 
ATOM     25  H   UNL     1      33.968 -16.385 -21.965  0.00  0.00    +0.147 HD
BRANCH  24  26
ATOM     26  C   UNL     1      35.006 -16.524 -23.772  0.00  0.00    +0.146 C 
ATOM     27  C   UNL     1      35.773 -17.685 -23.154  0.00  0.00    +0.031 C 
BRANCH  26  30
ATOM     28  O   UNL     1      33.654 -16.295 -25.773  0.00  0.00    -0.274 OA
ATOM     29  N   UNL     1      33.766 -18.350 -24.755  0.00  0.00    -0.327 N 
ATOM     30  C   UNL     1      34.079 -17.014 -24.871  0.00  0.00    +0.237 C 
ATOM     31  H   UNL     1      33.170 -18.776 -25.413  0.00  0.00    +0.145 HD
ATOM     32  H   UNL     1      34.136 -18.881 -24.012  0.00  0.00    +0.145 HD
ENDBRANCH  26  30
ENDBRANCH  24  26
ENDBRANCH  13  24
TORSDOF 4
ENDMDL
MODEL 7
REMARK VINA RESULT:      -9.1      4.017      8.667
REMARK  Name = 124173720
REMARK  4 active torsions:
REMARK  status: ('A' for Active; 'I' for Inactive)
REMARK    1  A    between atoms: C_13  and  N_24
REMARK    2  A    between atoms: C_18  and  C_23
REMARK    3  A    between atoms: N_24  and  C_26
REMARK    4  A    between atoms: C_26  and  C_30
REMARK                            x       y       z     vdW  Elec       q    Type
REMARK                         _______ _______ _______ _____ _____    ______ ____
ROOT
ATOM      1  O   UNL     1      36.040 -23.894 -15.914  0.00  0.00    -0.473 OA
ATOM      2  N   UNL     1      36.018 -22.005 -18.287  0.00  0.00    -0.272 N 
ATOM      3  N   UNL     1      34.004 -21.694 -19.129  0.00  0.00    -0.374 NA
ATOM      4  C   UNL     1      34.928 -21.069 -19.918  0.00  0.00    +0.190 C 
ATOM      5  C   UNL     1      34.671 -22.270 -18.135  0.00  0.00    +0.188 C 
ATOM      6  C   UNL     1      37.124 -22.412 -17.446  0.00  0.00    +0.141 C 
ATOM      7  C   UNL     1      36.189 -21.250 -19.419  0.00  0.00    +0.169 C 
ATOM      8  C   UNL     1      34.021 -23.057 -17.067  0.00  0.00    +0.078 C 
ATOM      9  C   UNL     1      36.721 -22.647 -16.007  0.00  0.00    +0.227 C 
ATOM     10  C   UNL     1      34.684 -23.799 -16.075  0.00  0.00    +0.144 C 
ATOM     11  C   UNL     1      32.610 -23.098 -17.066  0.00  0.00    +0.008 C 
ATOM     12  C   UNL     1      33.959 -24.584 -15.162  0.00  0.00    +0.051 C 
ATOM     13  C   UNL     1      32.569 -24.608 -15.189  0.00  0.00    +0.048 C 
ATOM     14  C   UNL     1      31.892 -23.859 -16.140  0.00  0.00    +0.015 C 
ATOM     15  O   UNL     1      33.365 -19.586 -22.780  0.00  0.00    -0.432 OA
ATOM     16  O   UNL     1      32.245 -20.508 -21.009  0.00  0.00    -0.226 OA
ATOM     17  N   UNL     1      34.595 -20.369 -21.052  0.00  0.00    -0.194 N 
ATOM     18  C   UNL     1      35.527 -19.691 -21.925  0.00  0.00    +0.195 C 
ATOM     19  C   UNL     1      34.730 -19.602 -23.211  0.00  0.00    +0.236 C 
ATOM     20  C   UNL     1      33.299 -20.195 -21.546  0.00  0.00    +0.411 C 
ENDROOT
BRANCH  18  23
ATOM     21  F   UNL     1      37.186 -18.333 -20.988  0.00  0.00    -0.196 F 
ATOM     22  F   UNL     1      35.806 -17.415 -22.398  0.00  0.00    -0.196 F 
ATOM     23  C   UNL     1      35.900 -18.309 -21.392  0.00  0.00    +0.340 C 
ENDBRANCH  18  23
BRANCH  13  24
ATOM     24  N   UNL     1      31.854 -25.389 -14.258  0.00  0.00    -0.327 N 
ATOM     25  H   UNL     1      32.175 -26.298 -14.063  0.00  0.00    +0.147 HD
BRANCH  24  26
ATOM     26  C   UNL     1      30.684 -24.917 -13.583  0.00  0.00    +0.146 C 
ATOM     27  C   UNL     1      30.889 -23.469 -13.163  0.00  0.00    +0.031 C 
BRANCH  26  30
ATOM     28  O   UNL     1      28.948 -24.089 -15.062  0.00  0.00    -0.274 OA
ATOM     29  N   UNL     1      29.073 -26.349 -14.676  0.00  0.00    -0.327 N 
ATOM     30  C   UNL     1      29.488 -25.046 -14.511  0.00  0.00    +0.237 C 
ATOM     31  H   UNL     1      28.304 -26.552 -15.256  0.00  0.00    +0.145 HD
ATOM     32  H   UNL     1      29.544 -27.079 -14.212  0.00  0.00    +0.145 HD
ENDBRANCH  26  30
ENDBRANCH  24  26
ENDBRANCH  13  24
TORSDOF 4
ENDMDL
MODEL 8
REMARK VINA RESULT:      -8.8     10.589     14.590
REMARK  Name = 124173720
REMARK  4 active torsions:
REMARK  status: ('A' for Active; 'I' for Inactive)
REMARK    1  A    between atoms: C_13  and  N_24
REMARK    2  A    between atoms: C_18  and  C_23
REMARK    3  A    between atoms: N_24  and  C_26
REMARK    4  A    between atoms: C_26  and  C_30
REMARK                            x       y       z     vdW  Elec       q    Type
REMARK                         _______ _______ _______ _____ _____    ______ ____
ROOT
ATOM      1  O   UNL     1      31.116  -9.053 -20.953  0.00  0.00    -0.473 OA
ATOM      2  N   UNL     1      32.225 -11.714 -21.893  0.00  0.00    -0.272 N 
ATOM      3  N   UNL     1      32.775 -11.719 -24.029  0.00  0.00    -0.374 NA
ATOM      4  C   UNL     1      32.913 -12.980 -23.522  0.00  0.00    +0.190 C 
ATOM      5  C   UNL     1      32.350 -10.947 -23.035  0.00  0.00    +0.188 C 
ATOM      6  C   UNL     1      31.807 -11.309 -20.568  0.00  0.00    +0.141 C 
ATOM      7  C   UNL     1      32.574 -13.005 -22.196  0.00  0.00    +0.169 C 
ATOM      8  C   UNL     1      32.071  -9.504 -23.187  0.00  0.00    +0.078 C 
ATOM      9  C   UNL     1      32.083  -9.851 -20.278  0.00  0.00    +0.227 C 
ATOM     10  C   UNL     1      31.492  -8.673 -22.213  0.00  0.00    +0.144 C 
ATOM     11  C   UNL     1      32.378  -8.917 -24.433  0.00  0.00    +0.008 C 
ATOM     12  C   UNL     1      31.190  -7.331 -22.503  0.00  0.00    +0.051 C 
ATOM     13  C   UNL     1      31.501  -6.782 -23.742  0.00  0.00    +0.048 C 
ATOM     14  C   UNL     1      32.102  -7.575 -24.709  0.00  0.00    +0.015 C 
ATOM     15  O   UNL     1      33.888 -15.285 -26.085  0.00  0.00    -0.432 OA
ATOM     16  O   UNL     1      33.792 -13.012 -26.337  0.00  0.00    -0.226 OA
ATOM     17  N   UNL     1      33.334 -14.049 -24.274  0.00  0.00    -0.194 N 
ATOM     18  C   UNL     1      33.496 -15.404 -23.793  0.00  0.00    +0.195 C 
ATOM     19  C   UNL     1      33.421 -16.195 -25.084  0.00  0.00    +0.236 C 
ATOM     20  C   UNL     1      33.677 -14.003 -25.628  0.00  0.00    +0.411 C 
ENDROOT
BRANCH  18  23
ATOM     21  F   UNL     1      34.621 -15.651 -21.756  0.00  0.00    -0.196 F 
ATOM     22  F   UNL     1      35.358 -16.783 -23.463  0.00  0.00    -0.196 F 
ATOM     23  C   UNL     1      34.836 -15.597 -23.086  0.00  0.00    +0.340 C 
ENDBRANCH  18  23
BRANCH  13  24
ATOM     24  N   UNL     1      31.207  -5.431 -24.014  0.00  0.00    -0.327 N 
ATOM     25  H   UNL     1      30.298  -5.199 -24.312  0.00  0.00    +0.147 HD
BRANCH  24  26
ATOM     26  C   UNL     1      32.170  -4.382 -23.877  0.00  0.00    +0.146 C 
ATOM     27  C   UNL     1      33.128  -4.414 -25.059  0.00  0.00    +0.031 C 
BRANCH  26  30
ATOM     28  O   UNL     1      31.908  -2.054 -23.246  0.00  0.00    -0.274 OA
ATOM     29  N   UNL     1      30.221  -3.065 -24.431  0.00  0.00    -0.327 N 
ATOM     30  C   UNL     1      31.447  -3.048 -23.804  0.00  0.00    +0.237 C 
ATOM     31  H   UNL     1      29.663  -2.254 -24.446  0.00  0.00    +0.145 HD
ATOM     32  H   UNL     1      29.901  -3.889 -24.865  0.00  0.00    +0.145 HD
ENDBRANCH  26  30
ENDBRANCH  24  26
ENDBRANCH  13  24
TORSDOF 4
ENDMDL
