MODEL 1
REMARK VINA RESULT:     -12.4      0.000      0.000
REMARK  Name = 3478
REMARK  7 active torsions:
REMARK  status: ('A' for Active; 'I' for Inactive)
REMARK    1  A    between atoms: C_1  and  S_7
REMARK    2  A    between atoms: C_2  and  C_22
REMARK    3  A    between atoms: S_7  and  N_12
REMARK    4  A    between atoms: N_11  and  C_16
REMARK    5  A    between atoms: C_22  and  C_23
REMARK    6  A    between atoms: C_23  and  N_25
REMARK    7  A    between atoms: C_26  and  C_30
REMARK                            x       y       z     vdW  Elec       q    Type
REMARK                         _______ _______ _______ _____ _____    ______ ____
ROOT
ATOM      1  C   UNL     1      33.971 -22.124 -19.113  0.00  0.00    +0.125 C 
ATOM      2  C   UNL     1      35.130 -20.256 -20.829  0.00  0.00    -0.020 C 
ATOM      3  C   UNL     1      33.163 -21.286 -19.881  0.00  0.00    +0.020 C 
ATOM      4  C   UNL     1      35.359 -22.028 -19.202  0.00  0.00    +0.020 C 
ATOM      5  C   UNL     1      33.742 -20.352 -20.739  0.00  0.00    -0.003 C 
ATOM      6  C   UNL     1      35.939 -21.093 -20.061  0.00  0.00    -0.003 C 
ENDROOT
BRANCH   1   7
ATOM      7  S   UNL     1      33.236 -23.308 -18.025  0.00  0.00    +0.077 S 
ATOM      8  O   UNL     1      33.285 -24.605 -18.672  0.00  0.00    -0.150 OA
ATOM      9  O   UNL     1      31.970 -22.750 -17.591  0.00  0.00    -0.150 OA
BRANCH   7  12
ATOM     10  O   UNL     1      33.272 -24.801 -15.302  0.00  0.00    -0.251 OA
ATOM     11  N   UNL     1      35.256 -23.819 -14.635  0.00  0.00    -0.289 N 
ATOM     12  N   UNL     1      34.340 -23.284 -16.721  0.00  0.00    -0.169 N 
ATOM     13  C   UNL     1      34.213 -24.040 -15.513  0.00  0.00    +0.319 C 
ATOM     14  H   UNL     1      35.965 -23.187 -14.898  0.00  0.00    +0.151 HD
ATOM     15  H   UNL     1      35.129 -22.700 -16.808  0.00  0.00    +0.178 HD
BRANCH  11  16
ATOM     16  C   UNL     1      35.355 -24.472 -13.350  0.00  0.00    +0.073 C 
ATOM     17  C   UNL     1      35.683 -23.464 -12.242  0.00  0.00    +0.020 C 
ATOM     18  C   UNL     1      36.381 -25.609 -13.387  0.00  0.00    +0.020 C 
ATOM     19  C   UNL     1      37.122 -22.955 -12.323  0.00  0.00    +0.002 C 
ATOM     20  C   UNL     1      37.819 -25.097 -13.466  0.00  0.00    +0.002 C 
ATOM     21  C   UNL     1      38.125 -24.105 -12.348  0.00  0.00    +0.000 C 
ENDBRANCH  11  16
ENDBRANCH   7  12
ENDBRANCH   1   7
BRANCH   2  22
ATOM     22  C   UNL     1      35.751 -19.257 -21.747  0.00  0.00    +0.048 C 
BRANCH  22  23
ATOM     23  C   UNL     1      34.948 -19.024 -23.033  0.00  0.00    +0.094 C 
BRANCH  23  25
ATOM     24  O   UNL     1      34.027 -17.858 -25.490  0.00  0.00    -0.269 OA
ATOM     25  N   UNL     1      34.716 -17.627 -23.287  0.00  0.00    -0.300 N 
ATOM     26  C   UNL     1      34.268 -17.152 -24.514  0.00  0.00    +0.261 C 
ATOM     27  H   UNL     1      34.882 -16.982 -22.562  0.00  0.00    +0.150 HD
BRANCH  26  30
ATOM     28  N   UNL     1      33.624 -15.212 -25.793  0.00  0.00    -0.262 NA
ATOM     29  N   UNL     1      34.280 -13.505 -23.666  0.00  0.00    -0.270 NA
ATOM     30  C   UNL     1      34.103 -15.680 -24.624  0.00  0.00    +0.132 C 
ATOM     31  C   UNL     1      34.425 -14.842 -23.578  0.00  0.00    +0.174 C 
ATOM     32  C   UNL     1      33.801 -13.036 -24.835  0.00  0.00    +0.057 C 
ATOM     33  C   UNL     1      33.478 -13.875 -25.880  0.00  0.00    +0.166 C 
ATOM     34  C   UNL     1      33.626 -11.563 -24.966  0.00  0.00    +0.049 C 
ENDBRANCH  26  30
ENDBRANCH  23  25
ENDBRANCH  22  23
ENDBRANCH   2  22
TORSDOF 7
ENDMDL
MODEL 2
REMARK VINA RESULT:     -11.1      3.522      4.565
REMARK  Name = 3478
REMARK  7 active torsions:
REMARK  status: ('A' for Active; 'I' for Inactive)
REMARK    1  A    between atoms: C_1  and  S_7
REMARK    2  A    between atoms: C_2  and  C_22
REMARK    3  A    between atoms: S_7  and  N_12
REMARK    4  A    between atoms: N_11  and  C_16
REMARK    5  A    between atoms: C_22  and  C_23
REMARK    6  A    between atoms: C_23  and  N_25
REMARK    7  A    between atoms: C_26  and  C_30
REMARK                            x       y       z     vdW  Elec       q    Type
REMARK                         _______ _______ _______ _____ _____    ______ ____
ROOT
ATOM      1  C   UNL     1      34.506 -21.657 -19.827  0.00  0.00    +0.125 C 
ATOM      2  C   UNL     1      35.290 -19.430 -21.312  0.00  0.00    -0.020 C 
ATOM      3  C   UNL     1      33.547 -20.871 -20.465  0.00  0.00    +0.020 C 
ATOM      4  C   UNL     1      35.858 -21.331 -19.931  0.00  0.00    +0.020 C 
ATOM      5  C   UNL     1      33.939 -19.757 -21.207  0.00  0.00    -0.003 C 
ATOM      6  C   UNL     1      36.250 -20.216 -20.674  0.00  0.00    -0.003 C 
ENDROOT
BRANCH   1   7
ATOM      7  S   UNL     1      34.009 -23.069 -18.886  0.00  0.00    +0.077 S 
ATOM      8  O   UNL     1      34.857 -23.150 -17.712  0.00  0.00    -0.150 OA
ATOM      9  O   UNL     1      33.926 -24.182 -19.812  0.00  0.00    -0.150 OA
BRANCH   7  12
ATOM     10  O   UNL     1      32.358 -23.632 -16.317  0.00  0.00    -0.251 OA
ATOM     11  N   UNL     1      30.523 -22.446 -17.071  0.00  0.00    -0.289 N 
ATOM     12  N   UNL     1      32.432 -22.610 -18.415  0.00  0.00    -0.169 N 
ATOM     13  C   UNL     1      31.802 -22.957 -17.178  0.00  0.00    +0.319 C 
ATOM     14  H   UNL     1      30.166 -21.914 -17.820  0.00  0.00    +0.151 HD
ATOM     15  H   UNL     1      31.913 -22.061 -19.048  0.00  0.00    +0.178 HD
BRANCH  11  16
ATOM     16  C   UNL     1      29.686 -22.655 -15.912  0.00  0.00    +0.073 C 
ATOM     17  C   UNL     1      29.949 -24.028 -15.283  0.00  0.00    +0.020 C 
ATOM     18  C   UNL     1      28.204 -22.480 -16.263  0.00  0.00    +0.020 C 
ATOM     19  C   UNL     1      29.407 -25.175 -16.135  0.00  0.00    +0.002 C 
ATOM     20  C   UNL     1      27.665 -23.630 -17.114  0.00  0.00    +0.002 C 
ATOM     21  C   UNL     1      27.928 -24.984 -16.462  0.00  0.00    +0.000 C 
ENDBRANCH  11  16
ENDBRANCH   7  12
ENDBRANCH   1   7
BRANCH   2  22
ATOM     22  C   UNL     1      35.711 -18.239 -22.106  0.00  0.00    +0.048 C 
BRANCH  22  23
ATOM     23  C   UNL     1      35.021 -16.940 -21.671  0.00  0.00    +0.094 C 
BRANCH  23  25
ATOM     24  O   UNL     1      33.881 -14.308 -21.547  0.00  0.00    -0.269 OA
ATOM     25  N   UNL     1      34.748 -16.069 -22.783  0.00  0.00    -0.300 N 
ATOM     26  C   UNL     1      34.191 -14.805 -22.626  0.00  0.00    +0.261 C 
ATOM     27  H   UNL     1      34.964 -16.381 -23.692  0.00  0.00    +0.150 HD
BRANCH  26  30
ATOM     28  N   UNL     1      34.169 -12.711 -23.823  0.00  0.00    -0.262 NA
ATOM     29  N   UNL     1      33.290 -13.980 -26.166  0.00  0.00    -0.270 NA
ATOM     30  C   UNL     1      33.946 -14.039 -23.876  0.00  0.00    +0.132 C 
ATOM     31  C   UNL     1      33.515 -14.663 -25.026  0.00  0.00    +0.174 C 
ATOM     32  C   UNL     1      33.512 -12.651 -26.115  0.00  0.00    +0.057 C 
ATOM     33  C   UNL     1      33.944 -12.028 -24.963  0.00  0.00    +0.166 C 
ATOM     34  C   UNL     1      33.274 -11.865 -27.356  0.00  0.00    +0.049 C 
ENDBRANCH  26  30
ENDBRANCH  23  25
ENDBRANCH  22  23
ENDBRANCH   2  22
TORSDOF 7
ENDMDL
MODEL 3
REMARK VINA RESULT:     -10.8      3.532      4.615
REMARK  Name = 3478
REMARK  7 active torsions:
REMARK  status: ('A' for Active; 'I' for Inactive)
REMARK    1  A    between atoms: C_1  and  S_7
REMARK    2  A    between atoms: C_2  and  C_22
REMARK    3  A    between atoms: S_7  and  N_12
REMARK    4  A    between atoms: N_11  and  C_16
REMARK    5  A    between atoms: C_22  and  C_23
REMARK    6  A    between atoms: C_23  and  N_25
REMARK    7  A    between atoms: C_26  and  C_30
REMARK                            x       y       z     vdW  Elec       q    Type
REMARK                         _______ _______ _______ _____ _____    ______ ____
ROOT
ATOM      1  C   UNL     1      34.168 -21.684 -19.908  0.00  0.00    +0.125 C 
ATOM      2  C   UNL     1      34.568 -19.487 -21.578  0.00  0.00    -0.020 C 
ATOM      3  C   UNL     1      35.463 -21.284 -20.236  0.00  0.00    +0.020 C 
ATOM      4  C   UNL     1      33.073 -20.987 -20.414  0.00  0.00    +0.020 C 
ATOM      5  C   UNL     1      35.663 -20.185 -21.071  0.00  0.00    -0.003 C 
ATOM      6  C   UNL     1      33.273 -19.887 -21.250  0.00  0.00    -0.003 C 
ENDROOT
BRANCH   1   7
ATOM      7  S   UNL     1      33.915 -23.077 -18.849  0.00  0.00    +0.077 S 
ATOM      8  O   UNL     1      34.853 -22.983 -17.747  0.00  0.00    -0.150 OA
ATOM      9  O   UNL     1      33.894 -24.252 -19.699  0.00  0.00    -0.150 OA
BRANCH   7  12
ATOM     10  O   UNL     1      32.639 -23.329 -16.028  0.00  0.00    -0.251 OA
ATOM     11  N   UNL     1      30.564 -22.613 -16.754  0.00  0.00    -0.289 N 
ATOM     12  N   UNL     1      32.335 -22.769 -18.275  0.00  0.00    -0.169 N 
ATOM     13  C   UNL     1      31.895 -22.939 -16.924  0.00  0.00    +0.319 C 
ATOM     14  H   UNL     1      30.051 -22.309 -17.538  0.00  0.00    +0.151 HD
ATOM     15  H   UNL     1      31.671 -22.449 -18.929  0.00  0.00    +0.178 HD
BRANCH  11  16
ATOM     16  C   UNL     1      29.890 -22.697 -15.477  0.00  0.00    +0.073 C 
ATOM     17  C   UNL     1      30.439 -23.857 -14.639  0.00  0.00    +0.020 C 
ATOM     18  C   UNL     1      28.374 -22.814 -15.662  0.00  0.00    +0.020 C 
ATOM     19  C   UNL     1      30.015 -25.222 -15.183  0.00  0.00    +0.002 C 
ATOM     20  C   UNL     1      27.953 -24.180 -16.204  0.00  0.00    +0.002 C 
ATOM     21  C   UNL     1      28.501 -25.318 -15.348  0.00  0.00    +0.000 C 
ENDBRANCH  11  16
ENDBRANCH   7  12
ENDBRANCH   1   7
BRANCH   2  22
ATOM     22  C   UNL     1      34.781 -18.311 -22.471  0.00  0.00    +0.048 C 
BRANCH  22  23
ATOM     23  C   UNL     1      35.419 -17.110 -21.761  0.00  0.00    +0.094 C 
BRANCH  23  25
ATOM     24  O   UNL     1      34.981 -14.985 -23.642  0.00  0.00    -0.269 OA
ATOM     25  N   UNL     1      34.502 -16.011 -21.618  0.00  0.00    -0.300 N 
ATOM     26  C   UNL     1      34.357 -15.023 -22.585  0.00  0.00    +0.261 C 
ATOM     27  H   UNL     1      33.955 -15.956 -20.800  0.00  0.00    +0.150 HD
BRANCH  26  30
ATOM     28  N   UNL     1      32.727 -14.041 -21.104  0.00  0.00    -0.262 NA
ATOM     29  N   UNL     1      32.305 -11.904 -22.871  0.00  0.00    -0.270 NA
ATOM     30  C   UNL     1      33.388 -13.941 -22.274  0.00  0.00    +0.132 C 
ATOM     31  C   UNL     1      33.182 -12.892 -23.142  0.00  0.00    +0.174 C 
ATOM     32  C   UNL     1      31.643 -12.003 -21.701  0.00  0.00    +0.057 C 
ATOM     33  C   UNL     1      31.851 -13.053 -20.833  0.00  0.00    +0.166 C 
ATOM     34  C   UNL     1      30.668 -10.929 -21.368  0.00  0.00    +0.049 C 
ENDBRANCH  26  30
ENDBRANCH  23  25
ENDBRANCH  22  23
ENDBRANCH   2  22
TORSDOF 7
ENDMDL
MODEL 4
REMARK VINA RESULT:     -10.8      5.079     13.829
REMARK  Name = 3478
REMARK  7 active torsions:
REMARK  status: ('A' for Active; 'I' for Inactive)
REMARK    1  A    between atoms: C_1  and  S_7
REMARK    2  A    between atoms: C_2  and  C_22
REMARK    3  A    between atoms: S_7  and  N_12
REMARK    4  A    between atoms: N_11  and  C_16
REMARK    5  A    between atoms: C_22  and  C_23
REMARK    6  A    between atoms: C_23  and  N_25
REMARK    7  A    between atoms: C_26  and  C_30
REMARK                            x       y       z     vdW  Elec       q    Type
REMARK                         _______ _______ _______ _____ _____    ______ ____
ROOT
ATOM      1  C   UNL     1      33.806 -12.957 -25.639  0.00  0.00    +0.125 C 
ATOM      2  C   UNL     1      34.081 -14.623 -23.419  0.00  0.00    -0.020 C 
ATOM      3  C   UNL     1      34.076 -12.410 -24.385  0.00  0.00    +0.020 C 
ATOM      4  C   UNL     1      33.673 -14.337 -25.784  0.00  0.00    +0.020 C 
ATOM      5  C   UNL     1      34.212 -13.242 -23.275  0.00  0.00    -0.003 C 
ATOM      6  C   UNL     1      33.810 -15.171 -24.673  0.00  0.00    -0.003 C 
ENDROOT
BRANCH   1   7
ATOM      7  S   UNL     1      33.632 -11.901 -27.046  0.00  0.00    +0.077 S 
ATOM      8  O   UNL     1      32.419 -12.278 -27.746  0.00  0.00    -0.150 OA
ATOM      9  O   UNL     1      34.910 -11.905 -27.733  0.00  0.00    -0.150 OA
BRANCH   7  12
ATOM     10  O   UNL     1      35.639  -9.793 -25.962  0.00  0.00    -0.251 OA
ATOM     11  N   UNL     1      33.965  -8.358 -25.266  0.00  0.00    -0.289 N 
ATOM     12  N   UNL     1      33.403 -10.385 -26.291  0.00  0.00    -0.169 N 
ATOM     13  C   UNL     1      34.448  -9.518 -25.840  0.00  0.00    +0.319 C 
ATOM     14  H   UNL     1      32.989  -8.231 -25.215  0.00  0.00    +0.151 HD
ATOM     15  H   UNL     1      32.476 -10.084 -26.155  0.00  0.00    +0.178 HD
BRANCH  11  16
ATOM     16  C   UNL     1      34.825  -7.323 -24.739  0.00  0.00    +0.073 C 
ATOM     17  C   UNL     1      34.495  -7.024 -23.273  0.00  0.00    +0.020 C 
ATOM     18  C   UNL     1      34.749  -6.054 -25.595  0.00  0.00    +0.020 C 
ATOM     19  C   UNL     1      33.166  -6.285 -23.112  0.00  0.00    +0.002 C 
ATOM     20  C   UNL     1      33.420  -5.317 -25.432  0.00  0.00    +0.002 C 
ATOM     21  C   UNL     1      33.118  -5.021 -23.965  0.00  0.00    +0.000 C 
ENDBRANCH  11  16
ENDBRANCH   7  12
ENDBRANCH   1   7
BRANCH   2  22
ATOM     22  C   UNL     1      34.227 -15.515 -22.232  0.00  0.00    +0.048 C 
BRANCH  22  23
ATOM     23  C   UNL     1      35.169 -16.702 -22.471  0.00  0.00    +0.094 C 
BRANCH  23  25
ATOM     24  O   UNL     1      34.674 -19.409 -23.290  0.00  0.00    -0.269 OA
ATOM     25  N   UNL     1      34.869 -17.817 -21.613  0.00  0.00    -0.300 N 
ATOM     26  C   UNL     1      34.643 -19.099 -22.102  0.00  0.00    +0.261 C 
ATOM     27  H   UNL     1      34.822 -17.667 -20.641  0.00  0.00    +0.150 HD
BRANCH  26  30
ATOM     28  N   UNL     1      35.364 -20.736 -20.484  0.00  0.00    -0.262 NA
ATOM     29  N   UNL     1      32.709 -21.401 -19.869  0.00  0.00    -0.270 NA
ATOM     30  C   UNL     1      34.319 -20.136 -21.089  0.00  0.00    +0.132 C 
ATOM     31  C   UNL     1      33.015 -20.462 -20.787  0.00  0.00    +0.174 C 
ATOM     32  C   UNL     1      33.753 -22.002 -19.265  0.00  0.00    +0.057 C 
ATOM     33  C   UNL     1      35.057 -21.675 -19.567  0.00  0.00    +0.166 C 
ATOM     34  C   UNL     1      33.452 -23.043 -18.244  0.00  0.00    +0.049 C 
ENDBRANCH  26  30
ENDBRANCH  23  25
ENDBRANCH  22  23
ENDBRANCH   2  22
TORSDOF 7
ENDMDL
MODEL 5
REMARK VINA RESULT:     -10.7      1.722      2.388
REMARK  Name = 3478
REMARK  7 active torsions:
REMARK  status: ('A' for Active; 'I' for Inactive)
REMARK    1  A    between atoms: C_1  and  S_7
REMARK    2  A    between atoms: C_2  and  C_22
REMARK    3  A    between atoms: S_7  and  N_12
REMARK    4  A    between atoms: N_11  and  C_16
REMARK    5  A    between atoms: C_22  and  C_23
REMARK    6  A    between atoms: C_23  and  N_25
REMARK    7  A    between atoms: C_26  and  C_30
REMARK                            x       y       z     vdW  Elec       q    Type
REMARK                         _______ _______ _______ _____ _____    ______ ____
ROOT
ATOM      1  C   UNL     1      33.819 -21.860 -19.378  0.00  0.00    +0.125 C 
ATOM      2  C   UNL     1      34.592 -19.908 -21.214  0.00  0.00    -0.020 C 
ATOM      3  C   UNL     1      35.172 -21.645 -19.640  0.00  0.00    +0.020 C 
ATOM      4  C   UNL     1      32.852 -21.099 -20.034  0.00  0.00    +0.020 C 
ATOM      5  C   UNL     1      35.559 -20.669 -20.558  0.00  0.00    -0.003 C 
ATOM      6  C   UNL     1      33.239 -20.123 -20.953  0.00  0.00    -0.003 C 
ENDROOT
BRANCH   1   7
ATOM      7  S   UNL     1      33.329 -23.097 -18.214  0.00  0.00    +0.077 S 
ATOM      8  O   UNL     1      33.421 -24.390 -18.864  0.00  0.00    -0.150 OA
ATOM      9  O   UNL     1      32.077 -22.653 -17.633  0.00  0.00    -0.150 OA
BRANCH   7  12
ATOM     10  O   UNL     1      34.517 -25.131 -16.190  0.00  0.00    -0.251 OA
ATOM     11  N   UNL     1      36.030 -23.606 -15.336  0.00  0.00    -0.289 N 
ATOM     12  N   UNL     1      34.571 -22.960 -17.048  0.00  0.00    -0.169 N 
ATOM     13  C   UNL     1      35.008 -24.006 -16.175  0.00  0.00    +0.319 C 
ATOM     14  H   UNL     1      36.356 -22.678 -15.403  0.00  0.00    +0.151 HD
ATOM     15  H   UNL     1      35.024 -22.088 -16.971  0.00  0.00    +0.178 HD
BRANCH  11  16
ATOM     16  C   UNL     1      36.643 -24.486 -14.367  0.00  0.00    +0.073 C 
ATOM     17  C   UNL     1      35.588 -25.130 -13.462  0.00  0.00    +0.020 C 
ATOM     18  C   UNL     1      37.703 -23.746 -13.545  0.00  0.00    +0.020 C 
ATOM     19  C   UNL     1      34.978 -24.135 -12.475  0.00  0.00    +0.002 C 
ATOM     20  C   UNL     1      37.091 -22.753 -12.558  0.00  0.00    +0.002 C 
ATOM     21  C   UNL     1      36.052 -23.419 -11.661  0.00  0.00    +0.000 C 
ENDBRANCH  11  16
ENDBRANCH   7  12
ENDBRANCH   1   7
BRANCH   2  22
ATOM     22  C   UNL     1      35.005 -18.864 -22.196  0.00  0.00    +0.048 C 
BRANCH  22  23
ATOM     23  C   UNL     1      35.662 -17.639 -21.548  0.00  0.00    +0.094 C 
BRANCH  23  25
ATOM     24  O   UNL     1      35.329 -15.656 -23.598  0.00  0.00    -0.269 OA
ATOM     25  N   UNL     1      34.781 -16.503 -21.509  0.00  0.00    -0.300 N 
ATOM     26  C   UNL     1      34.686 -15.591 -22.554  0.00  0.00    +0.261 C 
ATOM     27  H   UNL     1      34.222 -16.365 -20.709  0.00  0.00    +0.150 HD
BRANCH  26  30
ATOM     28  N   UNL     1      33.083 -14.429 -21.176  0.00  0.00    -0.262 NA
ATOM     29  N   UNL     1      32.728 -12.452 -23.134  0.00  0.00    -0.270 NA
ATOM     30  C   UNL     1      33.748 -14.457 -22.348  0.00  0.00    +0.132 C 
ATOM     31  C   UNL     1      33.575 -13.486 -23.309  0.00  0.00    +0.174 C 
ATOM     32  C   UNL     1      32.061 -12.424 -21.963  0.00  0.00    +0.057 C 
ATOM     33  C   UNL     1      32.235 -13.395 -21.001  0.00  0.00    +0.166 C 
ATOM     34  C   UNL     1      31.117 -11.295 -21.735  0.00  0.00    +0.049 C 
ENDBRANCH  26  30
ENDBRANCH  23  25
ENDBRANCH  22  23
ENDBRANCH   2  22
TORSDOF 7
ENDMDL
MODEL 6
REMARK VINA RESULT:     -10.6      2.813      4.499
REMARK  Name = 3478
REMARK  7 active torsions:
REMARK  status: ('A' for Active; 'I' for Inactive)
REMARK    1  A    between atoms: C_1  and  S_7
REMARK    2  A    between atoms: C_2  and  C_22
REMARK    3  A    between atoms: S_7  and  N_12
REMARK    4  A    between atoms: N_11  and  C_16
REMARK    5  A    between atoms: C_22  and  C_23
REMARK    6  A    between atoms: C_23  and  N_25
REMARK    7  A    between atoms: C_26  and  C_30
REMARK                            x       y       z     vdW  Elec       q    Type
REMARK                         _______ _______ _______ _____ _____    ______ ____
ROOT
ATOM      1  C   UNL     1      35.095 -22.970 -17.084  0.00  0.00    +0.125 C 
ATOM      2  C   UNL     1      34.839 -21.603 -19.502  0.00  0.00    -0.020 C 
ATOM      3  C   UNL     1      33.892 -23.017 -17.789  0.00  0.00    +0.020 C 
ATOM      4  C   UNL     1      36.170 -22.239 -17.588  0.00  0.00    +0.020 C 
ATOM      5  C   UNL     1      33.764 -22.333 -18.997  0.00  0.00    -0.003 C 
ATOM      6  C   UNL     1      36.042 -21.555 -18.797  0.00  0.00    -0.003 C 
ENDROOT
BRANCH   1   7
ATOM      7  S   UNL     1      35.257 -23.837 -15.552  0.00  0.00    +0.077 S 
ATOM      8  O   UNL     1      35.449 -22.859 -14.499  0.00  0.00    -0.150 OA
ATOM      9  O   UNL     1      36.232 -24.889 -15.767  0.00  0.00    -0.150 OA
BRANCH   7  12
ATOM     10  O   UNL     1      32.559 -22.698 -14.517  0.00  0.00    -0.251 OA
ATOM     11  N   UNL     1      31.423 -24.676 -14.893  0.00  0.00    -0.289 N 
ATOM     12  N   UNL     1      33.703 -24.532 -15.403  0.00  0.00    -0.169 N 
ATOM     13  C   UNL     1      32.542 -23.865 -14.897  0.00  0.00    +0.319 C 
ATOM     14  H   UNL     1      31.513 -25.601 -15.219  0.00  0.00    +0.151 HD
ATOM     15  H   UNL     1      33.597 -25.468 -15.689  0.00  0.00    +0.178 HD
BRANCH  11  16
ATOM     16  C   UNL     1      30.129 -24.229 -14.432  0.00  0.00    +0.073 C 
ATOM     17  C   UNL     1      29.040 -25.255 -14.763  0.00  0.00    +0.020 C 
ATOM     18  C   UNL     1      29.786 -22.850 -15.007  0.00  0.00    +0.020 C 
ATOM     19  C   UNL     1      28.718 -25.305 -16.256  0.00  0.00    +0.002 C 
ATOM     20  C   UNL     1      29.463 -22.903 -16.500  0.00  0.00    +0.002 C 
ATOM     21  C   UNL     1      28.369 -23.923 -16.803  0.00  0.00    +0.000 C 
ENDBRANCH  11  16
ENDBRANCH   7  12
ENDBRANCH   1   7
BRANCH   2  22
ATOM     22  C   UNL     1      34.703 -20.871 -20.795  0.00  0.00    +0.048 C 
BRANCH  22  23
ATOM     23  C   UNL     1      35.810 -19.836 -21.032  0.00  0.00    +0.094 C 
BRANCH  23  25
ATOM     24  O   UNL     1      35.106 -19.807 -23.815  0.00  0.00    -0.269 OA
ATOM     25  N   UNL     1      35.347 -18.704 -21.789  0.00  0.00    -0.300 N 
ATOM     26  C   UNL     1      35.028 -18.785 -23.139  0.00  0.00    +0.261 C 
ATOM     27  H   UNL     1      35.252 -17.837 -21.332  0.00  0.00    +0.150 HD
BRANCH  26  30
ATOM     28  N   UNL     1      34.878 -16.378 -23.129  0.00  0.00    -0.262 NA
ATOM     29  N   UNL     1      33.521 -16.382 -25.584  0.00  0.00    -0.270 NA
ATOM     30  C   UNL     1      34.589 -17.520 -23.784  0.00  0.00    +0.132 C 
ATOM     31  C   UNL     1      33.924 -17.523 -24.990  0.00  0.00    +0.174 C 
ATOM     32  C   UNL     1      33.808 -15.239 -24.930  0.00  0.00    +0.057 C 
ATOM     33  C   UNL     1      34.475 -15.237 -23.724  0.00  0.00    +0.166 C 
ATOM     34  C   UNL     1      33.379 -13.959 -25.558  0.00  0.00    +0.049 C 
ENDBRANCH  26  30
ENDBRANCH  23  25
ENDBRANCH  22  23
ENDBRANCH   2  22
TORSDOF 7
ENDMDL
MODEL 7
REMARK VINA RESULT:     -10.4      3.208      5.427
REMARK  Name = 3478
REMARK  7 active torsions:
REMARK  status: ('A' for Active; 'I' for Inactive)
REMARK    1  A    between atoms: C_1  and  S_7
REMARK    2  A    between atoms: C_2  and  C_22
REMARK    3  A    between atoms: S_7  and  N_12
REMARK    4  A    between atoms: N_11  and  C_16
REMARK    5  A    between atoms: C_22  and  C_23
REMARK    6  A    between atoms: C_23  and  N_25
REMARK    7  A    between atoms: C_26  and  C_30
REMARK                            x       y       z     vdW  Elec       q    Type
REMARK                         _______ _______ _______ _____ _____    ______ ____
ROOT
ATOM      1  C   UNL     1      35.741 -23.698 -15.083  0.00  0.00    +0.125 C 
ATOM      2  C   UNL     1      36.435 -22.111 -17.269  0.00  0.00    -0.020 C 
ATOM      3  C   UNL     1      34.814 -23.465 -16.098  0.00  0.00    +0.020 C 
ATOM      4  C   UNL     1      37.016 -23.139 -15.160  0.00  0.00    +0.020 C 
ATOM      5  C   UNL     1      35.160 -22.671 -17.191  0.00  0.00    -0.003 C 
ATOM      6  C   UNL     1      37.363 -22.344 -16.254  0.00  0.00    -0.003 C 
ENDROOT
BRANCH   1   7
ATOM      7  S   UNL     1      35.301 -24.705 -13.698  0.00  0.00    +0.077 S 
ATOM      8  O   UNL     1      35.241 -23.855 -12.524  0.00  0.00    -0.150 OA
ATOM      9  O   UNL     1      36.176 -25.861 -13.725  0.00  0.00    -0.150 OA
BRANCH   7  12
ATOM     10  O   UNL     1      32.514 -23.480 -13.084  0.00  0.00    -0.251 OA
ATOM     11  N   UNL     1      31.384 -25.122 -14.255  0.00  0.00    -0.289 N 
ATOM     12  N   UNL     1      33.720 -25.185 -14.131  0.00  0.00    -0.169 N 
ATOM     13  C   UNL     1      32.516 -24.504 -13.762  0.00  0.00    +0.319 C 
ATOM     14  H   UNL     1      31.492 -25.942 -14.790  0.00  0.00    +0.151 HD
ATOM     15  H   UNL     1      33.628 -25.998 -14.680  0.00  0.00    +0.178 HD
BRANCH  11  16
ATOM     16  C   UNL     1      30.049 -24.620 -14.021  0.00  0.00    +0.073 C 
ATOM     17  C   UNL     1      28.995 -25.545 -14.641  0.00  0.00    +0.020 C 
ATOM     18  C   UNL     1      29.901 -23.185 -14.539  0.00  0.00    +0.020 C 
ATOM     19  C   UNL     1      28.976 -25.469 -16.168  0.00  0.00    +0.002 C 
ATOM     20  C   UNL     1      29.881 -23.113 -16.065  0.00  0.00    +0.002 C 
ATOM     21  C   UNL     1      28.818 -24.032 -16.658  0.00  0.00    +0.000 C 
ENDBRANCH  11  16
ENDBRANCH   7  12
ENDBRANCH   1   7
BRANCH   2  22
ATOM     22  C   UNL     1      36.807 -21.262 -18.438  0.00  0.00    +0.048 C 
BRANCH  22  23
ATOM     23  C   UNL     1      36.064 -21.635 -19.727  0.00  0.00    +0.094 C 
BRANCH  23  25
ATOM     24  O   UNL     1      33.600 -20.474 -20.632  0.00  0.00    -0.269 OA
ATOM     25  N   UNL     1      35.919 -20.515 -20.617  0.00  0.00    -0.300 N 
ATOM     26  C   UNL     1      34.679 -20.019 -21.003  0.00  0.00    +0.261 C 
ATOM     27  H   UNL     1      36.731 -20.082 -20.968  0.00  0.00    +0.150 HD
BRANCH  26  30
ATOM     28  N   UNL     1      35.051 -17.677 -21.440  0.00  0.00    -0.262 NA
ATOM     29  N   UNL     1      34.388 -18.004 -24.146  0.00  0.00    -0.270 NA
ATOM     30  C   UNL     1      34.698 -18.874 -21.949  0.00  0.00    +0.132 C 
ATOM     31  C   UNL     1      34.373 -19.035 -23.278  0.00  0.00    +0.174 C 
ATOM     32  C   UNL     1      34.739 -16.806 -23.637  0.00  0.00    +0.057 C 
ATOM     33  C   UNL     1      35.065 -16.646 -22.308  0.00  0.00    +0.166 C 
ATOM     34  C   UNL     1      34.767 -15.645 -24.568  0.00  0.00    +0.049 C 
ENDBRANCH  26  30
ENDBRANCH  23  25
ENDBRANCH  22  23
ENDBRANCH   2  22
TORSDOF 7
ENDMDL
MODEL 8
REMARK VINA RESULT:     -10.3      5.050     13.116
REMARK  Name = 3478
REMARK  7 active torsions:
REMARK  status: ('A' for Active; 'I' for Inactive)
REMARK    1  A    between atoms: C_1  and  S_7
REMARK    2  A    between atoms: C_2  and  C_22
REMARK    3  A    between atoms: S_7  and  N_12
REMARK    4  A    between atoms: N_11  and  C_16
REMARK    5  A    between atoms: C_22  and  C_23
REMARK    6  A    between atoms: C_23  and  N_25
REMARK    7  A    between atoms: C_26  and  C_30
REMARK                            x       y       z     vdW  Elec       q    Type
REMARK                         _______ _______ _______ _____ _____    ______ ____
ROOT
ATOM      1  C   UNL     1      32.751 -13.270 -22.246  0.00  0.00    +0.125 C 
ATOM      2  C   UNL     1      34.415 -15.307 -23.175  0.00  0.00    -0.020 C 
ATOM      3  C   UNL     1      32.866 -13.507 -23.616  0.00  0.00    +0.020 C 
ATOM      4  C   UNL     1      33.468 -14.051 -21.340  0.00  0.00    +0.020 C 
ATOM      5  C   UNL     1      33.698 -14.525 -24.080  0.00  0.00    -0.003 C 
ATOM      6  C   UNL     1      34.301 -15.070 -21.805  0.00  0.00    -0.003 C 
ENDROOT
BRANCH   1   7
ATOM      7  S   UNL     1      31.696 -11.979 -21.657  0.00  0.00    +0.077 S 
ATOM      8  O   UNL     1      31.934 -11.816 -20.236  0.00  0.00    -0.150 OA
ATOM      9  O   UNL     1      30.364 -12.268 -22.152  0.00  0.00    -0.150 OA
BRANCH   7  12
ATOM     10  O   UNL     1      31.253  -8.924 -21.321  0.00  0.00    -0.251 OA
ATOM     11  N   UNL     1      32.679  -8.387 -23.059  0.00  0.00    -0.289 N 
ATOM     12  N   UNL     1      32.329 -10.632 -22.496  0.00  0.00    -0.169 N 
ATOM     13  C   UNL     1      32.020  -9.262 -22.217  0.00  0.00    +0.319 C 
ATOM     14  H   UNL     1      33.275  -8.760 -23.749  0.00  0.00    +0.151 HD
ATOM     15  H   UNL     1      32.957 -10.812 -23.232  0.00  0.00    +0.178 HD
BRANCH  11  16
ATOM     16  C   UNL     1      32.534  -6.952 -22.972  0.00  0.00    +0.073 C 
ATOM     17  C   UNL     1      31.198  -6.495 -23.566  0.00  0.00    +0.020 C 
ATOM     18  C   UNL     1      33.713  -6.238 -23.642  0.00  0.00    +0.020 C 
ATOM     19  C   UNL     1      31.166  -6.610 -25.090  0.00  0.00    +0.002 C 
ATOM     20  C   UNL     1      33.678  -6.353 -25.165  0.00  0.00    +0.002 C 
ATOM     21  C   UNL     1      32.343  -5.882 -25.734  0.00  0.00    +0.000 C 
ENDBRANCH  11  16
ENDBRANCH   7  12
ENDBRANCH   1   7
BRANCH   2  22
ATOM     22  C   UNL     1      35.305 -16.396 -23.671  0.00  0.00    +0.048 C 
BRANCH  22  23
ATOM     23  C   UNL     1      34.542 -17.610 -24.216  0.00  0.00    +0.094 C 
BRANCH  23  25
ATOM     24  O   UNL     1      36.304 -18.754 -22.260  0.00  0.00    -0.269 OA
ATOM     25  N   UNL     1      34.186 -18.542 -23.180  0.00  0.00    -0.300 N 
ATOM     26  C   UNL     1      35.111 -19.045 -22.273  0.00  0.00    +0.261 C 
ATOM     27  H   UNL     1      33.248 -18.835 -23.111  0.00  0.00    +0.150 HD
BRANCH  26  30
ATOM     28  N   UNL     1      35.503 -20.766 -20.630  0.00  0.00    -0.262 NA
ATOM     29  N   UNL     1      32.752 -21.025 -20.143  0.00  0.00    -0.270 NA
ATOM     30  C   UNL     1      34.589 -20.019 -21.280  0.00  0.00    +0.132 C 
ATOM     31  C   UNL     1      33.238 -20.146 -21.041  0.00  0.00    +0.174 C 
ATOM     32  C   UNL     1      33.665 -21.773 -19.492  0.00  0.00    +0.057 C 
ATOM     33  C   UNL     1      35.017 -21.646 -19.731  0.00  0.00    +0.166 C 
ATOM     34  C   UNL     1      33.164 -22.755 -18.491  0.00  0.00    +0.049 C 
ENDBRANCH  26  30
ENDBRANCH  23  25
ENDBRANCH  22  23
ENDBRANCH   2  22
TORSDOF 7
ENDMDL
MODEL 9
REMARK VINA RESULT:     -10.3      6.559     10.267
REMARK  Name = 3478
REMARK  7 active torsions:
REMARK  status: ('A' for Active; 'I' for Inactive)
REMARK    1  A    between atoms: C_1  and  S_7
REMARK    2  A    between atoms: C_2  and  C_22
REMARK    3  A    between atoms: S_7  and  N_12
REMARK    4  A    between atoms: N_11  and  C_16
REMARK    5  A    between atoms: C_22  and  C_23
REMARK    6  A    between atoms: C_23  and  N_25
REMARK    7  A    between atoms: C_26  and  C_30
REMARK                            x       y       z     vdW  Elec       q    Type
REMARK                         _______ _______ _______ _____ _____    ______ ____
ROOT
ATOM      1  C   UNL     1      32.717 -12.830 -23.085  0.00  0.00    +0.125 C 
ATOM      2  C   UNL     1      31.437 -11.364 -21.086  0.00  0.00    -0.020 C 
ATOM      3  C   UNL     1      32.408 -13.433 -21.866  0.00  0.00    +0.020 C 
ATOM      4  C   UNL     1      32.386 -11.493 -23.305  0.00  0.00    +0.020 C 
ATOM      5  C   UNL     1      31.768 -12.701 -20.866  0.00  0.00    -0.003 C 
ATOM      6  C   UNL     1      31.746 -10.760 -22.304  0.00  0.00    -0.003 C 
ENDROOT
BRANCH   1   7
ATOM      7  S   UNL     1      33.527 -13.759 -24.352  0.00  0.00    +0.077 S 
ATOM      8  O   UNL     1      34.611 -12.953 -24.879  0.00  0.00    -0.150 OA
ATOM      9  O   UNL     1      32.490 -14.262 -25.231  0.00  0.00    -0.150 OA
BRANCH   7  12
ATOM     10  O   UNL     1      34.732 -16.494 -25.197  0.00  0.00    -0.251 OA
ATOM     11  N   UNL     1      35.151 -17.137 -23.016  0.00  0.00    -0.289 N 
ATOM     12  N   UNL     1      34.174 -15.054 -23.444  0.00  0.00    -0.169 N 
ATOM     13  C   UNL     1      34.697 -16.270 -23.990  0.00  0.00    +0.319 C 
ATOM     14  H   UNL     1      35.079 -16.864 -22.073  0.00  0.00    +0.151 HD
ATOM     15  H   UNL     1      34.188 -14.957 -22.464  0.00  0.00    +0.178 HD
BRANCH  11  16
ATOM     16  C   UNL     1      35.728 -18.428 -23.319  0.00  0.00    +0.073 C 
ATOM     17  C   UNL     1      34.667 -19.532 -23.268  0.00  0.00    +0.020 C 
ATOM     18  C   UNL     1      36.901 -18.740 -22.383  0.00  0.00    +0.020 C 
ATOM     19  C   UNL     1      34.214 -19.842 -21.841  0.00  0.00    +0.002 C 
ATOM     20  C   UNL     1      36.445 -19.051 -20.958  0.00  0.00    +0.002 C 
ATOM     21  C   UNL     1      35.398 -20.161 -20.932  0.00  0.00    +0.000 C 
ENDBRANCH  11  16
ENDBRANCH   7  12
ENDBRANCH   1   7
BRANCH   2  22
ATOM     22  C   UNL     1      30.753 -10.580 -20.018  0.00  0.00    +0.048 C 
BRANCH  22  23
ATOM     23  C   UNL     1      31.428  -9.235 -19.718  0.00  0.00    +0.094 C 
BRANCH  23  25
ATOM     24  O   UNL     1      33.211  -6.986 -19.798  0.00  0.00    -0.269 OA
ATOM     25  N   UNL     1      32.010  -8.642 -20.892  0.00  0.00    -0.300 N 
ATOM     26  C   UNL     1      32.866  -7.549 -20.834  0.00  0.00    +0.261 C 
ATOM     27  H   UNL     1      31.792  -9.026 -21.772  0.00  0.00    +0.150 HD
BRANCH  26  30
ATOM     28  N   UNL     1      34.403  -7.693 -22.687  0.00  0.00    -0.262 NA
ATOM     29  N   UNL     1      33.219  -5.475 -23.932  0.00  0.00    -0.270 NA
ATOM     30  C   UNL     1      33.361  -7.037 -22.138  0.00  0.00    +0.132 C 
ATOM     31  C   UNL     1      32.779  -5.948 -22.749  0.00  0.00    +0.174 C 
ATOM     32  C   UNL     1      34.261  -6.129 -24.482  0.00  0.00    +0.057 C 
ATOM     33  C   UNL     1      34.842  -7.219 -23.870  0.00  0.00    +0.166 C 
ATOM     34  C   UNL     1      34.772  -5.634 -25.790  0.00  0.00    +0.049 C 
ENDBRANCH  26  30
ENDBRANCH  23  25
ENDBRANCH  22  23
ENDBRANCH   2  22
TORSDOF 7
ENDMDL
