MODEL 1
REMARK VINA RESULT:     -12.8      0.000      0.000
REMARK  Name = 23656870
REMARK  4 active torsions:
REMARK  status: ('A' for Active; 'I' for Inactive)
REMARK    1  A    between atoms: N_2  and  C_25
REMARK    2  A    between atoms: N_3  and  C_14
REMARK    3  A    between atoms: C_10  and  C_32
REMARK    4  A    between atoms: C_16  and  N_21
REMARK                            x       y       z     vdW  Elec       q    Type
REMARK                         _______ _______ _______ _____ _____    ______ ____
ROOT
ATOM      1  N   UNL     1      31.675 -23.517 -15.416  0.00  0.00    -0.123 N 
ATOM      2  N   UNL     1      33.922 -24.024 -14.899  0.00  0.00    -0.274 N 
ATOM      3  N   UNL     1      32.621 -22.327 -19.119  0.00  0.00    -0.238 N 
ATOM      4  N   UNL     1      33.276 -23.175 -17.015  0.00  0.00    -0.295 NA
ATOM      5  N   UNL     1      30.992 -22.674 -17.504  0.00  0.00    -0.314 NA
ATOM      6  N   UNL     1      31.244 -23.892 -14.198  0.00  0.00    -0.170 NA
ATOM      7  C   UNL     1      33.004 -23.568 -15.805  0.00  0.00    +0.279 C 
ATOM      8  C   UNL     1      30.687 -23.080 -16.250  0.00  0.00    +0.219 C 
ATOM      9  C   UNL     1      32.258 -22.729 -17.856  0.00  0.00    +0.207 C 
ATOM     10  C   UNL     1      29.523 -23.175 -15.523  0.00  0.00    +0.203 C 
ATOM     11  C   UNL     1      29.926 -23.679 -14.270  0.00  0.00    +0.116 C 
ATOM     12  H   UNL     1      33.566 -24.287 -14.020  0.00  0.00    +0.156 HD
ATOM     13  H   UNL     1      31.944 -22.453 -19.823  0.00  0.00    +0.166 HD
ENDROOT
BRANCH   3  14
ATOM     14  C   UNL     1      33.828 -21.764 -19.528  0.00  0.00    +0.060 C 
ATOM     15  C   UNL     1      33.849 -20.839 -20.572  0.00  0.00    +0.030 C 
ATOM     16  C   UNL     1      35.057 -20.275 -20.980  0.00  0.00    +0.052 C 
ATOM     17  C   UNL     1      35.016 -22.125 -18.892  0.00  0.00    +0.015 C 
ATOM     18  C   UNL     1      36.245 -20.636 -20.345  0.00  0.00    +0.015 C 
ATOM     19  C   UNL     1      36.225 -21.561 -19.300  0.00  0.00    +0.003 C 
BRANCH  16  21
ATOM     20  O   UNL     1      35.154 -17.266 -20.927  0.00  0.00    -0.275 OA
ATOM     21  N   UNL     1      35.078 -19.351 -22.025  0.00  0.00    -0.284 N 
ATOM     22  C   UNL     1      35.122 -17.952 -21.943  0.00  0.00    +0.227 C 
ATOM     23  C   UNL     1      35.133 -17.312 -23.309  0.00  0.00    +0.095 C 
ATOM     24  H   UNL     1      35.060 -19.728 -22.935  0.00  0.00    +0.155 HD
ENDBRANCH  16  21
ENDBRANCH   3  14
BRANCH   2  25
ATOM     25  C   UNL     1      35.303 -24.164 -15.062  0.00  0.00    +0.051 C 
ATOM     26  C   UNL     1      36.072 -23.075 -15.472  0.00  0.00    +0.015 C 
ATOM     27  C   UNL     1      35.914 -25.394 -14.815  0.00  0.00    +0.015 C 
ATOM     28  C   UNL     1      37.450 -23.214 -15.635  0.00  0.00    +0.001 C 
ATOM     29  C   UNL     1      37.292 -25.533 -14.977  0.00  0.00    +0.001 C 
ATOM     30  C   UNL     1      38.060 -24.444 -15.388  0.00  0.00    +0.000 C 
ENDBRANCH   2  25
BRANCH  10  32
ATOM     31  N   UNL     1      27.148 -22.553 -16.320  0.00  0.00    -0.195 NA
ATOM     32  C   UNL     1      28.216 -22.833 -15.961  0.00  0.00    +0.087 C 
ENDBRANCH  10  32
TORSDOF 4
ENDMDL
MODEL 2
REMARK VINA RESULT:     -11.7      2.085      5.598
REMARK  Name = 23656870
REMARK  4 active torsions:
REMARK  status: ('A' for Active; 'I' for Inactive)
REMARK    1  A    between atoms: N_2  and  C_25
REMARK    2  A    between atoms: N_3  and  C_14
REMARK    3  A    between atoms: C_10  and  C_32
REMARK    4  A    between atoms: C_16  and  N_21
REMARK                            x       y       z     vdW  Elec       q    Type
REMARK                         _______ _______ _______ _____ _____    ______ ____
ROOT
ATOM      1  N   UNL     1      36.160 -24.656 -14.593  0.00  0.00    -0.123 N 
ATOM      2  N   UNL     1      33.817 -24.377 -14.532  0.00  0.00    -0.274 N 
ATOM      3  N   UNL     1      36.564 -22.029 -17.586  0.00  0.00    -0.238 N 
ATOM      4  N   UNL     1      35.188 -23.197 -16.063  0.00  0.00    -0.295 NA
ATOM      5  N   UNL     1      37.557 -23.504 -16.096  0.00  0.00    -0.314 NA
ATOM      6  N   UNL     1      36.143 -25.553 -13.589  0.00  0.00    -0.170 NA
ATOM      7  C   UNL     1      35.021 -24.046 -15.091  0.00  0.00    +0.279 C 
ATOM      8  C   UNL     1      37.405 -24.389 -15.085  0.00  0.00    +0.219 C 
ATOM      9  C   UNL     1      36.464 -22.936 -16.557  0.00  0.00    +0.207 C 
ATOM     10  C   UNL     1      38.267 -25.171 -14.349  0.00  0.00    +0.203 C 
ATOM     11  C   UNL     1      37.435 -25.864 -13.446  0.00  0.00    +0.116 C 
ATOM     12  H   UNL     1      33.848 -25.036 -13.801  0.00  0.00    +0.156 HD
ATOM     13  H   UNL     1      37.401 -21.514 -17.627  0.00  0.00    +0.166 HD
ENDROOT
BRANCH   3  14
ATOM     14  C   UNL     1      35.626 -21.749 -18.577  0.00  0.00    +0.060 C 
ATOM     15  C   UNL     1      35.977 -20.950 -19.665  0.00  0.00    +0.030 C 
ATOM     16  C   UNL     1      35.039 -20.670 -20.658  0.00  0.00    +0.052 C 
ATOM     17  C   UNL     1      34.334 -22.269 -18.482  0.00  0.00    +0.015 C 
ATOM     18  C   UNL     1      33.748 -21.189 -20.563  0.00  0.00    +0.015 C 
ATOM     19  C   UNL     1      33.395 -21.989 -19.476  0.00  0.00    +0.003 C 
BRANCH  16  21
ATOM     20  O   UNL     1      35.138 -17.673 -20.926  0.00  0.00    -0.275 OA
ATOM     21  N   UNL     1      35.390 -19.869 -21.745  0.00  0.00    -0.284 N 
ATOM     22  C   UNL     1      35.417 -18.470 -21.816  0.00  0.00    +0.227 C 
ATOM     23  C   UNL     1      35.855 -17.987 -23.176  0.00  0.00    +0.095 C 
ATOM     24  H   UNL     1      35.652 -20.347 -22.566  0.00  0.00    +0.155 HD
ENDBRANCH  16  21
ENDBRANCH   3  14
BRANCH   2  25
ATOM     25  C   UNL     1      32.547 -23.896 -14.864  0.00  0.00    +0.051 C 
ATOM     26  C   UNL     1      32.218 -23.659 -16.197  0.00  0.00    +0.015 C 
ATOM     27  C   UNL     1      31.608 -23.654 -13.860  0.00  0.00    +0.015 C 
ATOM     28  C   UNL     1      30.951 -23.179 -16.530  0.00  0.00    +0.001 C 
ATOM     29  C   UNL     1      30.341 -23.175 -14.192  0.00  0.00    +0.001 C 
ATOM     30  C   UNL     1      30.012 -22.937 -15.526  0.00  0.00    +0.000 C 
ENDBRANCH   2  25
BRANCH  10  32
ATOM     31  N   UNL     1      40.832 -25.305 -14.603  0.00  0.00    -0.195 NA
ATOM     32  C   UNL     1      39.678 -25.245 -14.489  0.00  0.00    +0.087 C 
ENDBRANCH  10  32
TORSDOF 4
ENDMDL
MODEL 3
REMARK VINA RESULT:     -10.6      1.663      2.180
REMARK  Name = 23656870
REMARK  4 active torsions:
REMARK  status: ('A' for Active; 'I' for Inactive)
REMARK    1  A    between atoms: N_2  and  C_25
REMARK    2  A    between atoms: N_3  and  C_14
REMARK    3  A    between atoms: C_10  and  C_32
REMARK    4  A    between atoms: C_16  and  N_21
REMARK                            x       y       z     vdW  Elec       q    Type
REMARK                         _______ _______ _______ _____ _____    ______ ____
ROOT
ATOM      1  N   UNL     1      31.817 -24.512 -14.385  0.00  0.00    -0.123 N 
ATOM      2  N   UNL     1      33.902 -24.656 -13.288  0.00  0.00    -0.274 N 
ATOM      3  N   UNL     1      33.517 -23.370 -17.824  0.00  0.00    -0.238 N 
ATOM      4  N   UNL     1      33.716 -24.013 -15.561  0.00  0.00    -0.295 NA
ATOM      5  N   UNL     1      31.589 -23.878 -16.640  0.00  0.00    -0.314 NA
ATOM      6  N   UNL     1      31.140 -24.889 -13.285  0.00  0.00    -0.170 NA
ATOM      7  C   UNL     1      33.196 -24.385 -14.428  0.00  0.00    +0.279 C 
ATOM      8  C   UNL     1      31.028 -24.264 -15.471  0.00  0.00    +0.219 C 
ATOM      9  C   UNL     1      32.899 -23.762 -16.661  0.00  0.00    +0.207 C 
ATOM     10  C   UNL     1      29.738 -24.496 -15.050  0.00  0.00    +0.203 C 
ATOM     11  C   UNL     1      29.869 -24.876 -13.698  0.00  0.00    +0.116 C 
ATOM     12  H   UNL     1      33.369 -24.928 -12.506  0.00  0.00    +0.156 HD
ATOM     13  H   UNL     1      33.066 -23.627 -18.661  0.00  0.00    +0.166 HD
ENDROOT
BRANCH   3  14
ATOM     14  C   UNL     1      34.705 -22.655 -17.967  0.00  0.00    +0.060 C 
ATOM     15  C   UNL     1      34.914 -21.868 -19.099  0.00  0.00    +0.030 C 
ATOM     16  C   UNL     1      36.102 -21.152 -19.241  0.00  0.00    +0.052 C 
ATOM     17  C   UNL     1      35.684 -22.726 -16.976  0.00  0.00    +0.015 C 
ATOM     18  C   UNL     1      37.081 -21.222 -18.251  0.00  0.00    +0.015 C 
ATOM     19  C   UNL     1      36.873 -22.009 -17.117  0.00  0.00    +0.003 C 
BRANCH  16  21
ATOM     20  O   UNL     1      34.138 -19.723 -21.021  0.00  0.00    -0.275 OA
ATOM     21  N   UNL     1      36.312 -20.366 -20.374  0.00  0.00    -0.284 N 
ATOM     22  C   UNL     1      35.356 -19.722 -21.171  0.00  0.00    +0.227 C 
ATOM     23  C   UNL     1      35.993 -18.967 -22.310  0.00  0.00    +0.095 C 
ATOM     24  H   UNL     1      37.251 -20.248 -20.649  0.00  0.00    +0.155 HD
ENDBRANCH  16  21
ENDBRANCH   3  14
BRANCH   2  25
ATOM     25  C   UNL     1      35.284 -24.599 -13.092  0.00  0.00    +0.051 C 
ATOM     26  C   UNL     1      36.048 -25.764 -13.160  0.00  0.00    +0.015 C 
ATOM     27  C   UNL     1      35.902 -23.376 -12.830  0.00  0.00    +0.015 C 
ATOM     28  C   UNL     1      37.428 -25.707 -12.965  0.00  0.00    +0.001 C 
ATOM     29  C   UNL     1      37.282 -23.318 -12.636  0.00  0.00    +0.001 C 
ATOM     30  C   UNL     1      38.045 -24.484 -12.703  0.00  0.00    +0.000 C 
ENDBRANCH   2  25
BRANCH  10  32
ATOM     31  N   UNL     1      27.587 -24.270 -16.458  0.00  0.00    -0.195 NA
ATOM     32  C   UNL     1      28.555 -24.372 -15.824  0.00  0.00    +0.087 C 
ENDBRANCH  10  32
TORSDOF 4
ENDMDL
MODEL 4
REMARK VINA RESULT:     -10.0      2.636      6.293
REMARK  Name = 23656870
REMARK  4 active torsions:
REMARK  status: ('A' for Active; 'I' for Inactive)
REMARK    1  A    between atoms: N_2  and  C_25
REMARK    2  A    between atoms: N_3  and  C_14
REMARK    3  A    between atoms: C_10  and  C_32
REMARK    4  A    between atoms: C_16  and  N_21
REMARK                            x       y       z     vdW  Elec       q    Type
REMARK                         _______ _______ _______ _____ _____    ______ ____
ROOT
ATOM      1  N   UNL     1      31.098 -23.380 -17.009  0.00  0.00    -0.123 N 
ATOM      2  N   UNL     1      32.226 -22.284 -18.769  0.00  0.00    -0.274 N 
ATOM      3  N   UNL     1      34.376 -23.424 -14.712  0.00  0.00    -0.238 N 
ATOM      4  N   UNL     1      33.308 -22.851 -16.739  0.00  0.00    -0.295 NA
ATOM      5  N   UNL     1      32.135 -23.961 -14.978  0.00  0.00    -0.314 NA
ATOM      6  N   UNL     1      29.939 -23.421 -17.692  0.00  0.00    -0.170 NA
ATOM      7  C   UNL     1      32.262 -22.821 -17.512  0.00  0.00    +0.279 C 
ATOM      8  C   UNL     1      31.035 -23.939 -15.765  0.00  0.00    +0.219 C 
ATOM      9  C   UNL     1      33.230 -23.426 -15.472  0.00  0.00    +0.207 C 
ATOM     10  C   UNL     1      29.738 -24.378 -15.624  0.00  0.00    +0.203 C 
ATOM     11  C   UNL     1      29.112 -24.033 -16.839  0.00  0.00    +0.116 C 
ATOM     12  H   UNL     1      31.359 -22.334 -19.235  0.00  0.00    +0.156 HD
ATOM     13  H   UNL     1      34.247 -23.387 -13.738  0.00  0.00    +0.166 HD
ENDROOT
BRANCH   3  14
ATOM     14  C   UNL     1      35.698 -23.467 -15.152  0.00  0.00    +0.060 C 
ATOM     15  C   UNL     1      36.537 -24.503 -14.739  0.00  0.00    +0.030 C 
ATOM     16  C   UNL     1      37.859 -24.546 -15.180  0.00  0.00    +0.052 C 
ATOM     17  C   UNL     1      36.181 -22.476 -16.006  0.00  0.00    +0.015 C 
ATOM     18  C   UNL     1      38.343 -23.555 -16.033  0.00  0.00    +0.015 C 
ATOM     19  C   UNL     1      37.504 -22.520 -16.447  0.00  0.00    +0.003 C 
BRANCH  16  21
ATOM     20  O   UNL     1      40.852 -24.624 -14.861  0.00  0.00    -0.275 OA
ATOM     21  N   UNL     1      38.699 -25.580 -14.766  0.00  0.00    -0.284 N 
ATOM     22  C   UNL     1      40.094 -25.562 -14.636  0.00  0.00    +0.227 C 
ATOM     23  C   UNL     1      40.629 -26.889 -14.157  0.00  0.00    +0.095 C 
ATOM     24  H   UNL     1      38.256 -26.430 -14.535  0.00  0.00    +0.155 HD
ENDBRANCH  16  21
ENDBRANCH   3  14
BRANCH   2  25
ATOM     25  C   UNL     1      33.262 -21.671 -19.478  0.00  0.00    +0.051 C 
ATOM     26  C   UNL     1      34.577 -22.103 -19.305  0.00  0.00    +0.015 C 
ATOM     27  C   UNL     1      32.983 -20.626 -20.360  0.00  0.00    +0.015 C 
ATOM     28  C   UNL     1      35.612 -21.492 -20.013  0.00  0.00    +0.001 C 
ATOM     29  C   UNL     1      34.018 -20.015 -21.068  0.00  0.00    +0.001 C 
ATOM     30  C   UNL     1      35.332 -20.447 -20.894  0.00  0.00    +0.000 C 
ENDBRANCH   2  25
BRANCH  10  32
ATOM     31  N   UNL     1      28.724 -25.567 -13.570  0.00  0.00    -0.195 NA
ATOM     32  C   UNL     1      29.180 -25.032 -14.494  0.00  0.00    +0.087 C 
ENDBRANCH  10  32
TORSDOF 4
ENDMDL
