MODEL 1
REMARK VINA RESULT:     -11.2      0.000      0.000
REMARK  Name = 11998575
REMARK  7 active torsions:
REMARK  status: ('A' for Active; 'I' for Inactive)
REMARK    1  A    between atoms: C_6  and  C_18
REMARK    2  A    between atoms: C_14  and  O_22
REMARK    3  A    between atoms: C_15  and  O_16
REMARK    4  A    between atoms: C_18  and  O_20
REMARK    5  A    between atoms: O_22  and  C_23
REMARK    6  A    between atoms: C_23  and  C_24
REMARK    7  A    between atoms: C_29  and  O_30
REMARK                            x       y       z     vdW  Elec       q    Type
REMARK                         _______ _______ _______ _____ _____    ______ ____
ROOT
ATOM      1  O   UNL     1      37.205 -22.182 -17.631  0.00  0.00    -0.421 OA
ATOM      2  O   UNL     1      38.374 -22.913 -15.815  0.00  0.00    -0.244 OA
ATOM      3  C   UNL     1      34.805 -23.120 -16.466  0.00  0.00    +0.009 A 
ATOM      4  C   UNL     1      34.784 -22.468 -17.781  0.00  0.00    +0.038 A 
ATOM      5  C   UNL     1      36.028 -23.274 -15.791  0.00  0.00    +0.076 A 
ATOM      6  C   UNL     1      34.932 -24.365 -13.926  0.00  0.00    +0.004 C 
ATOM      7  C   UNL     1      35.989 -22.017 -18.326  0.00  0.00    +0.152 A 
ATOM      8  C   UNL     1      36.091 -23.891 -14.531  0.00  0.00    +0.004 C 
ATOM      9  C   UNL     1      33.649 -23.610 -15.828  0.00  0.00    +0.000 C 
ATOM     10  C   UNL     1      33.629 -22.257 -18.551  0.00  0.00    +0.043 C 
ATOM     11  C   UNL     1      33.712 -24.225 -14.574  0.00  0.00    -0.002 C 
ATOM     12  C   UNL     1      37.298 -22.789 -16.385  0.00  0.00    +0.346 A 
ATOM     13  C   UNL     1      36.072 -21.386 -19.570  0.00  0.00    +0.078 C 
ATOM     14  C   UNL     1      34.912 -21.192 -20.310  0.00  0.00    +0.176 C 
ATOM     15  C   UNL     1      33.692 -21.626 -19.802  0.00  0.00    +0.173 C 
ENDROOT
BRANCH  15  16
ATOM     16  O   UNL     1      32.544 -21.444 -20.515  0.00  0.00    -0.468 OA
ATOM     17  C   UNL     1      32.137 -20.098 -20.752  0.00  0.00    +0.253 C 
ENDBRANCH  15  16
BRANCH   6  18
ATOM     18  C   UNL     1      34.999 -25.022 -12.590  0.00  0.00    +0.133 C 
ATOM     19  C   UNL     1      36.395 -25.564 -12.265  0.00  0.00    +0.037 C 
BRANCH  18  20
ATOM     20  O   UNL     1      34.624 -24.092 -11.566  0.00  0.00    -0.380 OA
ATOM     21  H   UNL     1      34.109 -24.552 -10.885  0.00  0.00    +0.211 HD
ENDBRANCH  18  20
ENDBRANCH   6  18
BRANCH  14  22
ATOM     22  O   UNL     1      34.982 -20.580 -21.524  0.00  0.00    -0.467 OA
BRANCH  22  23
ATOM     23  C   UNL     1      35.734 -19.369 -21.597  0.00  0.00    +0.232 C 
BRANCH  23  24
ATOM     24  C   UNL     1      35.187 -18.520 -22.708  0.00  0.00    +0.021 C 
ATOM     25  C   UNL     1      35.391 -17.146 -22.690  0.00  0.00    +0.002 C 
ATOM     26  C   UNL     1      34.477 -19.118 -23.745  0.00  0.00    +0.002 C 
ATOM     27  C   UNL     1      34.882 -16.358 -23.723  0.00  0.00    +0.037 C 
ATOM     28  C   UNL     1      33.968 -18.330 -24.778  0.00  0.00    +0.037 C 
ATOM     29  C   UNL     1      34.171 -16.950 -24.766  0.00  0.00    +0.139 C 
BRANCH  29  30
ATOM     30  O   UNL     1      33.674 -16.181 -25.773  0.00  0.00    -0.471 OA
ATOM     31  C   UNL     1      33.497 -14.792 -25.503  0.00  0.00    +0.252 C 
ENDBRANCH  29  30
ENDBRANCH  23  24
ENDBRANCH  22  23
ENDBRANCH  14  22
TORSDOF 7
ENDMDL
MODEL 2
REMARK VINA RESULT:     -11.0      2.885      9.037
REMARK  Name = 11998575
REMARK  7 active torsions:
REMARK  status: ('A' for Active; 'I' for Inactive)
REMARK    1  A    between atoms: C_6  and  C_18
REMARK    2  A    between atoms: C_14  and  O_22
REMARK    3  A    between atoms: C_15  and  O_16
REMARK    4  A    between atoms: C_18  and  O_20
REMARK    5  A    between atoms: O_22  and  C_23
REMARK    6  A    between atoms: C_23  and  C_24
REMARK    7  A    between atoms: C_29  and  O_30
REMARK                            x       y       z     vdW  Elec       q    Type
REMARK                         _______ _______ _______ _____ _____    ______ ____
ROOT
ATOM      1  O   UNL     1      32.487 -22.134 -19.038  0.00  0.00    -0.421 OA
ATOM      2  O   UNL     1      31.917 -20.906 -20.873  0.00  0.00    -0.244 OA
ATOM      3  C   UNL     1      35.186 -21.350 -19.349  0.00  0.00    +0.009 A 
ATOM      4  C   UNL     1      34.795 -22.239 -18.248  0.00  0.00    +0.038 A 
ATOM      5  C   UNL     1      34.206 -20.893 -20.247  0.00  0.00    +0.076 A 
ATOM      6  C   UNL     1      35.855 -19.634 -21.500  0.00  0.00    +0.004 C 
ATOM      7  C   UNL     1      33.453 -22.605 -18.125  0.00  0.00    +0.152 A 
ATOM      8  C   UNL     1      34.539 -20.041 -21.314  0.00  0.00    +0.004 C 
ATOM      9  C   UNL     1      36.510 -20.920 -19.563  0.00  0.00    +0.000 C 
ATOM     10  C   UNL     1      35.679 -22.760 -17.289  0.00  0.00    +0.043 C 
ATOM     11  C   UNL     1      36.841 -20.073 -20.626  0.00  0.00    -0.002 C 
ATOM     12  C   UNL     1      32.786 -21.293 -20.102  0.00  0.00    +0.346 A 
ATOM     13  C   UNL     1      32.984 -23.446 -17.112  0.00  0.00    +0.078 C 
ATOM     14  C   UNL     1      33.882 -23.948 -16.178  0.00  0.00    +0.176 C 
ATOM     15  C   UNL     1      35.229 -23.606 -16.266  0.00  0.00    +0.173 C 
ENDROOT
BRANCH  15  16
ATOM     16  O   UNL     1      36.123 -24.090 -15.359  0.00  0.00    -0.468 OA
ATOM     17  C   UNL     1      36.484 -23.226 -14.283  0.00  0.00    +0.253 C 
ENDBRANCH  15  16
BRANCH   6  18
ATOM     18  C   UNL     1      36.208 -18.731 -22.633  0.00  0.00    +0.133 C 
ATOM     19  C   UNL     1      35.408 -17.424 -22.620  0.00  0.00    +0.037 C 
BRANCH  18  20
ATOM     20  O   UNL     1      37.603 -18.410 -22.588  0.00  0.00    -0.380 OA
ATOM     21  H   UNL     1      37.779 -17.841 -21.822  0.00  0.00    +0.211 HD
ENDBRANCH  18  20
ENDBRANCH   6  18
BRANCH  14  22
ATOM     22  O   UNL     1      33.436 -24.769 -15.189  0.00  0.00    -0.467 OA
BRANCH  22  23
ATOM     23  C   UNL     1      32.621 -24.181 -14.175  0.00  0.00    +0.232 C 
BRANCH  23  24
ATOM     24  C   UNL     1      31.214 -24.068 -14.685  0.00  0.00    +0.021 C 
ATOM     25  C   UNL     1      30.483 -25.219 -14.950  0.00  0.00    +0.002 C 
ATOM     26  C   UNL     1      30.655 -22.810 -14.888  0.00  0.00    +0.002 C 
ATOM     27  C   UNL     1      29.174 -25.114 -15.424  0.00  0.00    +0.037 C 
ATOM     28  C   UNL     1      29.347 -22.704 -15.362  0.00  0.00    +0.037 C 
ATOM     29  C   UNL     1      28.607 -23.856 -15.630  0.00  0.00    +0.139 C 
BRANCH  29  30
ATOM     30  O   UNL     1      27.331 -23.753 -16.092  0.00  0.00    -0.471 OA
ATOM     31  C   UNL     1      26.760 -22.447 -16.137  0.00  0.00    +0.252 C 
ENDBRANCH  29  30
ENDBRANCH  23  24
ENDBRANCH  22  23
ENDBRANCH  14  22
TORSDOF 7
ENDMDL
MODEL 3
REMARK VINA RESULT:     -10.4      1.964      9.671
REMARK  Name = 11998575
REMARK  7 active torsions:
REMARK  status: ('A' for Active; 'I' for Inactive)
REMARK    1  A    between atoms: C_6  and  C_18
REMARK    2  A    between atoms: C_14  and  O_22
REMARK    3  A    between atoms: C_15  and  O_16
REMARK    4  A    between atoms: C_18  and  O_20
REMARK    5  A    between atoms: O_22  and  C_23
REMARK    6  A    between atoms: C_23  and  C_24
REMARK    7  A    between atoms: C_29  and  O_30
REMARK                            x       y       z     vdW  Elec       q    Type
REMARK                         _______ _______ _______ _____ _____    ______ ____
ROOT
ATOM      1  O   UNL     1      36.916 -20.272 -19.835  0.00  0.00    -0.421 OA
ATOM      2  O   UNL     1      38.078 -18.746 -21.068  0.00  0.00    -0.244 OA
ATOM      3  C   UNL     1      34.644 -19.865 -21.469  0.00  0.00    +0.009 A 
ATOM      4  C   UNL     1      34.593 -20.819 -20.355  0.00  0.00    +0.038 A 
ATOM      5  C   UNL     1      35.832 -19.155 -21.716  0.00  0.00    +0.076 A 
ATOM      6  C   UNL     1      34.826 -18.006 -23.597  0.00  0.00    +0.004 C 
ATOM      7  C   UNL     1      35.733 -20.995 -19.569  0.00  0.00    +0.152 A 
ATOM      8  C   UNL     1      35.921 -18.234 -22.772  0.00  0.00    +0.004 C 
ATOM      9  C   UNL     1      33.551 -19.613 -22.322  0.00  0.00    +0.000 C 
ATOM     10  C   UNL     1      33.467 -21.585 -20.008  0.00  0.00    +0.043 C 
ATOM     11  C   UNL     1      33.641 -18.694 -23.373  0.00  0.00    -0.002 C 
ATOM     12  C   UNL     1      37.033 -19.354 -20.870  0.00  0.00    +0.346 A 
ATOM     13  C   UNL     1      35.784 -21.878 -18.487  0.00  0.00    +0.078 C 
ATOM     14  C   UNL     1      34.654 -22.622 -18.168  0.00  0.00    +0.176 C 
ATOM     15  C   UNL     1      33.497 -22.476 -18.927  0.00  0.00    +0.173 C 
ENDROOT
BRANCH  15  16
ATOM     16  O   UNL     1      32.380 -23.198 -18.627  0.00  0.00    -0.468 OA
ATOM     17  C   UNL     1      31.671 -22.830 -17.446  0.00  0.00    +0.253 C 
ENDBRANCH  15  16
BRANCH   6  18
ATOM     18  C   UNL     1      34.921 -17.026 -24.717  0.00  0.00    +0.133 C 
ATOM     19  C   UNL     1      33.550 -16.535 -25.193  0.00  0.00    +0.037 C 
BRANCH  18  20
ATOM     20  O   UNL     1      35.695 -15.890 -24.311  0.00  0.00    -0.380 OA
ATOM     21  H   UNL     1      35.553 -15.163 -24.937  0.00  0.00    +0.211 HD
ENDBRANCH  18  20
ENDBRANCH   6  18
BRANCH  14  22
ATOM     22  O   UNL     1      34.691 -23.484 -17.115  0.00  0.00    -0.467 OA
BRANCH  22  23
ATOM     23  C   UNL     1      35.115 -22.957 -15.858  0.00  0.00    +0.232 C 
BRANCH  23  24
ATOM     24  C   UNL     1      36.200 -23.832 -15.301  0.00  0.00    +0.021 C 
ATOM     25  C   UNL     1      37.529 -23.551 -15.593  0.00  0.00    +0.002 C 
ATOM     26  C   UNL     1      35.864 -24.918 -14.499  0.00  0.00    +0.002 C 
ATOM     27  C   UNL     1      38.538 -24.366 -15.075  0.00  0.00    +0.037 C 
ATOM     28  C   UNL     1      36.871 -25.732 -13.982  0.00  0.00    +0.037 C 
ATOM     29  C   UNL     1      38.208 -25.456 -14.270  0.00  0.00    +0.139 C 
BRANCH  29  30
ATOM     30  O   UNL     1      39.191 -26.250 -13.765  0.00  0.00    -0.471 OA
ATOM     31  C   UNL     1      40.381 -26.383 -14.540  0.00  0.00    +0.252 C 
ENDBRANCH  29  30
ENDBRANCH  23  24
ENDBRANCH  22  23
ENDBRANCH  14  22
TORSDOF 7
ENDMDL
MODEL 4
REMARK VINA RESULT:     -10.4      1.725      2.401
REMARK  Name = 11998575
REMARK  7 active torsions:
REMARK  status: ('A' for Active; 'I' for Inactive)
REMARK    1  A    between atoms: C_6  and  C_18
REMARK    2  A    between atoms: C_14  and  O_22
REMARK    3  A    between atoms: C_15  and  O_16
REMARK    4  A    between atoms: C_18  and  O_20
REMARK    5  A    between atoms: O_22  and  C_23
REMARK    6  A    between atoms: C_23  and  C_24
REMARK    7  A    between atoms: C_29  and  O_30
REMARK                            x       y       z     vdW  Elec       q    Type
REMARK                         _______ _______ _______ _____ _____    ______ ____
ROOT
ATOM      1  O   UNL     1      35.998 -22.849 -17.143  0.00  0.00    -0.421 OA
ATOM      2  O   UNL     1      36.055 -24.018 -15.186  0.00  0.00    -0.244 OA
ATOM      3  C   UNL     1      33.176 -23.023 -17.168  0.00  0.00    +0.009 A 
ATOM      4  C   UNL     1      33.884 -22.328 -18.250  0.00  0.00    +0.038 A 
ATOM      5  C   UNL     1      33.913 -23.601 -16.120  0.00  0.00    +0.076 A 
ATOM      6  C   UNL     1      31.887 -24.381 -15.044  0.00  0.00    +0.004 C 
ATOM      7  C   UNL     1      35.278 -22.261 -18.205  0.00  0.00    +0.152 A 
ATOM      8  C   UNL     1      33.273 -24.274 -15.067  0.00  0.00    +0.004 C 
ATOM      9  C   UNL     1      31.773 -23.147 -17.117  0.00  0.00    +0.000 C 
ATOM     10  C   UNL     1      33.261 -21.712 -19.348  0.00  0.00    +0.043 C 
ATOM     11  C   UNL     1      31.137 -23.819 -16.068  0.00  0.00    -0.002 C 
ATOM     12  C   UNL     1      35.393 -23.521 -16.089  0.00  0.00    +0.346 A 
ATOM     13  C   UNL     1      36.042 -21.623 -19.186  0.00  0.00    +0.078 C 
ATOM     14  C   UNL     1      35.397 -21.024 -20.261  0.00  0.00    +0.176 C 
ATOM     15  C   UNL     1      34.009 -21.068 -20.343  0.00  0.00    +0.173 C 
ENDROOT
BRANCH  15  16
ATOM     16  O   UNL     1      33.361 -20.486 -21.391  0.00  0.00    -0.468 OA
ATOM     17  C   UNL     1      32.009 -20.091 -21.177  0.00  0.00    +0.253 C 
ENDBRANCH  15  16
BRANCH   6  18
ATOM     18  C   UNL     1      31.208 -25.097 -13.926  0.00  0.00    +0.133 C 
ATOM     19  C   UNL     1      30.428 -24.153 -13.005  0.00  0.00    +0.037 C 
BRANCH  18  20
ATOM     20  O   UNL     1      30.301 -26.075 -14.449  0.00  0.00    -0.380 OA
ATOM     21  H   UNL     1      30.375 -26.100 -15.415  0.00  0.00    +0.211 HD
ENDBRANCH  18  20
ENDBRANCH   6  18
BRANCH  14  22
ATOM     22  O   UNL     1      36.132 -20.402 -21.224  0.00  0.00    -0.467 OA
BRANCH  22  23
ATOM     23  C   UNL     1      36.295 -18.989 -21.104  0.00  0.00    +0.232 C 
BRANCH  23  24
ATOM     24  C   UNL     1      35.640 -18.319 -22.277  0.00  0.00    +0.021 C 
ATOM     25  C   UNL     1      35.307 -19.067 -23.399  0.00  0.00    +0.002 C 
ATOM     26  C   UNL     1      35.375 -16.954 -22.229  0.00  0.00    +0.002 C 
ATOM     27  C   UNL     1      34.699 -18.444 -24.490  0.00  0.00    +0.037 C 
ATOM     28  C   UNL     1      34.767 -16.331 -23.319  0.00  0.00    +0.037 C 
ATOM     29  C   UNL     1      34.430 -17.076 -24.449  0.00  0.00    +0.139 C 
BRANCH  29  30
ATOM     30  O   UNL     1      33.836 -16.468 -25.513  0.00  0.00    -0.471 OA
ATOM     31  C   UNL     1      33.489 -15.093 -25.364  0.00  0.00    +0.252 C 
ENDBRANCH  29  30
ENDBRANCH  23  24
ENDBRANCH  22  23
ENDBRANCH  14  22
TORSDOF 7
ENDMDL
MODEL 5
REMARK VINA RESULT:     -10.3      2.170      9.399
REMARK  Name = 11998575
REMARK  7 active torsions:
REMARK  status: ('A' for Active; 'I' for Inactive)
REMARK    1  A    between atoms: C_6  and  C_18
REMARK    2  A    between atoms: C_14  and  O_22
REMARK    3  A    between atoms: C_15  and  O_16
REMARK    4  A    between atoms: C_18  and  O_20
REMARK    5  A    between atoms: O_22  and  C_23
REMARK    6  A    between atoms: C_23  and  C_24
REMARK    7  A    between atoms: C_29  and  O_30
REMARK                            x       y       z     vdW  Elec       q    Type
REMARK                         _______ _______ _______ _____ _____    ______ ____
ROOT
ATOM      1  O   UNL     1      35.948 -22.332 -18.231  0.00  0.00    -0.421 OA
ATOM      2  O   UNL     1      37.264 -21.242 -19.741  0.00  0.00    -0.244 OA
ATOM      3  C   UNL     1      33.637 -21.427 -19.587  0.00  0.00    +0.009 A 
ATOM      4  C   UNL     1      33.512 -22.270 -18.391  0.00  0.00    +0.038 A 
ATOM      5  C   UNL     1      34.916 -21.074 -20.051  0.00  0.00    +0.076 A 
ATOM      6  C   UNL     1      33.968 -19.806 -21.885  0.00  0.00    +0.004 C 
ATOM      7  C   UNL     1      34.674 -22.699 -17.747  0.00  0.00    +0.152 A 
ATOM      8  C   UNL     1      35.079 -20.270 -21.191  0.00  0.00    +0.004 C 
ATOM      9  C   UNL     1      32.530 -20.942 -20.311  0.00  0.00    +0.000 C 
ATOM     10  C   UNL     1      32.293 -22.688 -17.832  0.00  0.00    +0.043 C 
ATOM     11  C   UNL     1      32.694 -20.141 -21.445  0.00  0.00    -0.002 C 
ATOM     12  C   UNL     1      36.140 -21.538 -19.354  0.00  0.00    +0.346 A 
ATOM     13  C   UNL     1      34.658 -23.501 -16.603  0.00  0.00    +0.078 C 
ATOM     14  C   UNL     1      33.438 -23.898 -16.072  0.00  0.00    +0.176 C 
ATOM     15  C   UNL     1      32.256 -23.492 -16.685  0.00  0.00    +0.173 C 
ENDROOT
BRANCH  15  16
ATOM     16  O   UNL     1      31.050 -23.873 -16.177  0.00  0.00    -0.468 OA
ATOM     17  C   UNL     1      29.916 -23.092 -16.547  0.00  0.00    +0.253 C 
ENDBRANCH  15  16
BRANCH   6  18
ATOM     18  C   UNL     1      34.141 -18.951 -23.094  0.00  0.00    +0.133 C 
ATOM     19  C   UNL     1      35.079 -17.764 -22.851  0.00  0.00    +0.037 C 
BRANCH  18  20
ATOM     20  O   UNL     1      34.666 -19.731 -24.175  0.00  0.00    -0.380 OA
ATOM     21  H   UNL     1      34.936 -19.142 -24.897  0.00  0.00    +0.211 HD
ENDBRANCH  18  20
ENDBRANCH   6  18
BRANCH  14  22
ATOM     22  O   UNL     1      33.411 -24.679 -14.957  0.00  0.00    -0.467 OA
BRANCH  22  23
ATOM     23  C   UNL     1      34.065 -24.173 -13.795  0.00  0.00    +0.232 C 
BRANCH  23  24
ATOM     24  C   UNL     1      35.467 -24.708 -13.751  0.00  0.00    +0.021 C 
ATOM     25  C   UNL     1      35.762 -25.918 -14.368  0.00  0.00    +0.002 C 
ATOM     26  C   UNL     1      36.458 -23.988 -13.092  0.00  0.00    +0.002 C 
ATOM     27  C   UNL     1      37.066 -26.415 -14.327  0.00  0.00    +0.037 C 
ATOM     28  C   UNL     1      37.761 -24.485 -13.051  0.00  0.00    +0.037 C 
ATOM     29  C   UNL     1      38.064 -25.698 -13.668  0.00  0.00    +0.139 C 
BRANCH  29  30
ATOM     30  O   UNL     1      39.335 -26.183 -13.629  0.00  0.00    -0.471 OA
ATOM     31  C   UNL     1      40.145 -25.980 -14.786  0.00  0.00    +0.252 C 
ENDBRANCH  29  30
ENDBRANCH  23  24
ENDBRANCH  22  23
ENDBRANCH  14  22
TORSDOF 7
ENDMDL
MODEL 6
REMARK VINA RESULT:     -10.3      1.812      3.900
REMARK  Name = 11998575
REMARK  7 active torsions:
REMARK  status: ('A' for Active; 'I' for Inactive)
REMARK    1  A    between atoms: C_6  and  C_18
REMARK    2  A    between atoms: C_14  and  O_22
REMARK    3  A    between atoms: C_15  and  O_16
REMARK    4  A    between atoms: C_18  and  O_20
REMARK    5  A    between atoms: O_22  and  C_23
REMARK    6  A    between atoms: C_23  and  C_24
REMARK    7  A    between atoms: C_29  and  O_30
REMARK                            x       y       z     vdW  Elec       q    Type
REMARK                         _______ _______ _______ _____ _____    ______ ____
ROOT
ATOM      1  O   UNL     1      32.720 -21.564 -19.858  0.00  0.00    -0.421 OA
ATOM      2  O   UNL     1      32.019 -22.932 -18.173  0.00  0.00    -0.244 OA
ATOM      3  C   UNL     1      35.352 -21.638 -18.824  0.00  0.00    +0.009 A 
ATOM      4  C   UNL     1      35.052 -20.857 -20.032  0.00  0.00    +0.038 A 
ATOM      5  C   UNL     1      34.319 -22.347 -18.187  0.00  0.00    +0.076 A 
ATOM      6  C   UNL     1      35.845 -23.166 -16.493  0.00  0.00    +0.004 C 
ATOM      7  C   UNL     1      33.741 -20.844 -20.514  0.00  0.00    +0.152 A 
ATOM      8  C   UNL     1      34.565 -23.105 -17.031  0.00  0.00    +0.004 C 
ATOM      9  C   UNL     1      36.638 -21.719 -18.256  0.00  0.00    +0.000 C 
ATOM     10  C   UNL     1      35.995 -20.109 -20.755  0.00  0.00    +0.043 C 
ATOM     11  C   UNL     1      36.881 -22.473 -17.104  0.00  0.00    -0.002 C 
ATOM     12  C   UNL     1      32.933 -22.321 -18.713  0.00  0.00    +0.346 A 
ATOM     13  C   UNL     1      33.357 -20.132 -21.653  0.00  0.00    +0.078 C 
ATOM     14  C   UNL     1      34.312 -19.399 -22.347  0.00  0.00    +0.176 C 
ATOM     15  C   UNL     1      35.629 -19.387 -21.899  0.00  0.00    +0.173 C 
ENDROOT
BRANCH  15  16
ATOM     16  O   UNL     1      36.578 -18.674 -22.569  0.00  0.00    -0.468 OA
ATOM     17  C   UNL     1      37.898 -18.689 -22.031  0.00  0.00    +0.253 C 
ENDBRANCH  15  16
BRANCH   6  18
ATOM     18  C   UNL     1      36.105 -23.970 -15.264  0.00  0.00    +0.133 C 
ATOM     19  C   UNL     1      34.845 -24.187 -14.420  0.00  0.00    +0.037 C 
BRANCH  18  20
ATOM     20  O   UNL     1      36.639 -25.251 -15.620  0.00  0.00    -0.380 OA
ATOM     21  H   UNL     1      37.285 -25.144 -16.335  0.00  0.00    +0.211 HD
ENDBRANCH  18  20
ENDBRANCH   6  18
BRANCH  14  22
ATOM     22  O   UNL     1      33.948 -18.700 -23.458  0.00  0.00    -0.467 OA
BRANCH  22  23
ATOM     23  C   UNL     1      34.942 -17.870 -24.056  0.00  0.00    +0.232 C 
BRANCH  23  24
ATOM     24  C   UNL     1      34.476 -16.443 -24.016  0.00  0.00    +0.021 C 
ATOM     25  C   UNL     1      33.814 -15.904 -25.112  0.00  0.00    +0.002 C 
ATOM     26  C   UNL     1      34.714 -15.674 -22.882  0.00  0.00    +0.002 C 
ATOM     27  C   UNL     1      33.381 -14.578 -25.075  0.00  0.00    +0.037 C 
ATOM     28  C   UNL     1      34.282 -14.348 -22.844  0.00  0.00    +0.037 C 
ATOM     29  C   UNL     1      33.616 -13.801 -23.941  0.00  0.00    +0.139 C 
BRANCH  29  30
ATOM     30  O   UNL     1      33.194 -12.507 -23.904  0.00  0.00    -0.471 OA
ATOM     31  C   UNL     1      34.007 -11.539 -24.564  0.00  0.00    +0.252 C 
ENDBRANCH  29  30
ENDBRANCH  23  24
ENDBRANCH  22  23
ENDBRANCH  14  22
TORSDOF 7
ENDMDL
MODEL 7
REMARK VINA RESULT:     -10.3      5.403     13.647
REMARK  Name = 11998575
REMARK  7 active torsions:
REMARK  status: ('A' for Active; 'I' for Inactive)
REMARK    1  A    between atoms: C_6  and  C_18
REMARK    2  A    between atoms: C_14  and  O_22
REMARK    3  A    between atoms: C_15  and  O_16
REMARK    4  A    between atoms: C_18  and  O_20
REMARK    5  A    between atoms: O_22  and  C_23
REMARK    6  A    between atoms: C_23  and  C_24
REMARK    7  A    between atoms: C_29  and  O_30
REMARK                            x       y       z     vdW  Elec       q    Type
REMARK                         _______ _______ _______ _____ _____    ______ ____
ROOT
ATOM      1  O   UNL     1      34.799 -10.990 -26.017  0.00  0.00    -0.421 OA
ATOM      2  O   UNL     1      35.528  -9.101 -27.067  0.00  0.00    -0.244 OA
ATOM      3  C   UNL     1      33.440  -9.406 -24.108  0.00  0.00    +0.009 A 
ATOM      4  C   UNL     1      33.391 -10.872 -24.024  0.00  0.00    +0.038 A 
ATOM      5  C   UNL     1      34.168  -8.798 -25.145  0.00  0.00    +0.076 A 
ATOM      6  C   UNL     1      33.584  -6.588 -24.341  0.00  0.00    +0.004 C 
ATOM      7  C   UNL     1      34.074 -11.622 -24.984  0.00  0.00    +0.152 A 
ATOM      8  C   UNL     1      34.239  -7.400 -25.260  0.00  0.00    +0.004 C 
ATOM      9  C   UNL     1      32.787  -8.558 -23.192  0.00  0.00    +0.000 C 
ATOM     10  C   UNL     1      32.700 -11.594 -23.038  0.00  0.00    +0.043 C 
ATOM     11  C   UNL     1      32.859  -7.166 -23.308  0.00  0.00    -0.002 C 
ATOM     12  C   UNL     1      34.888  -9.611 -26.155  0.00  0.00    +0.346 A 
ATOM     13  C   UNL     1      34.089 -13.019 -24.989  0.00  0.00    +0.078 C 
ATOM     14  C   UNL     1      33.397 -13.706 -23.999  0.00  0.00    +0.176 C 
ATOM     15  C   UNL     1      32.703 -12.995 -23.025  0.00  0.00    +0.173 C 
ENDROOT
BRANCH  15  16
ATOM     16  O   UNL     1      32.019 -13.654 -22.047  0.00  0.00    -0.468 OA
ATOM     17  C   UNL     1      31.816 -12.959 -20.819  0.00  0.00    +0.253 C 
ENDBRANCH  15  16
BRANCH   6  18
ATOM     18  C   UNL     1      33.661  -5.104 -24.463  0.00  0.00    +0.133 C 
ATOM     19  C   UNL     1      34.035  -4.644 -25.876  0.00  0.00    +0.037 C 
BRANCH  18  20
ATOM     20  O   UNL     1      32.402  -4.517 -24.113  0.00  0.00    -0.380 OA
ATOM     21  H   UNL     1      31.721  -5.208 -24.084  0.00  0.00    +0.211 HD
ENDBRANCH  18  20
ENDBRANCH   6  18
BRANCH  14  22
ATOM     22  O   UNL     1      33.405 -15.068 -23.994  0.00  0.00    -0.467 OA
BRANCH  22  23
ATOM     23  C   UNL     1      34.643 -15.710 -24.299  0.00  0.00    +0.232 C 
BRANCH  23  24
ATOM     24  C   UNL     1      34.764 -16.956 -23.471  0.00  0.00    +0.021 C 
ATOM     25  C   UNL     1      34.468 -18.190 -24.036  0.00  0.00    +0.002 C 
ATOM     26  C   UNL     1      35.172 -16.863 -22.144  0.00  0.00    +0.002 C 
ATOM     27  C   UNL     1      34.580 -19.348 -23.266  0.00  0.00    +0.037 C 
ATOM     28  C   UNL     1      35.285 -18.020 -21.374  0.00  0.00    +0.037 C 
ATOM     29  C   UNL     1      34.989 -19.263 -21.935  0.00  0.00    +0.139 C 
BRANCH  29  30
ATOM     30  O   UNL     1      35.099 -20.392 -21.184  0.00  0.00    -0.471 OA
ATOM     31  C   UNL     1      33.959 -20.778 -20.419  0.00  0.00    +0.252 C 
ENDBRANCH  29  30
ENDBRANCH  23  24
ENDBRANCH  22  23
ENDBRANCH  14  22
TORSDOF 7
ENDMDL
MODEL 8
REMARK VINA RESULT:     -10.2      1.769      3.064
REMARK  Name = 11998575
REMARK  7 active torsions:
REMARK  status: ('A' for Active; 'I' for Inactive)
REMARK    1  A    between atoms: C_6  and  C_18
REMARK    2  A    between atoms: C_14  and  O_22
REMARK    3  A    between atoms: C_15  and  O_16
REMARK    4  A    between atoms: C_18  and  O_20
REMARK    5  A    between atoms: O_22  and  C_23
REMARK    6  A    between atoms: C_23  and  C_24
REMARK    7  A    between atoms: C_29  and  O_30
REMARK                            x       y       z     vdW  Elec       q    Type
REMARK                         _______ _______ _______ _____ _____    ______ ____
ROOT
ATOM      1  O   UNL     1      32.604 -22.363 -18.757  0.00  0.00    -0.421 OA
ATOM      2  O   UNL     1      31.912 -23.666 -17.018  0.00  0.00    -0.244 OA
ATOM      3  C   UNL     1      35.246 -22.419 -17.749  0.00  0.00    +0.009 A 
ATOM      4  C   UNL     1      34.938 -21.679 -18.980  0.00  0.00    +0.038 A 
ATOM      5  C   UNL     1      34.216 -23.098 -17.077  0.00  0.00    +0.076 A 
ATOM      6  C   UNL     1      35.754 -23.868 -15.370  0.00  0.00    +0.004 C 
ATOM      7  C   UNL     1      33.623 -21.674 -19.448  0.00  0.00    +0.152 A 
ATOM      8  C   UNL     1      34.469 -23.817 -15.897  0.00  0.00    +0.004 C 
ATOM      9  C   UNL     1      36.538 -22.488 -17.192  0.00  0.00    +0.000 C 
ATOM     10  C   UNL     1      35.878 -20.963 -19.738  0.00  0.00    +0.043 C 
ATOM     11  C   UNL     1      36.788 -23.204 -16.016  0.00  0.00    -0.002 C 
ATOM     12  C   UNL     1      32.824 -23.081 -17.588  0.00  0.00    +0.346 A 
ATOM     13  C   UNL     1      33.231 -20.999 -20.608  0.00  0.00    +0.078 C 
ATOM     14  C   UNL     1      34.183 -20.298 -21.337  0.00  0.00    +0.176 C 
ATOM     15  C   UNL     1      35.505 -20.279 -20.904  0.00  0.00    +0.173 C 
ENDROOT
BRANCH  15  16
ATOM     16  O   UNL     1      36.452 -19.596 -21.608  0.00  0.00    -0.468 OA
ATOM     17  C   UNL     1      37.397 -18.840 -20.855  0.00  0.00    +0.253 C 
ENDBRANCH  15  16
BRANCH   6  18
ATOM     18  C   UNL     1      36.022 -24.630 -14.117  0.00  0.00    +0.133 C 
ATOM     19  C   UNL     1      35.349 -24.008 -12.890  0.00  0.00    +0.037 C 
BRANCH  18  20
ATOM     20  O   UNL     1      35.558 -25.979 -14.255  0.00  0.00    -0.380 OA
ATOM     21  H   UNL     1      34.791 -25.997 -14.848  0.00  0.00    +0.211 HD
ENDBRANCH  18  20
ENDBRANCH   6  18
BRANCH  14  22
ATOM     22  O   UNL     1      33.812 -19.636 -22.468  0.00  0.00    -0.467 OA
BRANCH  22  23
ATOM     23  C   UNL     1      34.858 -19.146 -23.306  0.00  0.00    +0.232 C 
BRANCH  23  24
ATOM     24  C   UNL     1      34.587 -17.707 -23.635  0.00  0.00    +0.021 C 
ATOM     25  C   UNL     1      34.028 -17.374 -24.862  0.00  0.00    +0.002 C 
ATOM     26  C   UNL     1      34.901 -16.718 -22.707  0.00  0.00    +0.002 C 
ATOM     27  C   UNL     1      33.777 -16.036 -25.168  0.00  0.00    +0.037 C 
ATOM     28  C   UNL     1      34.650 -15.381 -23.012  0.00  0.00    +0.037 C 
ATOM     29  C   UNL     1      34.089 -15.040 -24.243  0.00  0.00    +0.139 C 
BRANCH  29  30
ATOM     30  O   UNL     1      33.843 -13.735 -24.541  0.00  0.00    -0.471 OA
ATOM     31  C   UNL     1      33.359 -13.447 -25.851  0.00  0.00    +0.252 C 
ENDBRANCH  29  30
ENDBRANCH  23  24
ENDBRANCH  22  23
ENDBRANCH  14  22
TORSDOF 7
ENDMDL
MODEL 9
REMARK VINA RESULT:      -9.6      6.884     15.061
REMARK  Name = 11998575
REMARK  7 active torsions:
REMARK  status: ('A' for Active; 'I' for Inactive)
REMARK    1  A    between atoms: C_6  and  C_18
REMARK    2  A    between atoms: C_14  and  O_22
REMARK    3  A    between atoms: C_15  and  O_16
REMARK    4  A    between atoms: C_18  and  O_20
REMARK    5  A    between atoms: O_22  and  C_23
REMARK    6  A    between atoms: C_23  and  C_24
REMARK    7  A    between atoms: C_29  and  O_30
REMARK                            x       y       z     vdW  Elec       q    Type
REMARK                         _______ _______ _______ _____ _____    ______ ____
ROOT
ATOM      1  O   UNL     1      32.261  -9.140 -22.566  0.00  0.00    -0.421 OA
ATOM      2  O   UNL     1      31.212  -7.462 -21.432  0.00  0.00    -0.244 OA
ATOM      3  C   UNL     1      33.075  -7.295 -24.549  0.00  0.00    +0.009 A 
ATOM      4  C   UNL     1      33.444  -8.712 -24.659  0.00  0.00    +0.038 A 
ATOM      5  C   UNL     1      32.313  -6.864 -23.449  0.00  0.00    +0.076 A 
ATOM      6  C   UNL     1      32.321  -4.581 -24.260  0.00  0.00    +0.004 C 
ATOM      7  C   UNL     1      33.025  -9.595 -23.661  0.00  0.00    +0.152 A 
ATOM      8  C   UNL     1      31.940  -5.518 -23.306  0.00  0.00    +0.004 C 
ATOM      9  C   UNL     1      33.446  -6.323 -25.498  0.00  0.00    +0.000 C 
ATOM     10  C   UNL     1      34.199  -9.262 -25.708  0.00  0.00    +0.043 C 
ATOM     11  C   UNL     1      33.073  -4.983 -25.356  0.00  0.00    -0.002 C 
ATOM     12  C   UNL     1      31.876  -7.816 -22.399  0.00  0.00    +0.346 A 
ATOM     13  C   UNL     1      33.324 -10.960 -23.678  0.00  0.00    +0.078 C 
ATOM     14  C   UNL     1      34.072 -11.475 -24.729  0.00  0.00    +0.176 C 
ATOM     15  C   UNL     1      34.510 -10.628 -25.743  0.00  0.00    +0.173 C 
ENDROOT
BRANCH  15  16
ATOM     16  O   UNL     1      35.244 -11.119 -26.781  0.00  0.00    -0.468 OA
ATOM     17  C   UNL     1      34.552 -11.902 -27.750  0.00  0.00    +0.253 C 
ENDBRANCH  15  16
BRANCH   6  18
ATOM     18  C   UNL     1      31.923  -3.152 -24.109  0.00  0.00    +0.133 C 
ATOM     19  C   UNL     1      32.338  -2.292 -25.307  0.00  0.00    +0.037 C 
BRANCH  18  20
ATOM     20  O   UNL     1      30.503  -3.053 -23.948  0.00  0.00    -0.380 OA
ATOM     21  H   UNL     1      30.242  -3.474 -23.115  0.00  0.00    +0.211 HD
ENDBRANCH  18  20
ENDBRANCH   6  18
BRANCH  14  22
ATOM     22  O   UNL     1      34.369 -12.804 -24.756  0.00  0.00    -0.467 OA
BRANCH  22  23
ATOM     23  C   UNL     1      33.296 -13.713 -24.516  0.00  0.00    +0.232 C 
BRANCH  23  24
ATOM     24  C   UNL     1      33.863 -15.055 -24.155  0.00  0.00    +0.021 C 
ATOM     25  C   UNL     1      34.416 -15.253 -22.895  0.00  0.00    +0.002 C 
ATOM     26  C   UNL     1      33.832 -16.089 -25.086  0.00  0.00    +0.002 C 
ATOM     27  C   UNL     1      34.944 -16.500 -22.560  0.00  0.00    +0.037 C 
ATOM     28  C   UNL     1      34.360 -17.335 -24.751  0.00  0.00    +0.037 C 
ATOM     29  C   UNL     1      34.915 -17.541 -23.488  0.00  0.00    +0.139 C 
BRANCH  29  30
ATOM     30  O   UNL     1      35.430 -18.758 -23.161  0.00  0.00    -0.471 OA
ATOM     31  C   UNL     1      34.988 -19.343 -21.937  0.00  0.00    +0.252 C 
ENDBRANCH  29  30
ENDBRANCH  23  24
ENDBRANCH  22  23
ENDBRANCH  14  22
TORSDOF 7
ENDMDL
