MODEL 1
REMARK VINA RESULT:     -11.7      0.000      0.000
REMARK  Name = 46937030
REMARK  7 active torsions:
REMARK  status: ('A' for Active; 'I' for Inactive)
REMARK    1  A    between atoms: C_3  and  C_10
REMARK    2  A    between atoms: C_7  and  C_25
REMARK    3  A    between atoms: N_9  and  C_12
REMARK    4  A    between atoms: C_12  and  C_13
REMARK    5  A    between atoms: C_18  and  C_21
REMARK    6  A    between atoms: C_25  and  N_26
REMARK    7  A    between atoms: N_26  and  C_29
REMARK                            x       y       z     vdW  Elec       q    Type
REMARK                         _______ _______ _______ _____ _____    ______ ____
ROOT
ATOM      1  O   UNL     1      35.037 -25.414 -11.940  0.00  0.00    -0.277 OA
ATOM      2  N   UNL     1      35.826 -24.244 -13.769  0.00  0.00    -0.275 N 
ATOM      3  C   UNL     1      35.729 -23.213 -14.801  0.00  0.00    +0.152 C 
ATOM      4  C   UNL     1      37.177 -22.875 -15.139  0.00  0.00    +0.031 C 
ATOM      5  C   UNL     1      37.188 -24.750 -13.661  0.00  0.00    +0.094 C 
ATOM      6  C   UNL     1      37.920 -24.181 -14.866  0.00  0.00    +0.024 C 
ATOM      7  C   UNL     1      34.843 -24.633 -12.873  0.00  0.00    +0.204 C 
ENDROOT
BRANCH   3  10
ATOM      8  O   UNL     1      34.921 -25.025 -16.130  0.00  0.00    -0.273 OA
ATOM      9  N   UNL     1      34.576 -22.844 -16.866  0.00  0.00    -0.299 N 
ATOM     10  C   UNL     1      35.032 -23.810 -15.986  0.00  0.00    +0.241 C 
ATOM     11  H   UNL     1      34.724 -21.896 -16.641  0.00  0.00    +0.150 HD
BRANCH   9  12
ATOM     12  C   UNL     1      33.890 -23.157 -18.099  0.00  0.00    +0.116 C 
BRANCH  12  13
ATOM     13  C   UNL     1      34.099 -22.098 -19.143  0.00  0.00    -0.003 C 
ATOM     14  C   UNL     1      35.393 -21.727 -19.509  0.00  0.00    -0.003 C 
ATOM     15  C   UNL     1      33.001 -21.485 -19.746  0.00  0.00    -0.003 C 
ATOM     16  C   UNL     1      35.589 -20.743 -20.479  0.00  0.00    +0.002 C 
ATOM     17  C   UNL     1      33.196 -20.501 -20.715  0.00  0.00    +0.002 C 
ATOM     18  C   UNL     1      34.490 -20.131 -21.082  0.00  0.00    +0.031 C 
BRANCH  18  21
ATOM     19  N   UNL     1      35.205 -17.852 -21.762  0.00  0.00    -0.343 N 
ATOM     20  N   UNL     1      34.386 -19.354 -23.354  0.00  0.00    -0.285 NA
ATOM     21  C   UNL     1      34.693 -19.106 -22.093  0.00  0.00    +0.117 C 
ATOM     22  H   UNL     1      35.334 -17.173 -22.464  0.00  0.00    +0.144 HD
ATOM     23  H   UNL     1      35.437 -17.646 -20.828  0.00  0.00    +0.144 HD
ATOM     24  H   UNL     1      34.522 -18.661 -24.040  0.00  0.00    +0.188 HD
ENDBRANCH  18  21
ENDBRANCH  12  13
ENDBRANCH   9  12
ENDBRANCH   3  10
BRANCH   7  25
ATOM     25  C   UNL     1      33.475 -24.038 -13.090  0.00  0.00    +0.006 C 
BRANCH  25  26
ATOM     26  N   UNL     1      32.696 -25.021 -13.825  0.00  0.00    +0.391 N 
ATOM     27  H   UNL     1      32.986 -25.015 -14.804  0.00  0.00    -0.084 HD
ATOM     28  H   UNL     1      32.857 -25.942 -13.416  0.00  0.00    -0.084 HD
BRANCH  26  29
ATOM     29  C   UNL     1      31.265 -24.711 -13.744  0.00  0.00    -0.061 C 
ATOM     30  C   UNL     1      31.032 -23.208 -13.946  0.00  0.00    -0.021 C 
ATOM     31  C   UNL     1      30.498 -25.662 -14.675  0.00  0.00    -0.021 C 
ATOM     32  C   UNL     1      29.015 -25.329 -14.855  0.00  0.00    -0.002 C 
ATOM     33  C   UNL     1      31.430 -22.603 -15.293  0.00  0.00    -0.002 C 
ATOM     34  C   UNL     1      28.674 -24.658 -16.189  0.00  0.00    -0.000 C 
ATOM     35  C   UNL     1      30.696 -23.102 -16.536  0.00  0.00    -0.000 C 
ATOM     36  C   UNL     1      29.179 -23.227 -16.391  0.00  0.00    -0.000 C 
ENDBRANCH  26  29
ENDBRANCH  25  26
ENDBRANCH   7  25
TORSDOF 7
ENDMDL
MODEL 2
REMARK VINA RESULT:     -10.0      2.203      6.743
REMARK  Name = 46937030
REMARK  7 active torsions:
REMARK  status: ('A' for Active; 'I' for Inactive)
REMARK    1  A    between atoms: C_3  and  C_10
REMARK    2  A    between atoms: C_7  and  C_25
REMARK    3  A    between atoms: N_9  and  C_12
REMARK    4  A    between atoms: C_12  and  C_13
REMARK    5  A    between atoms: C_18  and  C_21
REMARK    6  A    between atoms: C_25  and  N_26
REMARK    7  A    between atoms: N_26  and  C_29
REMARK                            x       y       z     vdW  Elec       q    Type
REMARK                         _______ _______ _______ _____ _____    ______ ____
ROOT
ATOM      1  O   UNL     1      38.000 -22.488 -16.464  0.00  0.00    -0.277 OA
ATOM      2  N   UNL     1      36.983 -24.263 -15.392  0.00  0.00    -0.275 N 
ATOM      3  C   UNL     1      35.888 -25.210 -15.183  0.00  0.00    +0.152 C 
ATOM      4  C   UNL     1      36.556 -26.435 -14.567  0.00  0.00    +0.031 C 
ATOM      5  C   UNL     1      38.191 -24.700 -14.704  0.00  0.00    +0.094 C 
ATOM      6  C   UNL     1      37.747 -25.848 -13.812  0.00  0.00    +0.024 C 
ATOM      7  C   UNL     1      36.995 -23.164 -16.235  0.00  0.00    +0.204 C 
ENDROOT
BRANCH   3  10
ATOM      8  O   UNL     1      35.273 -23.754 -13.393  0.00  0.00    -0.273 OA
ATOM      9  N   UNL     1      33.640 -25.095 -14.369  0.00  0.00    -0.299 N 
ATOM     10  C   UNL     1      34.921 -24.592 -14.219  0.00  0.00    +0.241 C 
ATOM     11  H   UNL     1      33.478 -25.767 -15.070  0.00  0.00    +0.150 HD
BRANCH   9  12
ATOM     12  C   UNL     1      32.526 -24.681 -13.546  0.00  0.00    +0.116 C 
BRANCH  12  13
ATOM     13  C   UNL     1      31.301 -24.389 -14.365  0.00  0.00    -0.003 C 
ATOM     14  C   UNL     1      30.334 -25.378 -14.548  0.00  0.00    -0.003 C 
ATOM     15  C   UNL     1      31.130 -23.131 -14.941  0.00  0.00    -0.003 C 
ATOM     16  C   UNL     1      29.196 -25.108 -15.308  0.00  0.00    +0.002 C 
ATOM     17  C   UNL     1      29.992 -22.861 -15.702  0.00  0.00    +0.002 C 
ATOM     18  C   UNL     1      29.025 -23.849 -15.885  0.00  0.00    +0.031 C 
BRANCH  18  21
ATOM     19  N   UNL     1      27.006 -22.490 -16.377  0.00  0.00    -0.343 N 
ATOM     20  N   UNL     1      27.530 -24.343 -17.701  0.00  0.00    -0.285 NA
ATOM     21  C   UNL     1      27.838 -23.567 -16.677  0.00  0.00    +0.117 C 
ATOM     22  H   UNL     1      26.208 -22.317 -16.927  0.00  0.00    +0.144 HD
ATOM     23  H   UNL     1      27.217 -21.902 -15.617  0.00  0.00    +0.144 HD
ATOM     24  H   UNL     1      26.727 -24.154 -18.237  0.00  0.00    +0.188 HD
ENDBRANCH  18  21
ENDBRANCH  12  13
ENDBRANCH   9  12
ENDBRANCH   3  10
BRANCH   7  25
ATOM     25  C   UNL     1      35.682 -22.815 -16.889  0.00  0.00    +0.006 C 
BRANCH  25  26
ATOM     26  N   UNL     1      35.852 -21.516 -17.518  0.00  0.00    +0.391 N 
ATOM     27  H   UNL     1      35.014 -20.955 -17.361  0.00  0.00    -0.084 HD
ATOM     28  H   UNL     1      36.665 -21.056 -17.108  0.00  0.00    -0.084 HD
BRANCH  26  29
ATOM     29  C   UNL     1      36.069 -21.665 -18.960  0.00  0.00    -0.061 C 
ATOM     30  C   UNL     1      34.873 -22.374 -19.610  0.00  0.00    -0.021 C 
ATOM     31  C   UNL     1      36.468 -20.303 -19.546  0.00  0.00    -0.021 C 
ATOM     32  C   UNL     1      36.529 -20.253 -21.074  0.00  0.00    -0.002 C 
ATOM     33  C   UNL     1      33.515 -21.676 -19.545  0.00  0.00    -0.002 C 
ATOM     34  C   UNL     1      35.339 -19.552 -21.734  0.00  0.00    -0.000 C 
ATOM     35  C   UNL     1      33.378 -20.330 -20.257  0.00  0.00    -0.000 C 
ATOM     36  C   UNL     1      33.988 -20.269 -21.658  0.00  0.00    -0.000 C 
ENDBRANCH  26  29
ENDBRANCH  25  26
ENDBRANCH   7  25
TORSDOF 7
ENDMDL
MODEL 3
REMARK VINA RESULT:      -9.5      1.513      2.142
REMARK  Name = 46937030
REMARK  7 active torsions:
REMARK  status: ('A' for Active; 'I' for Inactive)
REMARK    1  A    between atoms: C_3  and  C_10
REMARK    2  A    between atoms: C_7  and  C_25
REMARK    3  A    between atoms: N_9  and  C_12
REMARK    4  A    between atoms: C_12  and  C_13
REMARK    5  A    between atoms: C_18  and  C_21
REMARK    6  A    between atoms: C_25  and  N_26
REMARK    7  A    between atoms: N_26  and  C_29
REMARK                            x       y       z     vdW  Elec       q    Type
REMARK                         _______ _______ _______ _____ _____    ______ ____
ROOT
ATOM      1  O   UNL     1      35.761 -25.747 -14.402  0.00  0.00    -0.277 OA
ATOM      2  N   UNL     1      36.065 -23.791 -15.592  0.00  0.00    -0.275 N 
ATOM      3  C   UNL     1      35.610 -22.522 -16.158  0.00  0.00    +0.152 C 
ATOM      4  C   UNL     1      36.871 -21.669 -16.245  0.00  0.00    +0.031 C 
ATOM      5  C   UNL     1      37.520 -23.872 -15.593  0.00  0.00    +0.094 C 
ATOM      6  C   UNL     1      37.983 -22.697 -16.439  0.00  0.00    +0.024 C 
ATOM      7  C   UNL     1      35.293 -24.764 -14.979  0.00  0.00    +0.204 C 
ENDROOT
BRANCH   3  10
ATOM      8  O   UNL     1      34.173 -23.624 -17.714  0.00  0.00    -0.273 OA
ATOM      9  N   UNL     1      35.684 -22.039 -18.502  0.00  0.00    -0.299 N 
ATOM     10  C   UNL     1      35.061 -22.797 -17.526  0.00  0.00    +0.241 C 
ATOM     11  H   UNL     1      36.386 -21.405 -18.227  0.00  0.00    +0.150 HD
BRANCH   9  12
ATOM     12  C   UNL     1      35.355 -22.132 -19.906  0.00  0.00    +0.116 C 
BRANCH  12  13
ATOM     13  C   UNL     1      35.322 -20.783 -20.566  0.00  0.00    -0.003 C 
ATOM     14  C   UNL     1      34.105 -20.235 -20.970  0.00  0.00    -0.003 C 
ATOM     15  C   UNL     1      36.509 -20.080 -20.775  0.00  0.00    -0.003 C 
ATOM     16  C   UNL     1      34.074 -18.982 -21.583  0.00  0.00    +0.002 C 
ATOM     17  C   UNL     1      36.478 -18.827 -21.388  0.00  0.00    +0.002 C 
ATOM     18  C   UNL     1      35.261 -18.278 -21.792  0.00  0.00    +0.031 C 
BRANCH  18  21
ATOM     19  N   UNL     1      34.698 -15.860 -21.779  0.00  0.00    -0.343 N 
ATOM     20  N   UNL     1      35.706 -16.825 -23.654  0.00  0.00    -0.285 NA
ATOM     21  C   UNL     1      35.229 -16.972 -22.430  0.00  0.00    +0.117 C 
ATOM     22  H   UNL     1      34.687 -14.985 -22.231  0.00  0.00    +0.144 HD
ATOM     23  H   UNL     1      34.335 -15.949 -20.869  0.00  0.00    +0.144 HD
ATOM     24  H   UNL     1      35.685 -15.942 -24.088  0.00  0.00    +0.188 HD
ENDBRANCH  18  21
ENDBRANCH  12  13
ENDBRANCH   9  12
ENDBRANCH   3  10
BRANCH   7  25
ATOM     25  C   UNL     1      33.800 -24.565 -15.045  0.00  0.00    +0.006 C 
BRANCH  25  26
ATOM     26  N   UNL     1      33.455 -23.588 -14.025  0.00  0.00    +0.391 N 
ATOM     27  H   UNL     1      34.011 -23.767 -13.188  0.00  0.00    -0.084 HD
ATOM     28  H   UNL     1      33.652 -22.654 -14.385  0.00  0.00    -0.084 HD
BRANCH  26  29
ATOM     29  C   UNL     1      32.031 -23.676 -13.687  0.00  0.00    -0.061 C 
ATOM     30  C   UNL     1      31.228 -22.636 -14.480  0.00  0.00    -0.021 C 
ATOM     31  C   UNL     1      31.581 -25.139 -13.810  0.00  0.00    -0.021 C 
ATOM     32  C   UNL     1      30.072 -25.361 -13.688  0.00  0.00    -0.002 C 
ATOM     33  C   UNL     1      31.220 -22.759 -16.004  0.00  0.00    -0.002 C 
ATOM     34  C   UNL     1      29.359 -25.621 -15.017  0.00  0.00    -0.000 C 
ATOM     35  C   UNL     1      30.596 -24.017 -16.608  0.00  0.00    -0.000 C 
ATOM     36  C   UNL     1      29.263 -24.443 -15.991  0.00  0.00    -0.000 C 
ENDBRANCH  26  29
ENDBRANCH  25  26
ENDBRANCH   7  25
TORSDOF 7
ENDMDL
MODEL 4
REMARK VINA RESULT:      -9.4      1.565      2.525
REMARK  Name = 46937030
REMARK  7 active torsions:
REMARK  status: ('A' for Active; 'I' for Inactive)
REMARK    1  A    between atoms: C_3  and  C_10
REMARK    2  A    between atoms: C_7  and  C_25
REMARK    3  A    between atoms: N_9  and  C_12
REMARK    4  A    between atoms: C_12  and  C_13
REMARK    5  A    between atoms: C_18  and  C_21
REMARK    6  A    between atoms: C_25  and  N_26
REMARK    7  A    between atoms: N_26  and  C_29
REMARK                            x       y       z     vdW  Elec       q    Type
REMARK                         _______ _______ _______ _____ _____    ______ ____
ROOT
ATOM      1  O   UNL     1      33.130 -25.054 -12.973  0.00  0.00    -0.277 OA
ATOM      2  N   UNL     1      35.254 -24.154 -13.097  0.00  0.00    -0.275 N 
ATOM      3  C   UNL     1      36.220 -23.140 -13.515  0.00  0.00    +0.152 C 
ATOM      4  C   UNL     1      37.328 -23.215 -12.470  0.00  0.00    +0.031 C 
ATOM      5  C   UNL     1      35.813 -25.014 -12.062  0.00  0.00    +0.094 C 
ATOM      6  C   UNL     1      37.293 -24.673 -12.019  0.00  0.00    +0.024 C 
ATOM      7  C   UNL     1      33.923 -24.253 -13.471  0.00  0.00    +0.204 C 
ENDROOT
BRANCH   3  10
ATOM      8  O   UNL     1      37.051 -24.684 -15.135  0.00  0.00    -0.273 OA
ATOM      9  N   UNL     1      36.835 -22.442 -15.721  0.00  0.00    -0.299 N 
ATOM     10  C   UNL     1      36.740 -23.527 -14.867  0.00  0.00    +0.241 C 
ATOM     11  H   UNL     1      36.553 -21.558 -15.391  0.00  0.00    +0.150 HD
BRANCH   9  12
ATOM     12  C   UNL     1      37.329 -22.542 -17.076  0.00  0.00    +0.116 C 
BRANCH  12  13
ATOM     13  C   UNL     1      36.334 -22.030 -18.076  0.00  0.00    -0.003 C 
ATOM     14  C   UNL     1      35.004 -22.444 -18.010  0.00  0.00    -0.003 C 
ATOM     15  C   UNL     1      36.739 -21.141 -19.071  0.00  0.00    -0.003 C 
ATOM     16  C   UNL     1      34.078 -21.969 -18.940  0.00  0.00    +0.002 C 
ATOM     17  C   UNL     1      35.814 -20.665 -20.001  0.00  0.00    +0.002 C 
ATOM     18  C   UNL     1      34.483 -21.079 -19.934  0.00  0.00    +0.031 C 
BRANCH  18  21
ATOM     19  N   UNL     1      33.924 -19.868 -22.029  0.00  0.00    -0.343 N 
ATOM     20  N   UNL     1      32.229 -20.802 -20.720  0.00  0.00    -0.285 NA
ATOM     21  C   UNL     1      33.519 -20.582 -20.903  0.00  0.00    +0.117 C 
ATOM     22  H   UNL     1      33.254 -19.541 -22.672  0.00  0.00    +0.144 HD
ATOM     23  H   UNL     1      34.880 -19.691 -22.181  0.00  0.00    +0.144 HD
ATOM     24  H   UNL     1      31.574 -20.466 -21.374  0.00  0.00    +0.188 HD
ENDBRANCH  18  21
ENDBRANCH  12  13
ENDBRANCH   9  12
ENDBRANCH   3  10
BRANCH   7  25
ATOM     25  C   UNL     1      33.466 -23.306 -14.551  0.00  0.00    +0.006 C 
BRANCH  25  26
ATOM     26  N   UNL     1      32.059 -23.031 -14.308  0.00  0.00    +0.391 N 
ATOM     27  H   UNL     1      31.692 -23.718 -13.649  0.00  0.00    -0.084 HD
ATOM     28  H   UNL     1      31.970 -22.091 -13.922  0.00  0.00    -0.084 HD
BRANCH  26  29
ATOM     29  C   UNL     1      31.296 -23.104 -15.557  0.00  0.00    -0.061 C 
ATOM     30  C   UNL     1      31.201 -24.556 -16.042  0.00  0.00    -0.021 C 
ATOM     31  C   UNL     1      29.971 -22.347 -15.375  0.00  0.00    -0.021 C 
ATOM     32  C   UNL     1      28.975 -22.507 -16.525  0.00  0.00    -0.002 C 
ATOM     33  C   UNL     1      30.473 -25.557 -15.144  0.00  0.00    -0.002 C 
ATOM     34  C   UNL     1      27.816 -23.463 -16.232  0.00  0.00    -0.000 C 
ATOM     35  C   UNL     1      28.985 -25.321 -14.886  0.00  0.00    -0.000 C 
ATOM     36  C   UNL     1      28.160 -24.950 -16.119  0.00  0.00    -0.000 C 
ENDBRANCH  26  29
ENDBRANCH  25  26
ENDBRANCH   7  25
TORSDOF 7
ENDMDL
MODEL 5
REMARK VINA RESULT:      -9.1      2.537      6.791
REMARK  Name = 46937030
REMARK  7 active torsions:
REMARK  status: ('A' for Active; 'I' for Inactive)
REMARK    1  A    between atoms: C_3  and  C_10
REMARK    2  A    between atoms: C_7  and  C_25
REMARK    3  A    between atoms: N_9  and  C_12
REMARK    4  A    between atoms: C_12  and  C_13
REMARK    5  A    between atoms: C_18  and  C_21
REMARK    6  A    between atoms: C_25  and  N_26
REMARK    7  A    between atoms: N_26  and  C_29
REMARK                            x       y       z     vdW  Elec       q    Type
REMARK                         _______ _______ _______ _____ _____    ______ ____
ROOT
ATOM      1  O   UNL     1      32.049 -21.350 -19.233  0.00  0.00    -0.277 OA
ATOM      2  N   UNL     1      34.198 -21.163 -20.061  0.00  0.00    -0.275 N 
ATOM      3  C   UNL     1      35.573 -21.624 -20.241  0.00  0.00    +0.152 C 
ATOM      4  C   UNL     1      36.013 -21.006 -21.565  0.00  0.00    +0.031 C 
ATOM      5  C   UNL     1      33.872 -20.105 -21.010  0.00  0.00    +0.094 C 
ATOM      6  C   UNL     1      35.199 -19.717 -21.642  0.00  0.00    +0.024 C 
ATOM      7  C   UNL     1      33.229 -21.707 -19.233  0.00  0.00    +0.204 C 
ENDROOT
BRANCH   3  10
ATOM      8  O   UNL     1      36.978 -20.010 -19.182  0.00  0.00    -0.273 OA
ATOM      9  N   UNL     1      36.414 -21.949 -18.024  0.00  0.00    -0.299 N 
ATOM     10  C   UNL     1      36.393 -21.088 -19.107  0.00  0.00    +0.241 C 
ATOM     11  H   UNL     1      35.903 -22.789 -18.081  0.00  0.00    +0.150 HD
BRANCH   9  12
ATOM     12  C   UNL     1      37.152 -21.677 -16.811  0.00  0.00    +0.116 C 
BRANCH  12  13
ATOM     13  C   UNL     1      37.037 -22.799 -15.819  0.00  0.00    -0.003 C 
ATOM     14  C   UNL     1      35.930 -22.870 -14.973  0.00  0.00    -0.003 C 
ATOM     15  C   UNL     1      38.036 -23.769 -15.745  0.00  0.00    -0.003 C 
ATOM     16  C   UNL     1      35.823 -23.912 -14.051  0.00  0.00    +0.002 C 
ATOM     17  C   UNL     1      37.929 -24.811 -14.824  0.00  0.00    +0.002 C 
ATOM     18  C   UNL     1      36.822 -24.883 -13.977  0.00  0.00    +0.031 C 
BRANCH  18  21
ATOM     19  N   UNL     1      36.869 -27.299 -13.406  0.00  0.00    -0.343 N 
ATOM     20  N   UNL     1      36.448 -25.705 -11.750  0.00  0.00    -0.285 NA
ATOM     21  C   UNL     1      36.710 -25.969 -13.018  0.00  0.00    +0.117 C 
ATOM     22  H   UNL     1      36.789 -28.019 -12.739  0.00  0.00    +0.144 HD
ATOM     23  H   UNL     1      37.061 -27.517 -14.346  0.00  0.00    +0.144 HD
ATOM     24  H   UNL     1      36.372 -26.439 -11.099  0.00  0.00    +0.188 HD
ENDBRANCH  18  21
ENDBRANCH  12  13
ENDBRANCH   9  12
ENDBRANCH   3  10
BRANCH   7  25
ATOM     25  C   UNL     1      33.692 -22.795 -18.298  0.00  0.00    +0.006 C 
BRANCH  25  26
ATOM     26  N   UNL     1      32.506 -23.520 -17.870  0.00  0.00    +0.391 N 
ATOM     27  H   UNL     1      31.721 -23.261 -18.467  0.00  0.00    -0.084 HD
ATOM     28  H   UNL     1      32.689 -24.521 -17.941  0.00  0.00    -0.084 HD
BRANCH  26  29
ATOM     29  C   UNL     1      32.179 -23.196 -16.477  0.00  0.00    -0.061 C 
ATOM     30  C   UNL     1      30.694 -22.836 -16.347  0.00  0.00    -0.021 C 
ATOM     31  C   UNL     1      32.701 -24.321 -15.571  0.00  0.00    -0.021 C 
ATOM     32  C   UNL     1      32.257 -24.228 -14.109  0.00  0.00    -0.002 C 
ATOM     33  C   UNL     1      29.669 -23.918 -16.689  0.00  0.00    -0.002 C 
ATOM     34  C   UNL     1      31.142 -25.203 -13.722  0.00  0.00    -0.000 C 
ATOM     35  C   UNL     1      29.660 -25.180 -15.828  0.00  0.00    -0.000 C 
ATOM     36  C   UNL     1      29.758 -24.941 -14.321  0.00  0.00    -0.000 C 
ENDBRANCH  26  29
ENDBRANCH  25  26
ENDBRANCH   7  25
TORSDOF 7
ENDMDL
MODEL 6
REMARK VINA RESULT:      -9.0      2.341      5.434
REMARK  Name = 46937030
REMARK  7 active torsions:
REMARK  status: ('A' for Active; 'I' for Inactive)
REMARK    1  A    between atoms: C_3  and  C_10
REMARK    2  A    between atoms: C_7  and  C_25
REMARK    3  A    between atoms: N_9  and  C_12
REMARK    4  A    between atoms: C_12  and  C_13
REMARK    5  A    between atoms: C_18  and  C_21
REMARK    6  A    between atoms: C_25  and  N_26
REMARK    7  A    between atoms: N_26  and  C_29
REMARK                            x       y       z     vdW  Elec       q    Type
REMARK                         _______ _______ _______ _____ _____    ______ ____
ROOT
ATOM      1  O   UNL     1      32.581 -23.442 -14.580  0.00  0.00    -0.277 OA
ATOM      2  N   UNL     1      33.260 -23.227 -16.777  0.00  0.00    -0.275 N 
ATOM      3  C   UNL     1      34.176 -23.469 -17.891  0.00  0.00    +0.152 C 
ATOM      4  C   UNL     1      33.298 -23.373 -19.134  0.00  0.00    +0.031 C 
ATOM      5  C   UNL     1      31.979 -22.722 -17.253  0.00  0.00    +0.094 C 
ATOM      6  C   UNL     1      32.202 -22.394 -18.721  0.00  0.00    +0.024 C 
ATOM      7  C   UNL     1      33.453 -23.551 -15.444  0.00  0.00    +0.204 C 
ENDROOT
BRANCH   3  10
ATOM      8  O   UNL     1      35.663 -21.924 -16.840  0.00  0.00    -0.273 OA
ATOM      9  N   UNL     1      35.540 -21.969 -19.164  0.00  0.00    -0.299 N 
ATOM     10  C   UNL     1      35.207 -22.381 -17.885  0.00  0.00    +0.241 C 
ATOM     11  H   UNL     1      35.107 -22.413 -19.928  0.00  0.00    +0.150 HD
BRANCH   9  12
ATOM     12  C   UNL     1      36.494 -20.917 -19.433  0.00  0.00    +0.116 C 
BRANCH  12  13
ATOM     13  C   UNL     1      36.093 -20.083 -20.615  0.00  0.00    -0.003 C 
ATOM     14  C   UNL     1      34.812 -20.211 -21.155  0.00  0.00    -0.003 C 
ATOM     15  C   UNL     1      36.999 -19.182 -21.174  0.00  0.00    -0.003 C 
ATOM     16  C   UNL     1      34.438 -19.436 -22.254  0.00  0.00    +0.002 C 
ATOM     17  C   UNL     1      36.625 -18.408 -22.273  0.00  0.00    +0.002 C 
ATOM     18  C   UNL     1      35.345 -18.535 -22.812  0.00  0.00    +0.031 C 
BRANCH  18  21
ATOM     19  N   UNL     1      35.432 -16.428 -24.123  0.00  0.00    -0.343 N 
ATOM     20  N   UNL     1      34.129 -18.221 -24.861  0.00  0.00    -0.285 NA
ATOM     21  C   UNL     1      34.955 -17.727 -23.956  0.00  0.00    +0.117 C 
ATOM     22  H   UNL     1      35.156 -15.899 -24.906  0.00  0.00    +0.144 HD
ATOM     23  H   UNL     1      36.046 -16.040 -23.459  0.00  0.00    +0.144 HD
ATOM     24  H   UNL     1      33.864 -17.676 -25.637  0.00  0.00    +0.188 HD
ENDBRANCH  18  21
ENDBRANCH  12  13
ENDBRANCH   9  12
ENDBRANCH   3  10
BRANCH   7  25
ATOM     25  C   UNL     1      34.822 -24.065 -15.077  0.00  0.00    +0.006 C 
BRANCH  25  26
ATOM     26  N   UNL     1      35.354 -23.169 -14.063  0.00  0.00    +0.391 N 
ATOM     27  H   UNL     1      35.024 -22.221 -14.246  0.00  0.00    -0.084 HD
ATOM     28  H   UNL     1      35.034 -23.483 -13.147  0.00  0.00    -0.084 HD
BRANCH  26  29
ATOM     29  C   UNL     1      36.820 -23.181 -14.082  0.00  0.00    -0.061 C 
ATOM     30  C   UNL     1      37.370 -23.565 -12.702  0.00  0.00    -0.021 C 
ATOM     31  C   UNL     1      37.294 -24.025 -15.276  0.00  0.00    -0.021 C 
ATOM     32  C   UNL     1      38.798 -24.301 -15.311  0.00  0.00    -0.002 C 
ATOM     33  C   UNL     1      37.030 -24.956 -12.166  0.00  0.00    -0.002 C 
ATOM     34  C   UNL     1      39.194 -25.715 -14.880  0.00  0.00    -0.000 C 
ATOM     35  C   UNL     1      37.553 -26.161 -12.947  0.00  0.00    -0.000 C 
ATOM     36  C   UNL     1      39.010 -26.062 -13.401  0.00  0.00    -0.000 C 
ENDBRANCH  26  29
ENDBRANCH  25  26
ENDBRANCH   7  25
TORSDOF 7
ENDMDL
MODEL 7
REMARK VINA RESULT:      -9.0      7.688     13.425
REMARK  Name = 46937030
REMARK  7 active torsions:
REMARK  status: ('A' for Active; 'I' for Inactive)
REMARK    1  A    between atoms: C_3  and  C_10
REMARK    2  A    between atoms: C_7  and  C_25
REMARK    3  A    between atoms: N_9  and  C_12
REMARK    4  A    between atoms: C_12  and  C_13
REMARK    5  A    between atoms: C_18  and  C_21
REMARK    6  A    between atoms: C_25  and  N_26
REMARK    7  A    between atoms: N_26  and  C_29
REMARK                            x       y       z     vdW  Elec       q    Type
REMARK                         _______ _______ _______ _____ _____    ______ ____
ROOT
ATOM      1  O   UNL     1      31.526 -11.800 -23.262  0.00  0.00    -0.277 OA
ATOM      2  N   UNL     1      32.962 -13.313 -22.269  0.00  0.00    -0.275 N 
ATOM      3  C   UNL     1      34.254 -13.978 -22.113  0.00  0.00    +0.152 C 
ATOM      4  C   UNL     1      34.282 -14.420 -20.653  0.00  0.00    +0.031 C 
ATOM      5  C   UNL     1      32.103 -13.561 -21.118  0.00  0.00    +0.094 C 
ATOM      6  C   UNL     1      32.809 -14.647 -20.323  0.00  0.00    +0.024 C 
ATOM      7  C   UNL     1      32.586 -12.429 -23.268  0.00  0.00    +0.204 C 
ENDROOT
BRANCH   3  10
ATOM      8  O   UNL     1      33.698 -15.162 -24.110  0.00  0.00    -0.273 OA
ATOM      9  N   UNL     1      34.986 -16.226 -22.489  0.00  0.00    -0.299 N 
ATOM     10  C   UNL     1      34.276 -15.166 -23.026  0.00  0.00    +0.241 C 
ATOM     11  H   UNL     1      35.408 -16.110 -21.607  0.00  0.00    +0.150 HD
BRANCH   9  12
ATOM     12  C   UNL     1      35.139 -17.497 -23.161  0.00  0.00    +0.116 C 
BRANCH  12  13
ATOM     13  C   UNL     1      35.231 -18.639 -22.189  0.00  0.00    -0.003 C 
ATOM     14  C   UNL     1      36.450 -18.940 -21.582  0.00  0.00    -0.003 C 
ATOM     15  C   UNL     1      34.098 -19.397 -21.895  0.00  0.00    -0.003 C 
ATOM     16  C   UNL     1      36.536 -20.000 -20.679  0.00  0.00    +0.002 C 
ATOM     17  C   UNL     1      34.184 -20.457 -20.992  0.00  0.00    +0.002 C 
ATOM     18  C   UNL     1      35.403 -20.758 -20.384  0.00  0.00    +0.031 C 
BRANCH  18  21
ATOM     19  N   UNL     1      36.488 -21.907 -18.468  0.00  0.00    -0.343 N 
ATOM     20  N   UNL     1      34.619 -22.853 -19.504  0.00  0.00    -0.285 NA
ATOM     21  C   UNL     1      35.491 -21.863 -19.442  0.00  0.00    +0.117 C 
ATOM     22  H   UNL     1      36.529 -22.665 -17.841  0.00  0.00    +0.144 HD
ATOM     23  H   UNL     1      37.149 -21.181 -18.408  0.00  0.00    +0.144 HD
ATOM     24  H   UNL     1      34.678 -23.602 -18.868  0.00  0.00    +0.188 HD
ENDBRANCH  18  21
ENDBRANCH  12  13
ENDBRANCH   9  12
ENDBRANCH   3  10
BRANCH   7  25
ATOM     25  C   UNL     1      33.562 -12.258 -24.404  0.00  0.00    +0.006 C 
BRANCH  25  26
ATOM     26  N   UNL     1      34.393 -11.110 -24.081  0.00  0.00    +0.391 N 
ATOM     27  H   UNL     1      34.226 -10.836 -23.112  0.00  0.00    -0.084 HD
ATOM     28  H   UNL     1      35.372 -11.365 -24.211  0.00  0.00    -0.084 HD
BRANCH  26  29
ATOM     29  C   UNL     1      34.078  -9.981 -24.962  0.00  0.00    -0.061 C 
ATOM     30  C   UNL     1      32.860  -9.213 -24.432  0.00  0.00    -0.021 C 
ATOM     31  C   UNL     1      35.358  -9.167 -25.204  0.00  0.00    -0.021 C 
ATOM     32  C   UNL     1      35.148  -7.841 -25.938  0.00  0.00    -0.002 C 
ATOM     33  C   UNL     1      32.984  -8.545 -23.062  0.00  0.00    -0.002 C 
ATOM     34  C   UNL     1      35.206  -6.602 -25.041  0.00  0.00    -0.000 C 
ATOM     35  C   UNL     1      34.021  -7.432 -22.910  0.00  0.00    -0.000 C 
ATOM     36  C   UNL     1      34.054  -6.413 -24.050  0.00  0.00    -0.000 C 
ENDBRANCH  26  29
ENDBRANCH  25  26
ENDBRANCH   7  25
TORSDOF 7
ENDMDL
MODEL 8
REMARK VINA RESULT:      -8.9     11.533     17.190
REMARK  Name = 46937030
REMARK  7 active torsions:
REMARK  status: ('A' for Active; 'I' for Inactive)
REMARK    1  A    between atoms: C_3  and  C_10
REMARK    2  A    between atoms: C_7  and  C_25
REMARK    3  A    between atoms: N_9  and  C_12
REMARK    4  A    between atoms: C_12  and  C_13
REMARK    5  A    between atoms: C_18  and  C_21
REMARK    6  A    between atoms: C_25  and  N_26
REMARK    7  A    between atoms: N_26  and  C_29
REMARK                            x       y       z     vdW  Elec       q    Type
REMARK                         _______ _______ _______ _____ _____    ______ ____
ROOT
ATOM      1  O   UNL     1      35.748  -7.054 -23.676  0.00  0.00    -0.277 OA
ATOM      2  N   UNL     1      34.417  -8.673 -24.648  0.00  0.00    -0.275 N 
ATOM      3  C   UNL     1      33.130  -9.232 -25.058  0.00  0.00    +0.152 C 
ATOM      4  C   UNL     1      33.465 -10.125 -26.249  0.00  0.00    +0.031 C 
ATOM      5  C   UNL     1      35.521  -9.362 -25.304  0.00  0.00    +0.094 C 
ATOM      6  C   UNL     1      34.893 -10.581 -25.960  0.00  0.00    +0.024 C 
ATOM      7  C   UNL     1      34.635  -7.547 -23.870  0.00  0.00    +0.204 C 
ENDROOT
BRANCH   3  10
ATOM      8  O   UNL     1      31.773  -9.594 -23.128  0.00  0.00    -0.273 OA
ATOM      9  N   UNL     1      33.154 -11.313 -23.874  0.00  0.00    -0.299 N 
ATOM     10  C   UNL     1      32.596 -10.046 -23.919  0.00  0.00    +0.241 C 
ATOM     11  H   UNL     1      33.807 -11.563 -24.568  0.00  0.00    +0.150 HD
BRANCH   9  12
ATOM     12  C   UNL     1      32.824 -12.287 -22.858  0.00  0.00    +0.116 C 
BRANCH  12  13
ATOM     13  C   UNL     1      33.372 -13.646 -23.185  0.00  0.00    -0.003 C 
ATOM     14  C   UNL     1      34.089 -14.358 -22.223  0.00  0.00    -0.003 C 
ATOM     15  C   UNL     1      33.165 -14.196 -24.450  0.00  0.00    -0.003 C 
ATOM     16  C   UNL     1      34.598 -15.621 -22.526  0.00  0.00    +0.002 C 
ATOM     17  C   UNL     1      33.675 -15.459 -24.753  0.00  0.00    +0.002 C 
ATOM     18  C   UNL     1      34.391 -16.172 -23.791  0.00  0.00    +0.031 C 
BRANCH  18  21
ATOM     19  N   UNL     1      35.978 -18.037 -23.383  0.00  0.00    -0.343 N 
ATOM     20  N   UNL     1      34.401 -18.187 -25.101  0.00  0.00    -0.285 NA
ATOM     21  C   UNL     1      34.921 -17.488 -24.106  0.00  0.00    +0.117 C 
ATOM     22  H   UNL     1      36.321 -18.930 -23.614  0.00  0.00    +0.144 HD
ATOM     23  H   UNL     1      36.381 -17.532 -22.641  0.00  0.00    +0.144 HD
ATOM     24  H   UNL     1      34.759 -19.078 -25.316  0.00  0.00    +0.188 HD
ENDBRANCH  18  21
ENDBRANCH  12  13
ENDBRANCH   9  12
ENDBRANCH   3  10
BRANCH   7  25
ATOM     25  C   UNL     1      33.412  -6.924 -23.247  0.00  0.00    +0.006 C 
BRANCH  25  26
ATOM     26  N   UNL     1      33.362  -5.542 -23.697  0.00  0.00    +0.391 N 
ATOM     27  H   UNL     1      32.703  -5.024 -23.116  0.00  0.00    -0.084 HD
ATOM     28  H   UNL     1      34.295  -5.137 -23.618  0.00  0.00    -0.084 HD
BRANCH  26  29
ATOM     29  C   UNL     1      32.932  -5.471 -25.097  0.00  0.00    -0.061 C 
ATOM     30  C   UNL     1      31.403  -5.377 -25.182  0.00  0.00    -0.021 C 
ATOM     31  C   UNL     1      33.734  -4.370 -25.807  0.00  0.00    -0.021 C 
ATOM     32  C   UNL     1      33.255  -4.036 -27.221  0.00  0.00    -0.002 C 
ATOM     33  C   UNL     1      30.733  -4.150 -24.562  0.00  0.00    -0.002 C 
ATOM     34  C   UNL     1      32.455  -2.736 -27.329  0.00  0.00    -0.000 C 
ATOM     35  C   UNL     1      31.065  -2.785 -25.162  0.00  0.00    -0.000 C 
ATOM     36  C   UNL     1      31.064  -2.727 -26.690  0.00  0.00    -0.000 C 
ENDBRANCH  26  29
ENDBRANCH  25  26
ENDBRANCH   7  25
TORSDOF 7
ENDMDL
MODEL 9
REMARK VINA RESULT:      -8.8      2.341      7.607
REMARK  Name = 46937030
REMARK  7 active torsions:
REMARK  status: ('A' for Active; 'I' for Inactive)
REMARK    1  A    between atoms: C_3  and  C_10
REMARK    2  A    between atoms: C_7  and  C_25
REMARK    3  A    between atoms: N_9  and  C_12
REMARK    4  A    between atoms: C_12  and  C_13
REMARK    5  A    between atoms: C_18  and  C_21
REMARK    6  A    between atoms: C_25  and  N_26
REMARK    7  A    between atoms: N_26  and  C_29
REMARK                            x       y       z     vdW  Elec       q    Type
REMARK                         _______ _______ _______ _____ _____    ______ ____
ROOT
ATOM      1  O   UNL     1      32.363 -24.238 -18.182  0.00  0.00    -0.277 OA
ATOM      2  N   UNL     1      31.973 -23.645 -15.984  0.00  0.00    -0.275 N 
ATOM      3  C   UNL     1      32.359 -23.061 -14.701  0.00  0.00    +0.152 C 
ATOM      4  C   UNL     1      31.042 -22.614 -14.074  0.00  0.00    +0.031 C 
ATOM      5  C   UNL     1      30.531 -23.841 -16.058  0.00  0.00    +0.094 C 
ATOM      6  C   UNL     1      30.025 -23.600 -14.645  0.00  0.00    +0.024 C 
ATOM      7  C   UNL     1      32.785 -23.868 -17.085  0.00  0.00    +0.204 C 
ENDROOT
BRANCH   3  10
ATOM      8  O   UNL     1      32.515 -25.261 -13.788  0.00  0.00    -0.273 OA
ATOM      9  N   UNL     1      34.149 -23.696 -13.244  0.00  0.00    -0.299 N 
ATOM     10  C   UNL     1      33.000 -24.137 -13.877  0.00  0.00    +0.241 C 
ATOM     11  H   UNL     1      34.441 -22.767 -13.393  0.00  0.00    +0.150 HD
BRANCH   9  12
ATOM     12  C   UNL     1      34.943 -24.532 -12.372  0.00  0.00    +0.116 C 
BRANCH  12  13
ATOM     13  C   UNL     1      36.232 -24.953 -13.018  0.00  0.00    -0.003 C 
ATOM     14  C   UNL     1      36.209 -25.752 -14.161  0.00  0.00    -0.003 C 
ATOM     15  C   UNL     1      37.450 -24.545 -12.475  0.00  0.00    -0.003 C 
ATOM     16  C   UNL     1      37.406 -26.143 -14.762  0.00  0.00    +0.002 C 
ATOM     17  C   UNL     1      38.647 -24.936 -13.075  0.00  0.00    +0.002 C 
ATOM     18  C   UNL     1      38.625 -25.735 -14.219  0.00  0.00    +0.031 C 
BRANCH  18  21
ATOM     19  N   UNL     1      40.850 -26.834 -14.131  0.00  0.00    -0.343 N 
ATOM     20  N   UNL     1      40.099 -25.851 -16.114  0.00  0.00    -0.285 NA
ATOM     21  C   UNL     1      39.873 -26.142 -14.845  0.00  0.00    +0.117 C 
ATOM     22  H   UNL     1      41.687 -27.100 -14.576  0.00  0.00    +0.144 HD
ATOM     23  H   UNL     1      40.702 -27.057 -13.184  0.00  0.00    +0.144 HD
ATOM     24  H   UNL     1      40.943 -26.125 -16.539  0.00  0.00    +0.188 HD
ENDBRANCH  18  21
ENDBRANCH  12  13
ENDBRANCH   9  12
ENDBRANCH   3  10
BRANCH   7  25
ATOM     25  C   UNL     1      34.259 -23.629 -16.881  0.00  0.00    +0.006 C 
BRANCH  25  26
ATOM     26  N   UNL     1      34.551 -22.303 -17.403  0.00  0.00    +0.391 N 
ATOM     27  H   UNL     1      33.678 -21.784 -17.507  0.00  0.00    -0.084 HD
ATOM     28  H   UNL     1      35.171 -21.822 -16.751  0.00  0.00    -0.084 HD
BRANCH  26  29
ATOM     29  C   UNL     1      35.215 -22.397 -18.707  0.00  0.00    -0.061 C 
ATOM     30  C   UNL     1      34.177 -22.562 -19.825  0.00  0.00    -0.021 C 
ATOM     31  C   UNL     1      36.202 -21.229 -18.846  0.00  0.00    -0.021 C 
ATOM     32  C   UNL     1      36.823 -21.073 -20.236  0.00  0.00    -0.002 C 
ATOM     33  C   UNL     1      33.178 -21.425 -20.038  0.00  0.00    -0.002 C 
ATOM     34  C   UNL     1      36.233 -19.933 -21.070  0.00  0.00    -0.000 C 
ATOM     35  C   UNL     1      33.734 -20.066 -20.462  0.00  0.00    -0.000 C 
ATOM     36  C   UNL     1      34.795 -20.111 -21.563  0.00  0.00    -0.000 C 
ENDBRANCH  26  29
ENDBRANCH  25  26
ENDBRANCH   7  25
TORSDOF 7
ENDMDL
