MODEL 1
REMARK VINA RESULT:     -12.3      0.000      0.000
REMARK  Name = 25184541
REMARK  4 active torsions:
REMARK  status: ('A' for Active; 'I' for Inactive)
REMARK    1  A    between atoms: C_4  and  N_19
REMARK    2  A    between atoms: C_5  and  N_11
REMARK    3  A    between atoms: C_20  and  C_23
REMARK    4  A    between atoms: C_23  and  N_25
REMARK                            x       y       z     vdW  Elec       q    Type
REMARK                         _______ _______ _______ _____ _____    ______ ____
ROOT
ATOM      1  F   UNL     1      32.126 -21.711 -19.277  0.00  0.00    -0.200 F 
ATOM      2  F   UNL     1      32.264 -19.992 -21.375  0.00  0.00    -0.200 F 
ATOM      3  F   UNL     1      37.006 -20.049 -21.109  0.00  0.00    -0.203 F 
ATOM      4  C   UNL     1      34.495 -21.764 -19.116  0.00  0.00    +0.089 C 
ATOM      5  C   UNL     1      34.636 -19.997 -21.270  0.00  0.00    +0.110 C 
ATOM      6  C   UNL     1      33.325 -21.307 -19.721  0.00  0.00    +0.182 C 
ATOM      7  C   UNL     1      35.737 -21.337 -19.588  0.00  0.00    +0.048 C 
ATOM      8  C   UNL     1      33.396 -20.423 -20.799  0.00  0.00    +0.184 C 
ATOM      9  C   UNL     1      35.807 -20.454 -20.664  0.00  0.00    +0.157 C 
ENDROOT
BRANCH   5  11
ATOM     10  O   UNL     1      34.857 -16.456 -25.464  0.00  0.00    -0.291 OA
ATOM     11  N   UNL     1      34.709 -19.095 -22.364  0.00  0.00    -0.282 N 
ATOM     12  C   UNL     1      35.378 -17.802 -22.137  0.00  0.00    +0.104 C 
ATOM     13  C   UNL     1      34.827 -16.730 -23.075  0.00  0.00    +0.091 C 
ATOM     14  C   UNL     1      34.349 -19.439 -23.659  0.00  0.00    +0.068 C 
ATOM     15  C   UNL     1      34.727 -17.215 -24.506  0.00  0.00    +0.176 C 
ATOM     16  C   UNL     1      34.366 -18.634 -24.725  0.00  0.00    +0.054 C 
ENDBRANCH   5  11
BRANCH   4  19
ATOM     17  O   UNL     1      34.911 -23.801 -16.128  0.00  0.00    -0.434 OA
ATOM     18  O   UNL     1      36.414 -22.244 -16.806  0.00  0.00    -0.226 OA
ATOM     19  N   UNL     1      34.426 -22.666 -18.017  0.00  0.00    -0.219 N 
ATOM     20  C   UNL     1      33.562 -24.149 -16.465  0.00  0.00    +0.210 C 
ATOM     21  C   UNL     1      33.390 -23.656 -17.886  0.00  0.00    +0.147 C 
ATOM     22  C   UNL     1      35.350 -22.819 -16.987  0.00  0.00    +0.409 C 
BRANCH  20  23
ATOM     23  C   UNL     1      32.619 -23.473 -15.478  0.00  0.00    +0.134 C 
BRANCH  23  25
ATOM     24  O   UNL     1      28.794 -22.722 -17.334  0.00  0.00    -0.349 OA
ATOM     25  N   UNL     1      31.366 -24.184 -15.429  0.00  0.00    -0.312 N 
ATOM     26  N   UNL     1      30.109 -22.704 -16.886  0.00  0.00    -0.062 NA
ATOM     27  C   UNL     1      30.224 -23.783 -16.105  0.00  0.00    +0.171 C 
ATOM     28  C   UNL     1      29.026 -24.512 -16.025  0.00  0.00    +0.081 C 
ATOM     29  C   UNL     1      28.159 -23.805 -16.815  0.00  0.00    +0.215 C 
ATOM     30  H   UNL     1      31.319 -25.003 -14.883  0.00  0.00    +0.148 HD
ENDBRANCH  23  25
ENDBRANCH  20  23
ENDBRANCH   4  19
TORSDOF 4
ENDMDL
MODEL 2
REMARK VINA RESULT:     -11.7      0.558      2.000
REMARK  Name = 25184541
REMARK  4 active torsions:
REMARK  status: ('A' for Active; 'I' for Inactive)
REMARK    1  A    between atoms: C_4  and  N_19
REMARK    2  A    between atoms: C_5  and  N_11
REMARK    3  A    between atoms: C_20  and  C_23
REMARK    4  A    between atoms: C_23  and  N_25
REMARK                            x       y       z     vdW  Elec       q    Type
REMARK                         _______ _______ _______ _____ _____    ______ ____
ROOT
ATOM      1  F   UNL     1      36.680 -21.805 -19.057  0.00  0.00    -0.200 F 
ATOM      2  F   UNL     1      36.814 -20.040 -21.118  0.00  0.00    -0.200 F 
ATOM      3  F   UNL     1      32.070 -19.937 -21.335  0.00  0.00    -0.203 F 
ATOM      4  C   UNL     1      34.307 -21.776 -19.138  0.00  0.00    +0.089 C 
ATOM      5  C   UNL     1      34.444 -19.965 -21.255  0.00  0.00    +0.110 C 
ATOM      6  C   UNL     1      35.548 -21.351 -19.612  0.00  0.00    +0.182 C 
ATOM      7  C   UNL     1      33.135 -21.296 -19.722  0.00  0.00    +0.048 C 
ATOM      8  C   UNL     1      35.616 -20.444 -20.671  0.00  0.00    +0.184 C 
ATOM      9  C   UNL     1      33.204 -20.391 -20.780  0.00  0.00    +0.157 C 
ENDROOT
BRANCH   5  11
ATOM     10  O   UNL     1      34.767 -16.462 -25.474  0.00  0.00    -0.291 OA
ATOM     11  N   UNL     1      34.513 -19.046 -22.334  0.00  0.00    -0.282 N 
ATOM     12  C   UNL     1      33.840 -19.420 -23.590  0.00  0.00    +0.104 C 
ATOM     13  C   UNL     1      34.512 -18.754 -24.790  0.00  0.00    +0.091 C 
ATOM     14  C   UNL     1      35.017 -17.760 -22.207  0.00  0.00    +0.068 C 
ATOM     15  C   UNL     1      34.773 -17.280 -24.557  0.00  0.00    +0.176 C 
ATOM     16  C   UNL     1      35.136 -16.857 -23.185  0.00  0.00    +0.054 C 
ENDBRANCH   5  11
BRANCH   4  19
ATOM     17  O   UNL     1      34.711 -23.870 -16.187  0.00  0.00    -0.434 OA
ATOM     18  O   UNL     1      36.214 -22.297 -16.825  0.00  0.00    -0.226 OA
ATOM     19  N   UNL     1      34.234 -22.700 -18.056  0.00  0.00    -0.219 N 
ATOM     20  C   UNL     1      33.364 -24.215 -16.539  0.00  0.00    +0.210 C 
ATOM     21  C   UNL     1      33.200 -23.695 -17.951  0.00  0.00    +0.147 C 
ATOM     22  C   UNL     1      35.152 -22.871 -17.024  0.00  0.00    +0.409 C 
BRANCH  20  23
ATOM     23  C   UNL     1      32.413 -23.560 -15.544  0.00  0.00    +0.134 C 
BRANCH  23  25
ATOM     24  O   UNL     1      28.640 -22.577 -17.397  0.00  0.00    -0.349 OA
ATOM     25  N   UNL     1      31.142 -24.237 -15.562  0.00  0.00    -0.312 N 
ATOM     26  N   UNL     1      29.948 -22.627 -16.930  0.00  0.00    -0.062 NA
ATOM     27  C   UNL     1      30.021 -23.759 -16.224  0.00  0.00    +0.171 C 
ATOM     28  C   UNL     1      28.803 -24.458 -16.211  0.00  0.00    +0.081 C 
ATOM     29  C   UNL     1      27.968 -23.674 -16.962  0.00  0.00    +0.215 C 
ATOM     30  H   UNL     1      31.064 -25.090 -15.074  0.00  0.00    +0.148 HD
ENDBRANCH  23  25
ENDBRANCH  20  23
ENDBRANCH   4  19
TORSDOF 4
ENDMDL
MODEL 3
REMARK VINA RESULT:     -11.3      2.452      3.347
REMARK  Name = 25184541
REMARK  4 active torsions:
REMARK  status: ('A' for Active; 'I' for Inactive)
REMARK    1  A    between atoms: C_4  and  N_19
REMARK    2  A    between atoms: C_5  and  N_11
REMARK    3  A    between atoms: C_20  and  C_23
REMARK    4  A    between atoms: C_23  and  N_25
REMARK                            x       y       z     vdW  Elec       q    Type
REMARK                         _______ _______ _______ _____ _____    ______ ____
ROOT
ATOM      1  F   UNL     1      32.645 -21.865 -19.160  0.00  0.00    -0.200 F 
ATOM      2  F   UNL     1      32.507 -20.145 -21.258  0.00  0.00    -0.200 F 
ATOM      3  F   UNL     1      37.237 -19.716 -21.218  0.00  0.00    -0.203 F 
ATOM      4  C   UNL     1      35.012 -21.674 -19.112  0.00  0.00    +0.089 C 
ATOM      5  C   UNL     1      34.870 -19.907 -21.265  0.00  0.00    +0.110 C 
ATOM      6  C   UNL     1      33.774 -21.340 -19.660  0.00  0.00    +0.182 C 
ATOM      7  C   UNL     1      36.180 -21.124 -19.641  0.00  0.00    +0.048 C 
ATOM      8  C   UNL     1      33.703 -20.457 -20.737  0.00  0.00    +0.184 C 
ATOM      9  C   UNL     1      36.108 -20.240 -20.717  0.00  0.00    +0.157 C 
ENDROOT
BRANCH   5  11
ATOM     10  O   UNL     1      34.531 -16.369 -25.455  0.00  0.00    -0.291 OA
ATOM     11  N   UNL     1      34.798 -19.005 -22.360  0.00  0.00    -0.282 N 
ATOM     12  C   UNL     1      35.390 -17.668 -22.179  0.00  0.00    +0.104 C 
ATOM     13  C   UNL     1      34.698 -16.639 -23.071  0.00  0.00    +0.091 C 
ATOM     14  C   UNL     1      34.367 -19.377 -23.625  0.00  0.00    +0.068 C 
ATOM     15  C   UNL     1      34.525 -17.133 -24.492  0.00  0.00    +0.176 C 
ATOM     16  C   UNL     1      34.249 -18.575 -24.688  0.00  0.00    +0.054 C 
ENDBRANCH   5  11
BRANCH   4  19
ATOM     17  O   UNL     1      35.846 -23.771 -16.256  0.00  0.00    -0.434 OA
ATOM     18  O   UNL     1      37.318 -22.362 -17.251  0.00  0.00    -0.226 OA
ATOM     19  N   UNL     1      35.088 -22.576 -18.013  0.00  0.00    -0.219 N 
ATOM     20  C   UNL     1      34.429 -23.983 -16.298  0.00  0.00    +0.210 C 
ATOM     21  C   UNL     1      34.011 -23.461 -17.656  0.00  0.00    +0.147 C 
ATOM     22  C   UNL     1      36.188 -22.828 -17.198  0.00  0.00    +0.409 C 
BRANCH  20  23
ATOM     23  C   UNL     1      33.784 -23.228 -15.142  0.00  0.00    +0.134 C 
BRANCH  23  25
ATOM     24  O   UNL     1      34.705 -25.192 -11.409  0.00  0.00    -0.349 OA
ATOM     25  N   UNL     1      34.768 -22.955 -14.125  0.00  0.00    -0.312 N 
ATOM     26  N   UNL     1      34.191 -24.781 -12.633  0.00  0.00    -0.062 NA
ATOM     27  C   UNL     1      34.917 -23.711 -12.972  0.00  0.00    +0.171 C 
ATOM     28  C   UNL     1      35.892 -23.402 -12.009  0.00  0.00    +0.081 C 
ATOM     29  C   UNL     1      35.718 -24.362 -11.048  0.00  0.00    +0.215 C 
ATOM     30  H   UNL     1      35.369 -22.185 -14.256  0.00  0.00    +0.148 HD
ENDBRANCH  23  25
ENDBRANCH  20  23
ENDBRANCH   4  19
TORSDOF 4
ENDMDL
MODEL 4
REMARK VINA RESULT:     -11.2      3.322      9.069
REMARK  Name = 25184541
REMARK  4 active torsions:
REMARK  status: ('A' for Active; 'I' for Inactive)
REMARK    1  A    between atoms: C_4  and  N_19
REMARK    2  A    between atoms: C_5  and  N_11
REMARK    3  A    between atoms: C_20  and  C_23
REMARK    4  A    between atoms: C_23  and  N_25
REMARK                            x       y       z     vdW  Elec       q    Type
REMARK                         _______ _______ _______ _____ _____    ______ ____
ROOT
ATOM      1  F   UNL     1      37.048 -20.926 -18.535  0.00  0.00    -0.200 F 
ATOM      2  F   UNL     1      37.550 -22.312 -16.254  0.00  0.00    -0.200 F 
ATOM      3  F   UNL     1      33.228 -24.268 -16.493  0.00  0.00    -0.203 F 
ATOM      4  C   UNL     1      34.881 -21.886 -18.686  0.00  0.00    +0.089 C 
ATOM      5  C   UNL     1      35.395 -23.308 -16.342  0.00  0.00    +0.110 C 
ATOM      6  C   UNL     1      36.108 -21.743 -18.039  0.00  0.00    +0.182 C 
ATOM      7  C   UNL     1      33.911 -22.740 -18.161  0.00  0.00    +0.048 C 
ATOM      8  C   UNL     1      36.365 -22.455 -16.867  0.00  0.00    +0.184 C 
ATOM      9  C   UNL     1      34.168 -23.450 -16.990  0.00  0.00    +0.157 C 
ENDROOT
BRANCH   5  11
ATOM     10  O   UNL     1      36.450 -26.032 -11.689  0.00  0.00    -0.291 OA
ATOM     11  N   UNL     1      35.655 -24.030 -15.147  0.00  0.00    -0.282 N 
ATOM     12  C   UNL     1      34.991 -23.568 -13.916  0.00  0.00    +0.104 C 
ATOM     13  C   UNL     1      35.813 -23.936 -12.681  0.00  0.00    +0.091 C 
ATOM     14  C   UNL     1      36.346 -25.232 -15.120  0.00  0.00    +0.068 C 
ATOM     15  C   UNL     1      36.288 -25.373 -12.714  0.00  0.00    +0.176 C 
ATOM     16  C   UNL     1      36.649 -25.946 -14.031  0.00  0.00    +0.054 C 
ENDBRANCH   5  11
BRANCH   4  19
ATOM     17  O   UNL     1      33.559 -20.064 -21.547  0.00  0.00    -0.434 OA
ATOM     18  O   UNL     1      32.269 -20.864 -19.862  0.00  0.00    -0.226 OA
ATOM     19  N   UNL     1      34.616 -21.162 -19.883  0.00  0.00    -0.219 N 
ATOM     20  C   UNL     1      34.962 -19.866 -21.769  0.00  0.00    +0.210 C 
ATOM     21  C   UNL     1      35.631 -20.876 -20.861  0.00  0.00    +0.147 C 
ATOM     22  C   UNL     1      33.382 -20.719 -20.350  0.00  0.00    +0.409 C 
BRANCH  20  23
ATOM     23  C   UNL     1      35.316 -18.425 -21.427  0.00  0.00    +0.134 C 
BRANCH  23  25
ATOM     24  O   UNL     1      34.202 -14.288 -21.958  0.00  0.00    -0.349 OA
ATOM     25  N   UNL     1      35.203 -17.599 -22.602  0.00  0.00    -0.312 N 
ATOM     26  N   UNL     1      34.513 -15.557 -21.486  0.00  0.00    -0.062 NA
ATOM     27  C   UNL     1      34.823 -16.265 -22.576  0.00  0.00    +0.171 C 
ATOM     28  C   UNL     1      34.728 -15.503 -23.752  0.00  0.00    +0.081 C 
ATOM     29  C   UNL     1      34.335 -14.268 -23.309  0.00  0.00    +0.215 C 
ATOM     30  H   UNL     1      35.406 -18.007 -23.476  0.00  0.00    +0.148 HD
ENDBRANCH  23  25
ENDBRANCH  20  23
ENDBRANCH   4  19
TORSDOF 4
ENDMDL
MODEL 5
REMARK VINA RESULT:     -11.0      2.509      4.462
REMARK  Name = 25184541
REMARK  4 active torsions:
REMARK  status: ('A' for Active; 'I' for Inactive)
REMARK    1  A    between atoms: C_4  and  N_19
REMARK    2  A    between atoms: C_5  and  N_11
REMARK    3  A    between atoms: C_20  and  C_23
REMARK    4  A    between atoms: C_23  and  N_25
REMARK                            x       y       z     vdW  Elec       q    Type
REMARK                         _______ _______ _______ _____ _____    ______ ____
ROOT
ATOM      1  F   UNL     1      36.725 -21.892 -18.991  0.00  0.00    -0.200 F 
ATOM      2  F   UNL     1      36.913 -20.128 -21.048  0.00  0.00    -0.200 F 
ATOM      3  F   UNL     1      32.176 -20.016 -21.383  0.00  0.00    -0.203 F 
ATOM      4  C   UNL     1      34.354 -21.860 -19.131  0.00  0.00    +0.089 C 
ATOM      5  C   UNL     1      34.547 -20.049 -21.244  0.00  0.00    +0.110 C 
ATOM      6  C   UNL     1      35.607 -21.436 -19.575  0.00  0.00    +0.182 C 
ATOM      7  C   UNL     1      33.198 -21.377 -19.744  0.00  0.00    +0.048 C 
ATOM      8  C   UNL     1      35.703 -20.530 -20.631  0.00  0.00    +0.184 C 
ATOM      9  C   UNL     1      33.295 -20.472 -20.801  0.00  0.00    +0.157 C 
ENDROOT
BRANCH   5  11
ATOM     10  O   UNL     1      34.866 -16.437 -25.371  0.00  0.00    -0.291 OA
ATOM     11  N   UNL     1      34.645 -19.129 -22.321  0.00  0.00    -0.282 N 
ATOM     12  C   UNL     1      35.336 -17.853 -22.065  0.00  0.00    +0.104 C 
ATOM     13  C   UNL     1      34.812 -16.754 -22.988  0.00  0.00    +0.091 C 
ATOM     14  C   UNL     1      34.289 -19.443 -23.624  0.00  0.00    +0.068 C 
ATOM     15  C   UNL     1      34.714 -17.211 -24.428  0.00  0.00    +0.176 C 
ATOM     16  C   UNL     1      34.330 -18.619 -24.676  0.00  0.00    +0.054 C 
ENDBRANCH   5  11
BRANCH   4  19
ATOM     17  O   UNL     1      33.848 -24.644 -16.840  0.00  0.00    -0.434 OA
ATOM     18  O   UNL     1      33.354 -24.732 -19.052  0.00  0.00    -0.226 OA
ATOM     19  N   UNL     1      34.252 -22.784 -18.053  0.00  0.00    -0.219 N 
ATOM     20  C   UNL     1      34.579 -23.759 -15.980  0.00  0.00    +0.210 C 
ATOM     21  C   UNL     1      34.533 -22.423 -16.689  0.00  0.00    +0.147 C 
ATOM     22  C   UNL     1      33.789 -24.096 -18.101  0.00  0.00    +0.409 C 
BRANCH  20  23
ATOM     23  C   UNL     1      35.993 -24.298 -15.807  0.00  0.00    +0.134 C 
BRANCH  23  25
ATOM     24  O   UNL     1      37.853 -22.652 -12.276  0.00  0.00    -0.349 OA
ATOM     25  N   UNL     1      36.161 -24.817 -14.474  0.00  0.00    -0.312 N 
ATOM     26  N   UNL     1      37.341 -22.912 -13.541  0.00  0.00    -0.062 NA
ATOM     27  C   UNL     1      36.799 -24.130 -13.451  0.00  0.00    +0.171 C 
ATOM     28  C   UNL     1      36.937 -24.682 -12.167  0.00  0.00    +0.081 C 
ATOM     29  C   UNL     1      37.606 -23.714 -11.466  0.00  0.00    +0.215 C 
ATOM     30  H   UNL     1      35.803 -25.714 -14.277  0.00  0.00    +0.148 HD
ENDBRANCH  23  25
ENDBRANCH  20  23
ENDBRANCH   4  19
TORSDOF 4
ENDMDL
MODEL 6
REMARK VINA RESULT:     -10.9      3.301      8.957
REMARK  Name = 25184541
REMARK  4 active torsions:
REMARK  status: ('A' for Active; 'I' for Inactive)
REMARK    1  A    between atoms: C_4  and  N_19
REMARK    2  A    between atoms: C_5  and  N_11
REMARK    3  A    between atoms: C_20  and  C_23
REMARK    4  A    between atoms: C_23  and  N_25
REMARK                            x       y       z     vdW  Elec       q    Type
REMARK                         _______ _______ _______ _____ _____    ______ ____
ROOT
ATOM      1  F   UNL     1      32.847 -22.959 -18.642  0.00  0.00    -0.200 F 
ATOM      2  F   UNL     1      33.450 -24.294 -16.355  0.00  0.00    -0.200 F 
ATOM      3  F   UNL     1      37.737 -22.249 -16.292  0.00  0.00    -0.203 F 
ATOM      4  C   UNL     1      34.982 -21.919 -18.641  0.00  0.00    +0.089 C 
ATOM      5  C   UNL     1      35.602 -23.290 -16.293  0.00  0.00    +0.110 C 
ATOM      6  C   UNL     1      34.047 -22.782 -18.071  0.00  0.00    +0.182 C 
ATOM      7  C   UNL     1      36.227 -21.740 -18.037  0.00  0.00    +0.048 C 
ATOM      8  C   UNL     1      34.358 -23.468 -16.896  0.00  0.00    +0.184 C 
ATOM      9  C   UNL     1      36.536 -22.427 -16.864  0.00  0.00    +0.157 C 
ENDROOT
BRANCH   5  11
ATOM     10  O   UNL     1      36.781 -26.069 -11.703  0.00  0.00    -0.291 OA
ATOM     11  N   UNL     1      35.919 -23.991 -15.100  0.00  0.00    -0.282 N 
ATOM     12  C   UNL     1      36.844 -25.133 -15.207  0.00  0.00    +0.104 C 
ATOM     13  C   UNL     1      36.584 -26.152 -14.098  0.00  0.00    +0.091 C 
ATOM     14  C   UNL     1      35.551 -23.549 -13.838  0.00  0.00    +0.068 C 
ATOM     15  C   UNL     1      36.444 -25.499 -12.739  0.00  0.00    +0.176 C 
ATOM     16  C   UNL     1      35.792 -24.171 -12.680  0.00  0.00    +0.054 C 
ENDBRANCH   5  11
BRANCH   4  19
ATOM     17  O   UNL     1      33.546 -20.137 -21.473  0.00  0.00    -0.434 OA
ATOM     18  O   UNL     1      32.329 -20.883 -19.711  0.00  0.00    -0.226 OA
ATOM     19  N   UNL     1      34.668 -21.216 -19.840  0.00  0.00    -0.219 N 
ATOM     20  C   UNL     1      34.939 -19.966 -21.768  0.00  0.00    +0.210 C 
ATOM     21  C   UNL     1      35.638 -20.966 -20.872  0.00  0.00    +0.147 C 
ATOM     22  C   UNL     1      33.419 -20.765 -20.255  0.00  0.00    +0.409 C 
BRANCH  20  23
ATOM     23  C   UNL     1      35.329 -18.522 -21.475  0.00  0.00    +0.134 C 
BRANCH  23  25
ATOM     24  O   UNL     1      34.297 -14.376 -22.092  0.00  0.00    -0.349 OA
ATOM     25  N   UNL     1      35.202 -17.727 -22.670  0.00  0.00    -0.312 N 
ATOM     26  N   UNL     1      34.591 -15.639 -21.593  0.00  0.00    -0.062 NA
ATOM     27  C   UNL     1      34.855 -16.384 -22.671  0.00  0.00    +0.171 C 
ATOM     28  C   UNL     1      34.744 -15.653 -23.865  0.00  0.00    +0.081 C 
ATOM     29  C   UNL     1      34.392 -14.397 -23.447  0.00  0.00    +0.215 C 
ATOM     30  H   UNL     1      35.371 -18.164 -23.537  0.00  0.00    +0.148 HD
ENDBRANCH  23  25
ENDBRANCH  20  23
ENDBRANCH   4  19
TORSDOF 4
ENDMDL
MODEL 7
REMARK VINA RESULT:     -10.4      2.694      5.137
REMARK  Name = 25184541
REMARK  4 active torsions:
REMARK  status: ('A' for Active; 'I' for Inactive)
REMARK    1  A    between atoms: C_4  and  N_19
REMARK    2  A    between atoms: C_5  and  N_11
REMARK    3  A    between atoms: C_20  and  C_23
REMARK    4  A    between atoms: C_23  and  N_25
REMARK                            x       y       z     vdW  Elec       q    Type
REMARK                         _______ _______ _______ _____ _____    ______ ____
ROOT
ATOM      1  F   UNL     1      36.685 -22.042 -18.530  0.00  0.00    -0.200 F 
ATOM      2  F   UNL     1      36.866 -20.398 -20.684  0.00  0.00    -0.200 F 
ATOM      3  F   UNL     1      32.126 -20.232 -20.953  0.00  0.00    -0.203 F 
ATOM      4  C   UNL     1      34.313 -21.981 -18.635  0.00  0.00    +0.089 C 
ATOM      5  C   UNL     1      34.499 -20.294 -20.848  0.00  0.00    +0.110 C 
ATOM      6  C   UNL     1      35.565 -21.602 -19.120  0.00  0.00    +0.182 C 
ATOM      7  C   UNL     1      33.154 -21.516 -19.257  0.00  0.00    +0.048 C 
ATOM      8  C   UNL     1      35.657 -20.758 -20.227  0.00  0.00    +0.184 C 
ATOM      9  C   UNL     1      33.247 -20.673 -20.363  0.00  0.00    +0.157 C 
ENDROOT
BRANCH   5  11
ATOM     10  O   UNL     1      34.915 -17.039 -25.254  0.00  0.00    -0.291 OA
ATOM     11  N   UNL     1      34.593 -19.437 -21.977  0.00  0.00    -0.282 N 
ATOM     12  C   UNL     1      33.900 -19.856 -23.208  0.00  0.00    +0.104 C 
ATOM     13  C   UNL     1      34.587 -19.279 -24.444  0.00  0.00    +0.091 C 
ATOM     14  C   UNL     1      35.141 -18.164 -21.922  0.00  0.00    +0.068 C 
ATOM     15  C   UNL     1      34.899 -17.805 -24.293  0.00  0.00    +0.176 C 
ATOM     16  C   UNL     1      35.285 -17.320 -22.948  0.00  0.00    +0.054 C 
ENDBRANCH   5  11
BRANCH   4  19
ATOM     17  O   UNL     1      33.527 -24.438 -16.066  0.00  0.00    -0.434 OA
ATOM     18  O   UNL     1      32.326 -24.188 -17.974  0.00  0.00    -0.226 OA
ATOM     19  N   UNL     1      34.215 -22.842 -17.505  0.00  0.00    -0.219 N 
ATOM     20  C   UNL     1      34.795 -23.983 -15.577  0.00  0.00    +0.210 C 
ATOM     21  C   UNL     1      35.059 -22.707 -16.348  0.00  0.00    +0.147 C 
ATOM     22  C   UNL     1      33.273 -23.842 -17.280  0.00  0.00    +0.409 C 
BRANCH  20  23
ATOM     23  C   UNL     1      35.837 -25.065 -15.833  0.00  0.00    +0.134 C 
BRANCH  23  25
ATOM     24  O   UNL     1      39.541 -27.011 -14.769  0.00  0.00    -0.349 OA
ATOM     25  N   UNL     1      37.156 -24.549 -15.564  0.00  0.00    -0.312 N 
ATOM     26  N   UNL     1      38.238 -26.675 -15.111  0.00  0.00    -0.062 NA
ATOM     27  C   UNL     1      38.243 -25.344 -15.232  0.00  0.00    +0.171 C 
ATOM     28  C   UNL     1      39.509 -24.791 -14.979  0.00  0.00    +0.081 C 
ATOM     29  C   UNL     1      40.290 -25.880 -14.693  0.00  0.00    +0.215 C 
ATOM     30  H   UNL     1      37.292 -23.575 -15.620  0.00  0.00    +0.148 HD
ENDBRANCH  23  25
ENDBRANCH  20  23
ENDBRANCH   4  19
TORSDOF 4
ENDMDL
MODEL 8
REMARK VINA RESULT:     -10.2      2.747      4.885
REMARK  Name = 25184541
REMARK  4 active torsions:
REMARK  status: ('A' for Active; 'I' for Inactive)
REMARK    1  A    between atoms: C_4  and  N_19
REMARK    2  A    between atoms: C_5  and  N_11
REMARK    3  A    between atoms: C_20  and  C_23
REMARK    4  A    between atoms: C_23  and  N_25
REMARK                            x       y       z     vdW  Elec       q    Type
REMARK                         _______ _______ _______ _____ _____    ______ ____
ROOT
ATOM      1  F   UNL     1      32.388 -21.771 -18.974  0.00  0.00    -0.200 F 
ATOM      2  F   UNL     1      32.436 -20.125 -21.134  0.00  0.00    -0.200 F 
ATOM      3  F   UNL     1      37.185 -20.099 -21.005  0.00  0.00    -0.203 F 
ATOM      4  C   UNL     1      34.761 -21.781 -18.881  0.00  0.00    +0.089 C 
ATOM      5  C   UNL     1      34.811 -20.089 -21.098  0.00  0.00    +0.110 C 
ATOM      6  C   UNL     1      33.566 -21.363 -19.467  0.00  0.00    +0.182 C 
ATOM      7  C   UNL     1      35.981 -21.352 -19.404  0.00  0.00    +0.048 C 
ATOM      8  C   UNL     1      33.591 -20.518 -20.576  0.00  0.00    +0.184 C 
ATOM      9  C   UNL     1      36.006 -20.506 -20.512  0.00  0.00    +0.157 C 
ENDROOT
BRANCH   5  11
ATOM     10  O   UNL     1      34.849 -16.697 -25.419  0.00  0.00    -0.291 OA
ATOM     11  N   UNL     1      34.837 -19.225 -22.225  0.00  0.00    -0.282 N 
ATOM     12  C   UNL     1      35.437 -17.891 -22.045  0.00  0.00    +0.104 C 
ATOM     13  C   UNL     1      34.831 -16.884 -23.022  0.00  0.00    +0.091 C 
ATOM     14  C   UNL     1      34.497 -19.635 -23.505  0.00  0.00    +0.068 C 
ATOM     15  C   UNL     1      34.758 -17.426 -24.434  0.00  0.00    +0.176 C 
ATOM     16  C   UNL     1      34.473 -18.869 -24.601  0.00  0.00    +0.054 C 
ENDBRANCH   5  11
BRANCH   4  19
ATOM     17  O   UNL     1      34.212 -24.311 -16.321  0.00  0.00    -0.434 OA
ATOM     18  O   UNL     1      33.043 -24.214 -18.262  0.00  0.00    -0.226 OA
ATOM     19  N   UNL     1      34.738 -22.645 -17.749  0.00  0.00    -0.219 N 
ATOM     20  C   UNL     1      35.401 -23.702 -15.800  0.00  0.00    +0.210 C 
ATOM     21  C   UNL     1      35.527 -22.405 -16.570  0.00  0.00    +0.147 C 
ATOM     22  C   UNL     1      33.921 -23.753 -17.545  0.00  0.00    +0.409 C 
BRANCH  20  23
ATOM     23  C   UNL     1      36.575 -24.647 -16.022  0.00  0.00    +0.134 C 
BRANCH  23  25
ATOM     24  O   UNL     1      40.503 -26.265 -15.253  0.00  0.00    -0.349 OA
ATOM     25  N   UNL     1      37.357 -24.750 -14.816  0.00  0.00    -0.312 N 
ATOM     26  N   UNL     1      39.299 -25.832 -15.793  0.00  0.00    -0.062 NA
ATOM     27  C   UNL     1      38.624 -25.313 -14.763  0.00  0.00    +0.171 C 
ATOM     28  C   UNL     1      39.345 -25.389 -13.560  0.00  0.00    +0.081 C 
ATOM     29  C   UNL     1      40.519 -25.995 -13.922  0.00  0.00    +0.215 C 
ATOM     30  H   UNL     1      36.968 -24.402 -13.981  0.00  0.00    +0.148 HD
ENDBRANCH  23  25
ENDBRANCH  20  23
ENDBRANCH   4  19
TORSDOF 4
ENDMDL
MODEL 9
REMARK VINA RESULT:     -10.2      5.441     10.915
REMARK  Name = 25184541
REMARK  4 active torsions:
REMARK  status: ('A' for Active; 'I' for Inactive)
REMARK    1  A    between atoms: C_4  and  N_19
REMARK    2  A    between atoms: C_5  and  N_11
REMARK    3  A    between atoms: C_20  and  C_23
REMARK    4  A    between atoms: C_23  and  N_25
REMARK                            x       y       z     vdW  Elec       q    Type
REMARK                         _______ _______ _______ _____ _____    ______ ____
ROOT
ATOM      1  F   UNL     1      33.975 -13.768 -21.537  0.00  0.00    -0.200 F 
ATOM      2  F   UNL     1      34.517 -16.142 -20.334  0.00  0.00    -0.200 F 
ATOM      3  F   UNL     1      35.280 -18.121 -24.584  0.00  0.00    -0.203 F 
ATOM      4  C   UNL     1      34.349 -14.726 -23.678  0.00  0.00    +0.089 C 
ATOM      5  C   UNL     1      34.905 -17.164 -22.442  0.00  0.00    +0.110 C 
ATOM      6  C   UNL     1      34.293 -14.832 -22.289  0.00  0.00    +0.182 C 
ATOM      7  C   UNL     1      34.684 -15.839 -24.450  0.00  0.00    +0.048 C 
ATOM      8  C   UNL     1      34.572 -16.052 -21.671  0.00  0.00    +0.184 C 
ATOM      9  C   UNL     1      34.961 -17.057 -23.832  0.00  0.00    +0.157 C 
ENDROOT
BRANCH   5  11
ATOM     10  O   UNL     1      35.929 -21.950 -19.948  0.00  0.00    -0.291 OA
ATOM     11  N   UNL     1      35.185 -18.406 -21.814  0.00  0.00    -0.282 N 
ATOM     12  C   UNL     1      34.149 -19.451 -21.882  0.00  0.00    +0.104 C 
ATOM     13  C   UNL     1      34.248 -20.397 -20.687  0.00  0.00    +0.091 C 
ATOM     14  C   UNL     1      36.433 -18.738 -21.307  0.00  0.00    +0.068 C 
ATOM     15  C   UNL     1      35.671 -20.848 -20.427  0.00  0.00    +0.176 C 
ATOM     16  C   UNL     1      36.756 -19.874 -20.682  0.00  0.00    +0.054 C 
ENDBRANCH   5  11
BRANCH   4  19
ATOM     17  O   UNL     1      33.313 -11.925 -25.760  0.00  0.00    -0.434 OA
ATOM     18  O   UNL     1      32.841 -14.090 -26.242  0.00  0.00    -0.226 OA
ATOM     19  N   UNL     1      34.067 -13.482 -24.312  0.00  0.00    -0.219 N 
ATOM     20  C   UNL     1      33.807 -11.204 -24.624  0.00  0.00    +0.210 C 
ATOM     21  C   UNL     1      34.600 -12.231 -23.844  0.00  0.00    +0.147 C 
ATOM     22  C   UNL     1      33.355 -13.274 -25.490  0.00  0.00    +0.409 C 
BRANCH  20  23
ATOM     23  C   UNL     1      32.625 -10.642 -23.846  0.00  0.00    +0.134 C 
BRANCH  23  25
ATOM     24  O   UNL     1      32.311  -8.499 -20.111  0.00  0.00    -0.349 OA
ATOM     25  N   UNL     1      32.875  -9.266 -23.498  0.00  0.00    -0.312 N 
ATOM     26  N   UNL     1      32.317  -9.430 -21.142  0.00  0.00    -0.062 NA
ATOM     27  C   UNL     1      32.716  -8.750 -22.221  0.00  0.00    +0.171 C 
ATOM     28  C   UNL     1      32.973  -7.400 -21.934  0.00  0.00    +0.081 C 
ATOM     29  C   UNL     1      32.704  -7.293 -20.595  0.00  0.00    +0.215 C 
ATOM     30  H   UNL     1      33.176  -8.656 -24.211  0.00  0.00    +0.148 HD
ENDBRANCH  23  25
ENDBRANCH  20  23
ENDBRANCH   4  19
TORSDOF 4
ENDMDL
