MODEL 1
REMARK VINA RESULT:     -12.0      0.000      0.000
REMARK  Name = 100472
REMARK  3 active torsions:
REMARK  status: ('A' for Active; 'I' for Inactive)
REMARK    1  A    between atoms: C_1  and  C_13
REMARK    2  A    between atoms: C_2  and  C_7
REMARK    3  A    between atoms: C_13  and  C_16
REMARK                            x       y       z     vdW  Elec       q    Type
REMARK                         _______ _______ _______ _____ _____    ______ ____
ROOT
ATOM      1  C   UNL     1      34.442 -21.728 -19.494  0.00  0.00    -0.013 C 
ATOM      2  C   UNL     1      34.544 -19.765 -21.475  0.00  0.00    -0.000 C 
ATOM      3  C   UNL     1      35.675 -21.269 -19.959  0.00  0.00    -0.004 C 
ATOM      4  C   UNL     1      33.260 -21.205 -20.020  0.00  0.00    -0.004 C 
ATOM      5  C   UNL     1      35.726 -20.288 -20.949  0.00  0.00    -0.000 C 
ATOM      6  C   UNL     1      33.311 -20.224 -21.010  0.00  0.00    -0.000 C 
ENDROOT
BRANCH   2   7
ATOM      7  C   UNL     1      34.597 -18.748 -22.502  0.00  0.00    -0.000 C 
ATOM      8  C   UNL     1      34.127 -19.027 -23.785  0.00  0.00    -0.000 C 
ATOM      9  C   UNL     1      35.118 -17.488 -22.209  0.00  0.00    -0.000 C 
ATOM     10  C   UNL     1      34.178 -18.047 -24.776  0.00  0.00    +0.000 C 
ATOM     11  C   UNL     1      35.169 -16.506 -23.199  0.00  0.00    +0.000 C 
ATOM     12  C   UNL     1      34.698 -16.787 -24.483  0.00  0.00    +0.000 C 
ENDBRANCH   2   7
BRANCH   1  13
ATOM     13  C   UNL     1      34.387 -22.776 -18.435  0.00  0.00    +0.112 C 
BRANCH  13  16
ATOM     14  O   UNL     1      31.988 -22.547 -18.364  0.00  0.00    -0.274 OA
ATOM     15  N   UNL     1      33.092 -23.625 -16.593  0.00  0.00    -0.269 N 
ATOM     16  C   UNL     1      33.005 -22.957 -17.812  0.00  0.00    +0.232 C 
ATOM     17  H   UNL     1      33.997 -23.882 -16.301  0.00  0.00    +0.156 HD
ATOM     18  N   UNL     1      32.338 -24.624 -14.586  0.00  0.00    -0.229 NA
ATOM     19  C   UNL     1      32.032 -23.976 -15.724  0.00  0.00    +0.134 C 
ATOM     20  C   UNL     1      30.759 -23.623 -16.120  0.00  0.00    +0.034 C 
ATOM     21  C   UNL     1      29.711 -23.965 -15.274  0.00  0.00    +0.004 C 
ATOM     22  C   UNL     1      29.974 -24.636 -14.085  0.00  0.00    +0.021 C 
ATOM     23  C   UNL     1      31.293 -24.940 -13.790  0.00  0.00    +0.100 C 
ENDBRANCH  13  16
ENDBRANCH   1  13
TORSDOF 3
ENDMDL
MODEL 2
REMARK VINA RESULT:     -12.0      3.999      9.377
REMARK  Name = 100472
REMARK  3 active torsions:
REMARK  status: ('A' for Active; 'I' for Inactive)
REMARK    1  A    between atoms: C_1  and  C_13
REMARK    2  A    between atoms: C_2  and  C_7
REMARK    3  A    between atoms: C_13  and  C_16
REMARK                            x       y       z     vdW  Elec       q    Type
REMARK                         _______ _______ _______ _____ _____    ______ ____
ROOT
ATOM      1  C   UNL     1      34.960 -20.020 -21.743  0.00  0.00    -0.013 C 
ATOM      2  C   UNL     1      34.294 -21.522 -19.488  0.00  0.00    -0.000 C 
ATOM      3  C   UNL     1      33.622 -20.170 -21.375  0.00  0.00    -0.004 C 
ATOM      4  C   UNL     1      35.964 -20.621 -20.984  0.00  0.00    -0.004 C 
ATOM      5  C   UNL     1      33.290 -20.921 -20.248  0.00  0.00    -0.000 C 
ATOM      6  C   UNL     1      35.631 -21.372 -19.857  0.00  0.00    -0.000 C 
ENDROOT
BRANCH   2   7
ATOM      7  C   UNL     1      33.948 -22.302 -18.319  0.00  0.00    -0.000 C 
ATOM      8  C   UNL     1      34.935 -22.653 -17.399  0.00  0.00    -0.000 C 
ATOM      9  C   UNL     1      32.628 -22.701 -18.114  0.00  0.00    -0.000 C 
ATOM     10  C   UNL     1      34.602 -23.404 -16.272  0.00  0.00    +0.000 C 
ATOM     11  C   UNL     1      32.294 -23.452 -16.986  0.00  0.00    +0.000 C 
ATOM     12  C   UNL     1      33.282 -23.803 -16.065  0.00  0.00    +0.000 C 
ENDBRANCH   2   7
BRANCH   1  13
ATOM     13  C   UNL     1      35.316 -19.217 -22.949  0.00  0.00    +0.112 C 
BRANCH  13  16
ATOM     14  O   UNL     1      35.181 -17.131 -21.747  0.00  0.00    -0.274 OA
ATOM     15  N   UNL     1      34.572 -17.192 -24.014  0.00  0.00    -0.269 N 
ATOM     16  C   UNL     1      35.021 -17.725 -22.809  0.00  0.00    +0.232 C 
ATOM     17  H   UNL     1      34.504 -17.820 -24.770  0.00  0.00    +0.156 HD
ATOM     18  N   UNL     1      33.792 -15.547 -25.524  0.00  0.00    -0.229 NA
ATOM     19  C   UNL     1      34.202 -15.852 -24.280  0.00  0.00    +0.134 C 
ATOM     20  C   UNL     1      34.294 -14.961 -23.233  0.00  0.00    +0.034 C 
ATOM     21  C   UNL     1      33.933 -13.642 -23.484  0.00  0.00    +0.004 C 
ATOM     22  C   UNL     1      33.503 -13.274 -24.754  0.00  0.00    +0.021 C 
ATOM     23  C   UNL     1      33.451 -14.256 -25.731  0.00  0.00    +0.100 C 
ENDBRANCH  13  16
ENDBRANCH   1  13
TORSDOF 3
ENDMDL
MODEL 3
REMARK VINA RESULT:     -11.9      3.948      9.264
REMARK  Name = 100472
REMARK  3 active torsions:
REMARK  status: ('A' for Active; 'I' for Inactive)
REMARK    1  A    between atoms: C_1  and  C_13
REMARK    2  A    between atoms: C_2  and  C_7
REMARK    3  A    between atoms: C_13  and  C_16
REMARK                            x       y       z     vdW  Elec       q    Type
REMARK                         _______ _______ _______ _____ _____    ______ ____
ROOT
ATOM      1  C   UNL     1      34.935 -20.097 -21.666  0.00  0.00    -0.013 C 
ATOM      2  C   UNL     1      34.228 -21.577 -19.408  0.00  0.00    -0.000 C 
ATOM      3  C   UNL     1      35.920 -20.740 -20.916  0.00  0.00    -0.004 C 
ATOM      4  C   UNL     1      33.596 -20.193 -21.286  0.00  0.00    -0.004 C 
ATOM      5  C   UNL     1      35.567 -21.480 -19.788  0.00  0.00    -0.000 C 
ATOM      6  C   UNL     1      33.242 -20.933 -20.158  0.00  0.00    -0.000 C 
ENDROOT
BRANCH   2   7
ATOM      7  C   UNL     1      33.861 -22.344 -18.237  0.00  0.00    -0.000 C 
ATOM      8  C   UNL     1      32.532 -22.713 -18.034  0.00  0.00    -0.000 C 
ATOM      9  C   UNL     1      34.837 -22.713 -17.313  0.00  0.00    -0.000 C 
ATOM     10  C   UNL     1      32.179 -23.453 -16.905  0.00  0.00    +0.000 C 
ATOM     11  C   UNL     1      34.485 -23.454 -16.184  0.00  0.00    +0.000 C 
ATOM     12  C   UNL     1      33.155 -23.823 -15.981  0.00  0.00    +0.000 C 
ENDBRANCH   2   7
BRANCH   1  13
ATOM     13  C   UNL     1      35.312 -19.306 -22.872  0.00  0.00    +0.112 C 
BRANCH  13  16
ATOM     14  O   UNL     1      35.187 -17.207 -21.692  0.00  0.00    -0.274 OA
ATOM     15  N   UNL     1      34.582 -17.288 -23.960  0.00  0.00    -0.269 N 
ATOM     16  C   UNL     1      35.026 -17.812 -22.748  0.00  0.00    +0.232 C 
ATOM     17  H   UNL     1      34.511 -17.924 -24.709  0.00  0.00    +0.156 HD
ATOM     18  N   UNL     1      33.814 -15.655 -25.488  0.00  0.00    -0.229 NA
ATOM     19  C   UNL     1      34.219 -15.949 -24.240  0.00  0.00    +0.134 C 
ATOM     20  C   UNL     1      34.315 -15.047 -23.202  0.00  0.00    +0.034 C 
ATOM     21  C   UNL     1      33.962 -13.730 -23.467  0.00  0.00    +0.004 C 
ATOM     22  C   UNL     1      33.536 -13.372 -24.742  0.00  0.00    +0.021 C 
ATOM     23  C   UNL     1      33.481 -14.363 -25.708  0.00  0.00    +0.100 C 
ENDBRANCH  13  16
ENDBRANCH   1  13
TORSDOF 3
ENDMDL
MODEL 4
REMARK VINA RESULT:     -11.8      5.086      9.055
REMARK  Name = 100472
REMARK  3 active torsions:
REMARK  status: ('A' for Active; 'I' for Inactive)
REMARK    1  A    between atoms: C_1  and  C_13
REMARK    2  A    between atoms: C_2  and  C_7
REMARK    3  A    between atoms: C_13  and  C_16
REMARK                            x       y       z     vdW  Elec       q    Type
REMARK                         _______ _______ _______ _____ _____    ______ ____
ROOT
ATOM      1  C   UNL     1      34.792 -17.110 -23.737  0.00  0.00    -0.013 C 
ATOM      2  C   UNL     1      34.597 -19.187 -21.883  0.00  0.00    -0.000 C 
ATOM      3  C   UNL     1      35.297 -16.944 -22.447  0.00  0.00    -0.004 C 
ATOM      4  C   UNL     1      34.189 -18.315 -24.100  0.00  0.00    -0.004 C 
ATOM      5  C   UNL     1      35.200 -17.982 -21.521  0.00  0.00    -0.000 C 
ATOM      6  C   UNL     1      34.092 -19.353 -23.173  0.00  0.00    -0.000 C 
ENDROOT
BRANCH   2   7
ATOM      7  C   UNL     1      34.496 -20.264 -20.922  0.00  0.00    -0.000 C 
ATOM      8  C   UNL     1      35.651 -20.859 -20.417  0.00  0.00    -0.000 C 
ATOM      9  C   UNL     1      33.242 -20.706 -20.501  0.00  0.00    -0.000 C 
ATOM     10  C   UNL     1      35.553 -21.897 -19.490  0.00  0.00    +0.000 C 
ATOM     11  C   UNL     1      33.143 -21.743 -19.574  0.00  0.00    +0.000 C 
ATOM     12  C   UNL     1      34.299 -22.338 -19.068  0.00  0.00    +0.000 C 
ENDBRANCH   2   7
BRANCH   1  13
ATOM     13  C   UNL     1      34.896 -16.000 -24.728  0.00  0.00    +0.112 C 
BRANCH  13  16
ATOM     14  O   UNL     1      33.744 -13.942 -25.222  0.00  0.00    -0.274 OA
ATOM     15  N   UNL     1      33.720 -14.772 -23.025  0.00  0.00    -0.269 N 
ATOM     16  C   UNL     1      34.054 -14.776 -24.377  0.00  0.00    +0.232 C 
ATOM     17  H   UNL     1      34.058 -15.528 -22.491  0.00  0.00    +0.156 HD
ATOM     18  N   UNL     1      32.748 -13.997 -21.013  0.00  0.00    -0.229 NA
ATOM     19  C   UNL     1      32.953 -13.808 -22.329  0.00  0.00    +0.134 C 
ATOM     20  C   UNL     1      32.472 -12.746 -23.064  0.00  0.00    +0.034 C 
ATOM     21  C   UNL     1      31.716 -11.794 -22.389  0.00  0.00    +0.004 C 
ATOM     22  C   UNL     1      31.475 -11.943 -21.028  0.00  0.00    +0.021 C 
ATOM     23  C   UNL     1      32.008 -13.052 -20.392  0.00  0.00    +0.100 C 
ENDBRANCH  13  16
ENDBRANCH   1  13
TORSDOF 3
ENDMDL
MODEL 5
REMARK VINA RESULT:     -11.8      2.944      3.664
REMARK  Name = 100472
REMARK  3 active torsions:
REMARK  status: ('A' for Active; 'I' for Inactive)
REMARK    1  A    between atoms: C_1  and  C_13
REMARK    2  A    between atoms: C_2  and  C_7
REMARK    3  A    between atoms: C_13  and  C_16
REMARK                            x       y       z     vdW  Elec       q    Type
REMARK                         _______ _______ _______ _____ _____    ______ ____
ROOT
ATOM      1  C   UNL     1      33.512 -22.582 -18.459  0.00  0.00    -0.013 C 
ATOM      2  C   UNL     1      34.374 -20.795 -20.421  0.00  0.00    -0.000 C 
ATOM      3  C   UNL     1      34.875 -22.435 -18.719  0.00  0.00    -0.004 C 
ATOM      4  C   UNL     1      32.580 -21.835 -19.180  0.00  0.00    -0.004 C 
ATOM      5  C   UNL     1      35.305 -21.542 -19.699  0.00  0.00    -0.000 C 
ATOM      6  C   UNL     1      33.011 -20.942 -20.161  0.00  0.00    -0.000 C 
ENDROOT
BRANCH   2   7
ATOM      7  C   UNL     1      34.820 -19.868 -21.438  0.00  0.00    -0.000 C 
ATOM      8  C   UNL     1      36.074 -19.267 -21.333  0.00  0.00    -0.000 C 
ATOM      9  C   UNL     1      33.996 -19.576 -22.524  0.00  0.00    -0.000 C 
ATOM     10  C   UNL     1      36.505 -18.374 -22.314  0.00  0.00    +0.000 C 
ATOM     11  C   UNL     1      34.426 -18.683 -23.506  0.00  0.00    +0.000 C 
ATOM     12  C   UNL     1      35.681 -18.083 -23.400  0.00  0.00    +0.000 C 
ENDBRANCH   2   7
BRANCH   1  13
ATOM     13  C   UNL     1      33.051 -23.538 -17.411  0.00  0.00    +0.112 C 
BRANCH  13  16
ATOM     14  O   UNL     1      34.122 -22.755 -15.398  0.00  0.00    -0.274 OA
ATOM     15  N   UNL     1      34.657 -24.885 -16.230  0.00  0.00    -0.269 N 
ATOM     16  C   UNL     1      34.000 -23.657 -16.221  0.00  0.00    +0.232 C 
ATOM     17  H   UNL     1      34.434 -25.492 -16.973  0.00  0.00    +0.156 HD
ATOM     18  N   UNL     1      36.123 -26.588 -15.493  0.00  0.00    -0.229 NA
ATOM     19  C   UNL     1      35.607 -25.362 -15.296  0.00  0.00    +0.134 C 
ATOM     20  C   UNL     1      35.927 -24.524 -14.249  0.00  0.00    +0.034 C 
ATOM     21  C   UNL     1      36.859 -24.984 -13.326  0.00  0.00    +0.004 C 
ATOM     22  C   UNL     1      37.423 -26.245 -13.484  0.00  0.00    +0.021 C 
ATOM     23  C   UNL     1      37.024 -27.001 -14.574  0.00  0.00    +0.100 C 
ENDBRANCH  13  16
ENDBRANCH   1  13
TORSDOF 3
ENDMDL
MODEL 6
REMARK VINA RESULT:     -11.8      2.481      3.284
REMARK  Name = 100472
REMARK  3 active torsions:
REMARK  status: ('A' for Active; 'I' for Inactive)
REMARK    1  A    between atoms: C_1  and  C_13
REMARK    2  A    between atoms: C_2  and  C_7
REMARK    3  A    between atoms: C_13  and  C_16
REMARK                            x       y       z     vdW  Elec       q    Type
REMARK                         _______ _______ _______ _____ _____    ______ ____
ROOT
ATOM      1  C   UNL     1      33.974 -22.094 -19.096  0.00  0.00    -0.013 C 
ATOM      2  C   UNL     1      34.350 -20.149 -21.061  0.00  0.00    -0.000 C 
ATOM      3  C   UNL     1      32.873 -21.436 -19.647  0.00  0.00    -0.004 C 
ATOM      4  C   UNL     1      35.262 -21.779 -19.529  0.00  0.00    -0.004 C 
ATOM      5  C   UNL     1      33.061 -20.464 -20.628  0.00  0.00    -0.000 C 
ATOM      6  C   UNL     1      35.450 -20.807 -20.511  0.00  0.00    -0.000 C 
ENDROOT
BRANCH   2   7
ATOM      7  C   UNL     1      34.545 -19.139 -22.079  0.00  0.00    -0.000 C 
ATOM      8  C   UNL     1      35.144 -17.924 -21.751  0.00  0.00    -0.000 C 
ATOM      9  C   UNL     1      34.134 -19.383 -23.389  0.00  0.00    -0.000 C 
ATOM     10  C   UNL     1      35.332 -16.951 -22.732  0.00  0.00    +0.000 C 
ATOM     11  C   UNL     1      34.323 -18.411 -24.372  0.00  0.00    +0.000 C 
ATOM     12  C   UNL     1      34.923 -17.195 -24.043  0.00  0.00    +0.000 C 
ENDBRANCH   2   7
BRANCH   1  13
ATOM     13  C   UNL     1      33.773 -23.134 -18.047  0.00  0.00    +0.112 C 
BRANCH  13  16
ATOM     14  O   UNL     1      35.947 -22.683 -17.109  0.00  0.00    -0.274 OA
ATOM     15  N   UNL     1      34.258 -23.548 -15.727  0.00  0.00    -0.269 N 
ATOM     16  C   UNL     1      34.804 -23.087 -16.922  0.00  0.00    +0.232 C 
ATOM     17  H   UNL     1      33.316 -23.835 -15.760  0.00  0.00    +0.156 HD
ATOM     18  N   UNL     1      34.182 -24.129 -13.435  0.00  0.00    -0.229 NA
ATOM     19  C   UNL     1      34.898 -23.654 -14.469  0.00  0.00    +0.134 C 
ATOM     20  C   UNL     1      36.216 -23.254 -14.406  0.00  0.00    +0.034 C 
ATOM     21  C   UNL     1      36.854 -23.353 -13.176  0.00  0.00    +0.004 C 
ATOM     22  C   UNL     1      36.158 -23.838 -12.074  0.00  0.00    +0.021 C 
ATOM     23  C   UNL     1      34.836 -24.209 -12.255  0.00  0.00    +0.100 C 
ENDBRANCH  13  16
ENDBRANCH   1  13
TORSDOF 3
ENDMDL
MODEL 7
REMARK VINA RESULT:     -11.7      1.459      2.079
REMARK  Name = 100472
REMARK  3 active torsions:
REMARK  status: ('A' for Active; 'I' for Inactive)
REMARK    1  A    between atoms: C_1  and  C_13
REMARK    2  A    between atoms: C_2  and  C_7
REMARK    3  A    between atoms: C_13  and  C_16
REMARK                            x       y       z     vdW  Elec       q    Type
REMARK                         _______ _______ _______ _____ _____    ______ ____
ROOT
ATOM      1  C   UNL     1      34.146 -22.311 -19.411  0.00  0.00    -0.013 C 
ATOM      2  C   UNL     1      34.457 -20.075 -21.050  0.00  0.00    -0.000 C 
ATOM      3  C   UNL     1      35.424 -21.881 -19.770  0.00  0.00    -0.004 C 
ATOM      4  C   UNL     1      33.024 -21.622 -19.872  0.00  0.00    -0.004 C 
ATOM      5  C   UNL     1      35.579 -20.764 -20.589  0.00  0.00    -0.000 C 
ATOM      6  C   UNL     1      33.179 -20.505 -20.691  0.00  0.00    -0.000 C 
ENDROOT
BRANCH   2   7
ATOM      7  C   UNL     1      34.618 -18.916 -21.901  0.00  0.00    -0.000 C 
ATOM      8  C   UNL     1      35.023 -17.699 -21.353  0.00  0.00    -0.000 C 
ATOM      9  C   UNL     1      34.368 -19.016 -23.269  0.00  0.00    -0.000 C 
ATOM     10  C   UNL     1      35.178 -16.582 -22.173  0.00  0.00    +0.000 C 
ATOM     11  C   UNL     1      34.524 -17.899 -24.091  0.00  0.00    +0.000 C 
ATOM     12  C   UNL     1      34.930 -16.682 -23.541  0.00  0.00    +0.000 C 
ENDBRANCH   2   7
BRANCH   1  13
ATOM     13  C   UNL     1      33.980 -23.506 -18.534  0.00  0.00    +0.112 C 
BRANCH  13  16
ATOM     14  O   UNL     1      33.596 -23.141 -16.183  0.00  0.00    -0.274 OA
ATOM     15  N   UNL     1      31.764 -23.186 -17.652  0.00  0.00    -0.269 N 
ATOM     16  C   UNL     1      33.111 -23.257 -17.304  0.00  0.00    +0.232 C 
ATOM     17  H   UNL     1      31.555 -23.303 -18.607  0.00  0.00    +0.156 HD
ATOM     18  N   UNL     1      29.433 -22.935 -17.340  0.00  0.00    -0.229 NA
ATOM     19  C   UNL     1      30.661 -22.966 -16.793  0.00  0.00    +0.134 C 
ATOM     20  C   UNL     1      30.939 -22.799 -15.453  0.00  0.00    +0.034 C 
ATOM     21  C   UNL     1      29.863 -22.582 -14.601  0.00  0.00    +0.004 C 
ATOM     22  C   UNL     1      28.572 -22.540 -15.116  0.00  0.00    +0.021 C 
ATOM     23  C   UNL     1      28.413 -22.720 -16.481  0.00  0.00    +0.100 C 
ENDBRANCH  13  16
ENDBRANCH   1  13
TORSDOF 3
ENDMDL
MODEL 8
REMARK VINA RESULT:     -11.5      4.422      7.313
REMARK  Name = 100472
REMARK  3 active torsions:
REMARK  status: ('A' for Active; 'I' for Inactive)
REMARK    1  A    between atoms: C_1  and  C_13
REMARK    2  A    between atoms: C_2  and  C_7
REMARK    3  A    between atoms: C_13  and  C_16
REMARK                            x       y       z     vdW  Elec       q    Type
REMARK                         _______ _______ _______ _____ _____    ______ ____
ROOT
ATOM      1  C   UNL     1      34.559 -16.027 -23.482  0.00  0.00    -0.013 C 
ATOM      2  C   UNL     1      33.205 -13.780 -22.532  0.00  0.00    -0.000 C 
ATOM      3  C   UNL     1      33.787 -15.257 -24.353  0.00  0.00    -0.004 C 
ATOM      4  C   UNL     1      34.654 -15.672 -22.137  0.00  0.00    -0.004 C 
ATOM      5  C   UNL     1      33.110 -14.134 -23.878  0.00  0.00    -0.000 C 
ATOM      6  C   UNL     1      33.977 -14.549 -21.662  0.00  0.00    -0.000 C 
ENDROOT
BRANCH   2   7
ATOM      7  C   UNL     1      32.502 -12.615 -22.039  0.00  0.00    -0.000 C 
ATOM      8  C   UNL     1      31.920 -12.636 -20.772  0.00  0.00    -0.000 C 
ATOM      9  C   UNL     1      32.408 -11.471 -22.832  0.00  0.00    -0.000 C 
ATOM     10  C   UNL     1      31.243 -11.512 -20.297  0.00  0.00    +0.000 C 
ATOM     11  C   UNL     1      31.731 -10.347 -22.356  0.00  0.00    +0.000 C 
ATOM     12  C   UNL     1      31.150 -10.369 -21.088  0.00  0.00    +0.000 C 
ENDBRANCH   2   7
BRANCH   1  13
ATOM     13  C   UNL     1      35.283 -17.228 -23.990  0.00  0.00    +0.112 C 
BRANCH  13  16
ATOM     14  O   UNL     1      36.761 -18.492 -22.567  0.00  0.00    -0.274 OA
ATOM     15  N   UNL     1      34.444 -18.845 -22.420  0.00  0.00    -0.269 N 
ATOM     16  C   UNL     1      35.607 -18.258 -22.912  0.00  0.00    +0.232 C 
ATOM     17  H   UNL     1      33.598 -18.533 -22.816  0.00  0.00    +0.156 HD
ATOM     18  N   UNL     1      33.106 -20.271 -21.088  0.00  0.00    -0.229 NA
ATOM     19  C   UNL     1      34.336 -19.838 -21.417  0.00  0.00    +0.134 C 
ATOM     20  C   UNL     1      35.513 -20.282 -20.852  0.00  0.00    +0.034 C 
ATOM     21  C   UNL     1      35.418 -21.257 -19.865  0.00  0.00    +0.004 C 
ATOM     22  C   UNL     1      34.169 -21.738 -19.488  0.00  0.00    +0.021 C 
ATOM     23  C   UNL     1      33.054 -21.217 -20.124  0.00  0.00    +0.100 C 
ENDBRANCH  13  16
ENDBRANCH   1  13
TORSDOF 3
ENDMDL
MODEL 9
REMARK VINA RESULT:     -11.4      5.715     10.607
REMARK  Name = 100472
REMARK  3 active torsions:
REMARK  status: ('A' for Active; 'I' for Inactive)
REMARK    1  A    between atoms: C_1  and  C_13
REMARK    2  A    between atoms: C_2  and  C_7
REMARK    3  A    between atoms: C_13  and  C_16
REMARK                            x       y       z     vdW  Elec       q    Type
REMARK                         _______ _______ _______ _____ _____    ______ ____
ROOT
ATOM      1  C   UNL     1      34.606 -16.863 -23.766  0.00  0.00    -0.013 C 
ATOM      2  C   UNL     1      34.667 -18.986 -21.956  0.00  0.00    -0.000 C 
ATOM      3  C   UNL     1      35.117 -16.671 -22.482  0.00  0.00    -0.004 C 
ATOM      4  C   UNL     1      34.126 -18.117 -24.145  0.00  0.00    -0.004 C 
ATOM      5  C   UNL     1      35.148 -17.732 -21.578  0.00  0.00    -0.000 C 
ATOM      6  C   UNL     1      34.157 -19.178 -23.240  0.00  0.00    -0.000 C 
ENDROOT
BRANCH   2   7
ATOM      7  C   UNL     1      34.698 -20.087 -21.017  0.00  0.00    -0.000 C 
ATOM      8  C   UNL     1      35.920 -20.585 -20.567  0.00  0.00    -0.000 C 
ATOM      9  C   UNL     1      33.505 -20.649 -20.564  0.00  0.00    -0.000 C 
ATOM     10  C   UNL     1      35.950 -21.646 -19.661  0.00  0.00    +0.000 C 
ATOM     11  C   UNL     1      33.534 -21.710 -19.658  0.00  0.00    +0.000 C 
ATOM     12  C   UNL     1      34.757 -22.207 -19.207  0.00  0.00    +0.000 C 
ENDBRANCH   2   7
BRANCH   1  13
ATOM     13  C   UNL     1      34.574 -15.729 -24.734  0.00  0.00    +0.112 C 
BRANCH  13  16
ATOM     14  O   UNL     1      33.233 -14.471 -23.174  0.00  0.00    -0.274 OA
ATOM     15  N   UNL     1      34.291 -13.349 -24.945  0.00  0.00    -0.269 N 
ATOM     16  C   UNL     1      33.943 -14.456 -24.175  0.00  0.00    +0.232 C 
ATOM     17  H   UNL     1      34.873 -13.523 -25.720  0.00  0.00    +0.156 HD
ATOM     18  N   UNL     1      34.355 -11.082 -25.615  0.00  0.00    -0.229 NA
ATOM     19  C   UNL     1      33.903 -12.003 -24.745  0.00  0.00    +0.134 C 
ATOM     20  C   UNL     1      33.089 -11.743 -23.663  0.00  0.00    +0.034 C 
ATOM     21  C   UNL     1      32.704 -10.423 -23.458  0.00  0.00    +0.004 C 
ATOM     22  C   UNL     1      33.144  -9.432 -24.328  0.00  0.00    +0.021 C 
ATOM     23  C   UNL     1      33.961  -9.810 -25.381  0.00  0.00    +0.100 C 
ENDBRANCH  13  16
ENDBRANCH   1  13
TORSDOF 3
ENDMDL
