MODEL 1
REMARK VINA RESULT:     -12.0      0.000      0.000
REMARK  Name = 448407
REMARK  4 active torsions:
REMARK  status: ('A' for Active; 'I' for Inactive)
REMARK    1  A    between atoms: C_1  and  N_8
REMARK    2  A    between atoms: C_2  and  C_23
REMARK    3  A    between atoms: N_22  and  C_25
REMARK    4  A    between atoms: C_25  and  C_28
REMARK                            x       y       z     vdW  Elec       q    Type
REMARK                         _______ _______ _______ _____ _____    ______ ____
ROOT
ATOM      1  C   UNL     1      34.520 -22.016 -18.806  0.00  0.00    +0.090 C 
ATOM      2  C   UNL     1      34.613 -20.458 -20.674  0.00  0.00    +0.055 C 
ATOM      3  C   UNL     1      35.251 -21.170 -19.659  0.00  0.00    +0.023 C 
ATOM      4  C   UNL     1      33.133 -22.127 -19.000  0.00  0.00    +0.018 C 
ATOM      5  C   UNL     1      33.235 -20.580 -20.852  0.00  0.00    +0.005 C 
ATOM      6  C   UNL     1      32.495 -21.415 -20.015  0.00  0.00    +0.002 C 
ENDROOT
BRANCH   1   8
ATOM      7  O   UNL     1      33.665 -24.894 -14.565  0.00  0.00    -0.207 OA
ATOM      8  N   UNL     1      35.156 -22.727 -17.795  0.00  0.00    -0.137 N 
ATOM      9  N   UNL     1      36.322 -22.355 -17.203  0.00  0.00    -0.215 N 
ATOM     10  N   UNL     1      34.377 -23.505 -16.942  0.00  0.00    -0.143 NA
ATOM     11  N   UNL     1      37.145 -22.876 -14.944  0.00  0.00    -0.309 NA
ATOM     12  N   UNL     1      35.668 -24.234 -13.603  0.00  0.00    -0.251 NA
ATOM     13  N   UNL     1      37.693 -23.518 -12.744  0.00  0.00    -0.283 N 
ATOM     14  C   UNL     1      36.350 -22.873 -15.949  0.00  0.00    +0.243 C 
ATOM     15  C   UNL     1      35.073 -23.597 -15.851  0.00  0.00    +0.241 C 
ATOM     16  C   UNL     1      34.735 -24.305 -14.610  0.00  0.00    +0.239 C 
ATOM     17  C   UNL     1      36.787 -23.560 -13.780  0.00  0.00    +0.208 C 
ATOM     18  H   UNL     1      37.027 -21.804 -17.613  0.00  0.00    +0.175 HD
ATOM     19  H   UNL     1      38.537 -23.021 -12.848  0.00  0.00    +0.156 HD
ATOM     20  H   UNL     1      37.495 -23.982 -11.899  0.00  0.00    +0.156 HD
ENDBRANCH   1   8
BRANCH   2  23
ATOM     21  O   UNL     1      36.552 -19.275 -21.256  0.00  0.00    -0.270 OA
ATOM     22  N   UNL     1      34.760 -19.154 -22.724  0.00  0.00    -0.297 N 
ATOM     23  C   UNL     1      35.384 -19.589 -21.548  0.00  0.00    +0.246 C 
ATOM     24  H   UNL     1      33.834 -19.440 -22.892  0.00  0.00    +0.150 HD
BRANCH  22  25
ATOM     25  C   UNL     1      35.403 -18.307 -23.702  0.00  0.00    +0.117 C 
BRANCH  25  28
ATOM     26 CL   UNL     1      34.244 -14.099 -20.876  0.00  0.00    -0.082 Cl
ATOM     27 CL   UNL     1      33.512 -14.170 -26.222  0.00  0.00    -0.082 Cl
ATOM     28  C   UNL     1      34.888 -16.897 -23.650  0.00  0.00    -0.001 C 
ATOM     29  C   UNL     1      34.489 -16.267 -24.824  0.00  0.00    +0.009 C 
ATOM     30  C   UNL     1      34.815 -16.236 -22.430  0.00  0.00    +0.009 C 
ATOM     31  C   UNL     1      34.337 -14.927 -22.381  0.00  0.00    +0.058 C 
ATOM     32  C   UNL     1      34.010 -14.959 -24.776  0.00  0.00    +0.058 C 
ATOM     33  C   UNL     1      33.934 -14.287 -23.555  0.00  0.00    +0.023 C 
ENDBRANCH  25  28
ENDBRANCH  22  25
ENDBRANCH   2  23
TORSDOF 4
ENDMDL
MODEL 2
REMARK VINA RESULT:     -12.0      4.627     10.265
REMARK  Name = 448407
REMARK  4 active torsions:
REMARK  status: ('A' for Active; 'I' for Inactive)
REMARK    1  A    between atoms: C_1  and  N_8
REMARK    2  A    between atoms: C_2  and  C_23
REMARK    3  A    between atoms: N_22  and  C_25
REMARK    4  A    between atoms: C_25  and  C_28
REMARK                            x       y       z     vdW  Elec       q    Type
REMARK                         _______ _______ _______ _____ _____    ______ ____
ROOT
ATOM      1  C   UNL     1      35.642 -18.515 -21.727  0.00  0.00    +0.090 C 
ATOM      2  C   UNL     1      34.672 -20.411 -20.548  0.00  0.00    +0.055 C 
ATOM      3  C   UNL     1      34.520 -19.239 -21.289  0.00  0.00    +0.023 C 
ATOM      4  C   UNL     1      36.921 -19.000 -21.403  0.00  0.00    +0.018 C 
ATOM      5  C   UNL     1      35.948 -20.878 -20.235  0.00  0.00    +0.005 C 
ATOM      6  C   UNL     1      37.073 -20.172 -20.662  0.00  0.00    +0.002 C 
ENDROOT
BRANCH   1   8
ATOM      7  O   UNL     1      33.480 -13.791 -21.659  0.00  0.00    -0.207 OA
ATOM      8  N   UNL     1      35.491 -17.348 -22.467  0.00  0.00    -0.137 N 
ATOM      9  N   UNL     1      35.345 -17.301 -23.817  0.00  0.00    -0.215 N 
ATOM     10  N   UNL     1      34.901 -16.247 -21.852  0.00  0.00    -0.143 NA
ATOM     11  N   UNL     1      34.228 -15.597 -25.195  0.00  0.00    -0.309 NA
ATOM     12  N   UNL     1      33.261 -13.759 -23.966  0.00  0.00    -0.251 NA
ATOM     13  N   UNL     1      33.101 -13.830 -26.272  0.00  0.00    -0.283 N 
ATOM     14  C   UNL     1      34.659 -16.175 -24.135  0.00  0.00    +0.243 C 
ATOM     15  C   UNL     1      34.408 -15.549 -22.828  0.00  0.00    +0.241 C 
ATOM     16  C   UNL     1      33.671 -14.280 -22.762  0.00  0.00    +0.239 C 
ATOM     17  C   UNL     1      33.531 -14.391 -25.091  0.00  0.00    +0.208 C 
ATOM     18  H   UNL     1      35.680 -17.970 -24.457  0.00  0.00    +0.175 HD
ATOM     19  H   UNL     1      33.288 -14.280 -27.128  0.00  0.00    +0.156 HD
ATOM     20  H   UNL     1      32.605 -12.980 -26.261  0.00  0.00    +0.156 HD
ENDBRANCH   1   8
BRANCH   2  23
ATOM     21  O   UNL     1      32.395 -20.962 -20.646  0.00  0.00    -0.270 OA
ATOM     22  N   UNL     1      33.685 -22.076 -19.072  0.00  0.00    -0.297 N 
ATOM     23  C   UNL     1      33.499 -21.148 -20.105  0.00  0.00    +0.246 C 
ATOM     24  H   UNL     1      34.586 -22.171 -18.689  0.00  0.00    +0.150 HD
BRANCH  22  25
ATOM     25  C   UNL     1      32.624 -22.899 -18.539  0.00  0.00    +0.117 C 
BRANCH  25  28
ATOM     26 CL   UNL     1      30.635 -24.213 -13.918  0.00  0.00    -0.082 Cl
ATOM     27 CL   UNL     1      35.953 -23.619 -14.610  0.00  0.00    -0.082 Cl
ATOM     28  C   UNL     1      32.851 -23.242 -17.095  0.00  0.00    -0.001 C 
ATOM     29  C   UNL     1      34.145 -23.268 -16.589  0.00  0.00    +0.009 C 
ATOM     30  C   UNL     1      31.763 -23.532 -16.279  0.00  0.00    +0.009 C 
ATOM     31  C   UNL     1      31.973 -23.852 -14.937  0.00  0.00    +0.058 C 
ATOM     32  C   UNL     1      34.355 -23.586 -15.248  0.00  0.00    +0.058 C 
ATOM     33  C   UNL     1      33.270 -23.879 -14.421  0.00  0.00    +0.023 C 
ENDBRANCH  25  28
ENDBRANCH  22  25
ENDBRANCH   2  23
TORSDOF 4
ENDMDL
MODEL 3
REMARK VINA RESULT:     -12.0      4.632     10.256
REMARK  Name = 448407
REMARK  4 active torsions:
REMARK  status: ('A' for Active; 'I' for Inactive)
REMARK    1  A    between atoms: C_1  and  N_8
REMARK    2  A    between atoms: C_2  and  C_23
REMARK    3  A    between atoms: N_22  and  C_25
REMARK    4  A    between atoms: C_25  and  C_28
REMARK                            x       y       z     vdW  Elec       q    Type
REMARK                         _______ _______ _______ _____ _____    ______ ____
ROOT
ATOM      1  C   UNL     1      35.644 -18.517 -21.719  0.00  0.00    +0.090 C 
ATOM      2  C   UNL     1      34.669 -20.414 -20.545  0.00  0.00    +0.055 C 
ATOM      3  C   UNL     1      34.520 -19.242 -21.286  0.00  0.00    +0.023 C 
ATOM      4  C   UNL     1      36.922 -19.002 -21.389  0.00  0.00    +0.018 C 
ATOM      5  C   UNL     1      35.944 -20.880 -20.226  0.00  0.00    +0.005 C 
ATOM      6  C   UNL     1      37.071 -20.174 -20.648  0.00  0.00    +0.002 C 
ENDROOT
BRANCH   1   8
ATOM      7  O   UNL     1      33.499 -13.786 -21.648  0.00  0.00    -0.207 OA
ATOM      8  N   UNL     1      35.496 -17.350 -22.458  0.00  0.00    -0.137 N 
ATOM      9  N   UNL     1      35.348 -17.303 -23.809  0.00  0.00    -0.215 N 
ATOM     10  N   UNL     1      34.910 -16.246 -21.843  0.00  0.00    -0.143 NA
ATOM     11  N   UNL     1      34.234 -15.595 -25.185  0.00  0.00    -0.309 NA
ATOM     12  N   UNL     1      33.276 -13.754 -23.955  0.00  0.00    -0.251 NA
ATOM     13  N   UNL     1      33.112 -13.826 -26.261  0.00  0.00    -0.283 N 
ATOM     14  C   UNL     1      34.665 -16.175 -24.126  0.00  0.00    +0.243 C 
ATOM     15  C   UNL     1      34.418 -15.547 -22.819  0.00  0.00    +0.241 C 
ATOM     16  C   UNL     1      33.686 -14.276 -22.752  0.00  0.00    +0.239 C 
ATOM     17  C   UNL     1      33.542 -14.387 -25.080  0.00  0.00    +0.208 C 
ATOM     18  H   UNL     1      35.679 -17.974 -24.448  0.00  0.00    +0.175 HD
ATOM     19  H   UNL     1      33.296 -14.276 -27.117  0.00  0.00    +0.156 HD
ATOM     20  H   UNL     1      32.618 -12.974 -26.250  0.00  0.00    +0.156 HD
ENDBRANCH   1   8
BRANCH   2  23
ATOM     21  O   UNL     1      32.393 -20.966 -20.652  0.00  0.00    -0.270 OA
ATOM     22  N   UNL     1      33.676 -22.079 -19.073  0.00  0.00    -0.297 N 
ATOM     23  C   UNL     1      33.495 -21.152 -20.106  0.00  0.00    +0.246 C 
ATOM     24  H   UNL     1      34.576 -22.174 -18.686  0.00  0.00    +0.150 HD
BRANCH  22  25
ATOM     25  C   UNL     1      32.613 -22.903 -18.545  0.00  0.00    +0.117 C 
BRANCH  25  28
ATOM     26 CL   UNL     1      35.906 -23.621 -14.584  0.00  0.00    -0.082 Cl
ATOM     27 CL   UNL     1      30.574 -24.128 -13.921  0.00  0.00    -0.082 Cl
ATOM     28  C   UNL     1      32.825 -23.231 -17.094  0.00  0.00    -0.001 C 
ATOM     29  C   UNL     1      31.728 -23.494 -16.282  0.00  0.00    +0.009 C 
ATOM     30  C   UNL     1      34.115 -23.268 -16.579  0.00  0.00    +0.009 C 
ATOM     31  C   UNL     1      34.312 -23.573 -15.232  0.00  0.00    +0.058 C 
ATOM     32  C   UNL     1      31.924 -23.799 -14.935  0.00  0.00    +0.058 C 
ATOM     33  C   UNL     1      33.217 -23.838 -14.410  0.00  0.00    +0.023 C 
ENDBRANCH  25  28
ENDBRANCH  22  25
ENDBRANCH   2  23
TORSDOF 4
ENDMDL
MODEL 4
REMARK VINA RESULT:     -11.9      2.524      3.717
REMARK  Name = 448407
REMARK  4 active torsions:
REMARK  status: ('A' for Active; 'I' for Inactive)
REMARK    1  A    between atoms: C_1  and  N_8
REMARK    2  A    between atoms: C_2  and  C_23
REMARK    3  A    between atoms: N_22  and  C_25
REMARK    4  A    between atoms: C_25  and  C_28
REMARK                            x       y       z     vdW  Elec       q    Type
REMARK                         _______ _______ _______ _____ _____    ______ ____
ROOT
ATOM      1  C   UNL     1      34.165 -22.146 -18.805  0.00  0.00    +0.090 C 
ATOM      2  C   UNL     1      34.634 -20.701 -20.707  0.00  0.00    +0.055 C 
ATOM      3  C   UNL     1      33.740 -21.472 -19.963  0.00  0.00    +0.023 C 
ATOM      4  C   UNL     1      35.509 -22.024 -18.412  0.00  0.00    +0.018 C 
ATOM      5  C   UNL     1      35.964 -20.591 -20.304  0.00  0.00    +0.005 C 
ATOM      6  C   UNL     1      36.402 -21.253 -19.156  0.00  0.00    +0.002 C 
ENDROOT
BRANCH   1   8
ATOM      7  O   UNL     1      29.210 -22.461 -17.275  0.00  0.00    -0.207 OA
ATOM      8  N   UNL     1      33.274 -22.913 -18.062  0.00  0.00    -0.137 N 
ATOM      9  N   UNL     1      33.583 -23.552 -16.903  0.00  0.00    -0.215 N 
ATOM     10  N   UNL     1      31.919 -22.600 -18.126  0.00  0.00    -0.143 NA
ATOM     11  N   UNL     1      32.106 -24.173 -15.038  0.00  0.00    -0.309 NA
ATOM     12  N   UNL     1      29.789 -23.556 -15.315  0.00  0.00    -0.251 NA
ATOM     13  N   UNL     1      30.481 -24.651 -13.399  0.00  0.00    -0.283 N 
ATOM     14  C   UNL     1      32.449 -23.681 -16.170  0.00  0.00    +0.243 C 
ATOM     15  C   UNL     1      31.424 -23.050 -17.015  0.00  0.00    +0.241 C 
ATOM     16  C   UNL     1      30.033 -22.995 -16.546  0.00  0.00    +0.239 C 
ATOM     17  C   UNL     1      30.773 -24.100 -14.627  0.00  0.00    +0.208 C 
ATOM     18  H   UNL     1      34.478 -23.867 -16.640  0.00  0.00    +0.175 HD
ATOM     19  H   UNL     1      31.196 -25.064 -12.862  0.00  0.00    +0.156 HD
ATOM     20  H   UNL     1      29.558 -24.629 -13.057  0.00  0.00    +0.156 HD
ENDBRANCH   1   8
BRANCH   2  23
ATOM     21  O   UNL     1      32.964 -19.819 -22.097  0.00  0.00    -0.270 OA
ATOM     22  N   UNL     1      35.162 -19.559 -22.791  0.00  0.00    -0.297 N 
ATOM     23  C   UNL     1      34.178 -20.009 -21.902  0.00  0.00    +0.246 C 
ATOM     24  H   UNL     1      36.104 -19.745 -22.575  0.00  0.00    +0.150 HD
BRANCH  22  25
ATOM     25  C   UNL     1      34.869 -18.838 -24.007  0.00  0.00    +0.117 C 
BRANCH  25  28
ATOM     26 CL   UNL     1      33.484 -14.175 -25.848  0.00  0.00    -0.082 Cl
ATOM     27 CL   UNL     1      34.659 -14.890 -20.629  0.00  0.00    -0.082 Cl
ATOM     28  C   UNL     1      34.599 -17.383 -23.747  0.00  0.00    -0.001 C 
ATOM     29  C   UNL     1      34.738 -16.877 -22.460  0.00  0.00    +0.009 C 
ATOM     30  C   UNL     1      34.214 -16.557 -24.797  0.00  0.00    +0.009 C 
ATOM     31  C   UNL     1      33.963 -15.206 -24.556  0.00  0.00    +0.058 C 
ATOM     32  C   UNL     1      34.489 -15.527 -22.219  0.00  0.00    +0.058 C 
ATOM     33  C   UNL     1      34.100 -14.691 -23.266  0.00  0.00    +0.023 C 
ENDBRANCH  25  28
ENDBRANCH  22  25
ENDBRANCH   2  23
TORSDOF 4
ENDMDL
MODEL 5
REMARK VINA RESULT:     -11.5      0.870      1.901
REMARK  Name = 448407
REMARK  4 active torsions:
REMARK  status: ('A' for Active; 'I' for Inactive)
REMARK    1  A    between atoms: C_1  and  N_8
REMARK    2  A    between atoms: C_2  and  C_23
REMARK    3  A    between atoms: N_22  and  C_25
REMARK    4  A    between atoms: C_25  and  C_28
REMARK                            x       y       z     vdW  Elec       q    Type
REMARK                         _______ _______ _______ _____ _____    ______ ____
ROOT
ATOM      1  C   UNL     1      34.642 -22.431 -18.060  0.00  0.00    +0.090 C 
ATOM      2  C   UNL     1      34.808 -20.984 -20.010  0.00  0.00    +0.055 C 
ATOM      3  C   UNL     1      35.399 -21.606 -18.910  0.00  0.00    +0.023 C 
ATOM      4  C   UNL     1      33.278 -22.615 -18.343  0.00  0.00    +0.018 C 
ATOM      5  C   UNL     1      33.453 -21.177 -20.276  0.00  0.00    +0.005 C 
ATOM      6  C   UNL     1      32.688 -21.993 -19.443  0.00  0.00    +0.002 C 
ENDROOT
BRANCH   1   8
ATOM      7  O   UNL     1      33.641 -24.430 -13.370  0.00  0.00    -0.207 OA
ATOM      8  N   UNL     1      35.230 -23.053 -16.964  0.00  0.00    -0.137 N 
ATOM      9  N   UNL     1      36.467 -22.762 -16.481  0.00  0.00    -0.215 N 
ATOM     10  N   UNL     1      34.402 -23.562 -15.968  0.00  0.00    -0.143 NA
ATOM     11  N   UNL     1      37.336 -23.021 -14.195  0.00  0.00    -0.309 NA
ATOM     12  N   UNL     1      35.766 -23.918 -12.597  0.00  0.00    -0.251 NA
ATOM     13  N   UNL     1      37.913 -23.370 -11.938  0.00  0.00    -0.283 N 
ATOM     14  C   UNL     1      36.494 -23.067 -15.160  0.00  0.00    +0.243 C 
ATOM     15  C   UNL     1      35.138 -23.575 -14.900  0.00  0.00    +0.241 C 
ATOM     16  C   UNL     1      34.777 -24.016 -13.547  0.00  0.00    +0.239 C 
ATOM     17  C   UNL     1      36.954 -23.449 -12.922  0.00  0.00    +0.208 C 
ATOM     18  H   UNL     1      37.216 -22.391 -17.001  0.00  0.00    +0.175 HD
ATOM     19  H   UNL     1      38.811 -23.024 -12.150  0.00  0.00    +0.156 HD
ATOM     20  H   UNL     1      37.702 -23.657 -11.020  0.00  0.00    +0.156 HD
ENDBRANCH   1   8
BRANCH   2  23
ATOM     21  O   UNL     1      36.743 -19.768 -20.534  0.00  0.00    -0.270 OA
ATOM     22  N   UNL     1      35.044 -19.781 -22.113  0.00  0.00    -0.297 N 
ATOM     23  C   UNL     1      35.606 -20.135 -20.880  0.00  0.00    +0.246 C 
ATOM     24  H   UNL     1      34.140 -20.106 -22.322  0.00  0.00    +0.150 HD
BRANCH  22  25
ATOM     25  C   UNL     1      35.721 -18.964 -23.093  0.00  0.00    +0.117 C 
BRANCH  25  28
ATOM     26 CL   UNL     1      33.731 -15.093 -25.937  0.00  0.00    -0.082 Cl
ATOM     27 CL   UNL     1      34.369 -14.605 -20.601  0.00  0.00    -0.082 Cl
ATOM     28  C   UNL     1      35.157 -17.574 -23.152  0.00  0.00    -0.001 C 
ATOM     29  C   UNL     1      35.040 -16.828 -21.985  0.00  0.00    +0.009 C 
ATOM     30  C   UNL     1      34.756 -17.046 -24.374  0.00  0.00    +0.009 C 
ATOM     31  C   UNL     1      34.231 -15.755 -24.430  0.00  0.00    +0.058 C 
ATOM     32  C   UNL     1      34.516 -15.537 -22.040  0.00  0.00    +0.058 C 
ATOM     33  C   UNL     1      34.111 -15.000 -23.263  0.00  0.00    +0.023 C 
ENDBRANCH  25  28
ENDBRANCH  22  25
ENDBRANCH   2  23
TORSDOF 4
ENDMDL
MODEL 6
REMARK VINA RESULT:     -11.3      3.791      6.531
REMARK  Name = 448407
REMARK  4 active torsions:
REMARK  status: ('A' for Active; 'I' for Inactive)
REMARK    1  A    between atoms: C_1  and  N_8
REMARK    2  A    between atoms: C_2  and  C_23
REMARK    3  A    between atoms: N_22  and  C_25
REMARK    4  A    between atoms: C_25  and  C_28
REMARK                            x       y       z     vdW  Elec       q    Type
REMARK                         _______ _______ _______ _____ _____    ______ ____
ROOT
ATOM      1  C   UNL     1      33.327 -23.606 -14.662  0.00  0.00    +0.090 C 
ATOM      2  C   UNL     1      35.624 -23.310 -15.413  0.00  0.00    +0.055 C 
ATOM      3  C   UNL     1      34.255 -23.111 -15.595  0.00  0.00    +0.023 C 
ATOM      4  C   UNL     1      33.809 -24.305 -13.541  0.00  0.00    +0.018 C 
ATOM      5  C   UNL     1      36.085 -24.005 -14.295  0.00  0.00    +0.005 C 
ATOM      6  C   UNL     1      35.178 -24.502 -13.360  0.00  0.00    +0.002 C 
ENDROOT
BRANCH   1   8
ATOM      7  O   UNL     1      28.742 -26.046 -14.780  0.00  0.00    -0.207 OA
ATOM      8  N   UNL     1      31.963 -23.407 -14.843  0.00  0.00    -0.137 N 
ATOM      9  N   UNL     1      31.419 -22.526 -15.723  0.00  0.00    -0.215 N 
ATOM     10  N   UNL     1      31.100 -24.470 -14.587  0.00  0.00    -0.143 NA
ATOM     11  N   UNL     1      29.226 -22.601 -16.834  0.00  0.00    -0.309 NA
ATOM     12  N   UNL     1      27.860 -24.510 -16.276  0.00  0.00    -0.251 NA
ATOM     13  N   UNL     1      27.082 -22.915 -17.758  0.00  0.00    -0.283 N 
ATOM     14  C   UNL     1      30.189 -22.975 -16.074  0.00  0.00    +0.243 C 
ATOM     15  C   UNL     1      30.051 -24.223 -15.308  0.00  0.00    +0.241 C 
ATOM     16  C   UNL     1      28.819 -25.014 -15.430  0.00  0.00    +0.239 C 
ATOM     17  C   UNL     1      28.071 -23.381 -16.923  0.00  0.00    +0.208 C 
ATOM     18  H   UNL     1      31.846 -21.701 -16.051  0.00  0.00    +0.175 HD
ATOM     19  H   UNL     1      27.212 -22.074 -18.255  0.00  0.00    +0.156 HD
ATOM     20  H   UNL     1      26.245 -23.423 -17.861  0.00  0.00    +0.156 HD
ENDBRANCH   1   8
BRANCH   2  23
ATOM     21  O   UNL     1      37.793 -22.831 -16.162  0.00  0.00    -0.270 OA
ATOM     22  N   UNL     1      36.040 -22.274 -17.575  0.00  0.00    -0.297 N 
ATOM     23  C   UNL     1      36.570 -22.790 -16.387  0.00  0.00    +0.246 C 
ATOM     24  H   UNL     1      35.063 -22.272 -17.686  0.00  0.00    +0.150 HD
BRANCH  22  25
ATOM     25  C   UNL     1      36.852 -21.743 -18.646  0.00  0.00    +0.117 C 
BRANCH  25  28
ATOM     26 CL   UNL     1      32.176 -20.761 -20.700  0.00  0.00    -0.082 Cl
ATOM     27 CL   UNL     1      36.638 -18.443 -22.659  0.00  0.00    -0.082 Cl
ATOM     28  C   UNL     1      36.026 -21.019 -19.672  0.00  0.00    -0.001 C 
ATOM     29  C   UNL     1      36.647 -20.169 -20.579  0.00  0.00    +0.009 C 
ATOM     30  C   UNL     1      34.649 -21.208 -19.702  0.00  0.00    +0.009 C 
ATOM     31  C   UNL     1      33.882 -20.536 -20.654  0.00  0.00    +0.058 C 
ATOM     32  C   UNL     1      35.880 -19.497 -21.531  0.00  0.00    +0.058 C 
ATOM     33  C   UNL     1      34.497 -19.680 -21.568  0.00  0.00    +0.023 C 
ENDBRANCH  25  28
ENDBRANCH  22  25
ENDBRANCH   2  23
TORSDOF 4
ENDMDL
MODEL 7
REMARK VINA RESULT:     -11.1      1.624      2.571
REMARK  Name = 448407
REMARK  4 active torsions:
REMARK  status: ('A' for Active; 'I' for Inactive)
REMARK    1  A    between atoms: C_1  and  N_8
REMARK    2  A    between atoms: C_2  and  C_23
REMARK    3  A    between atoms: N_22  and  C_25
REMARK    4  A    between atoms: C_25  and  C_28
REMARK                            x       y       z     vdW  Elec       q    Type
REMARK                         _______ _______ _______ _____ _____    ______ ____
ROOT
ATOM      1  C   UNL     1      34.594 -22.347 -18.023  0.00  0.00    +0.090 C 
ATOM      2  C   UNL     1      34.852 -20.984 -20.023  0.00  0.00    +0.055 C 
ATOM      3  C   UNL     1      35.379 -21.525 -18.850  0.00  0.00    +0.023 C 
ATOM      4  C   UNL     1      33.268 -22.613 -18.404  0.00  0.00    +0.018 C 
ATOM      5  C   UNL     1      33.533 -21.257 -20.387  0.00  0.00    +0.005 C 
ATOM      6  C   UNL     1      32.741 -22.072 -19.577  0.00  0.00    +0.002 C 
ENDROOT
BRANCH   1   8
ATOM      7  O   UNL     1      39.029 -23.758 -15.713  0.00  0.00    -0.207 OA
ATOM      8  N   UNL     1      35.119 -22.888 -16.855  0.00  0.00    -0.137 N 
ATOM      9  N   UNL     1      34.526 -23.864 -16.119  0.00  0.00    -0.215 N 
ATOM     10  N   UNL     1      36.503 -22.899 -16.694  0.00  0.00    -0.143 NA
ATOM     11  N   UNL     1      35.562 -25.531 -14.636  0.00  0.00    -0.309 NA
ATOM     12  N   UNL     1      37.966 -25.405 -14.475  0.00  0.00    -0.251 NA
ATOM     13  N   UNL     1      36.802 -27.010 -13.285  0.00  0.00    -0.283 N 
ATOM     14  C   UNL     1      35.491 -24.546 -15.453  0.00  0.00    +0.243 C 
ATOM     15  C   UNL     1      36.731 -23.873 -15.869  0.00  0.00    +0.241 C 
ATOM     16  C   UNL     1      38.020 -24.341 -15.343  0.00  0.00    +0.239 C 
ATOM     17  C   UNL     1      36.807 -25.947 -14.159  0.00  0.00    +0.208 C 
ATOM     18  H   UNL     1      33.559 -24.047 -16.076  0.00  0.00    +0.175 HD
ATOM     19  H   UNL     1      35.951 -27.435 -13.031  0.00  0.00    +0.156 HD
ATOM     20  H   UNL     1      37.650 -27.348 -12.916  0.00  0.00    +0.156 HD
ENDBRANCH   1   8
BRANCH   2  23
ATOM     21  O   UNL     1      36.850 -19.875 -20.546  0.00  0.00    -0.270 OA
ATOM     22  N   UNL     1      35.098 -19.660 -22.050  0.00  0.00    -0.297 N 
ATOM     23  C   UNL     1      35.677 -20.136 -20.868  0.00  0.00    +0.246 C 
ATOM     24  H   UNL     1      34.165 -19.905 -22.242  0.00  0.00    +0.150 HD
BRANCH  22  25
ATOM     25  C   UNL     1      35.797 -18.827 -23.002  0.00  0.00    +0.117 C 
BRANCH  25  28
ATOM     26 CL   UNL     1      33.722 -15.100 -25.975  0.00  0.00    -0.082 Cl
ATOM     27 CL   UNL     1      34.263 -14.453 -20.645  0.00  0.00    -0.082 Cl
ATOM     28  C   UNL     1      35.187 -17.459 -23.106  0.00  0.00    -0.001 C 
ATOM     29  C   UNL     1      35.029 -16.688 -21.960  0.00  0.00    +0.009 C 
ATOM     30  C   UNL     1      34.788 -16.977 -24.347  0.00  0.00    +0.009 C 
ATOM     31  C   UNL     1      34.221 -15.706 -24.444  0.00  0.00    +0.058 C 
ATOM     32  C   UNL     1      34.463 -15.417 -22.056  0.00  0.00    +0.058 C 
ATOM     33  C   UNL     1      34.058 -14.925 -23.299  0.00  0.00    +0.023 C 
ENDBRANCH  25  28
ENDBRANCH  22  25
ENDBRANCH   2  23
TORSDOF 4
ENDMDL
MODEL 8
REMARK VINA RESULT:     -11.0      6.989     11.143
REMARK  Name = 448407
REMARK  4 active torsions:
REMARK  status: ('A' for Active; 'I' for Inactive)
REMARK    1  A    between atoms: C_1  and  N_8
REMARK    2  A    between atoms: C_2  and  C_23
REMARK    3  A    between atoms: N_22  and  C_25
REMARK    4  A    between atoms: C_25  and  C_28
REMARK                            x       y       z     vdW  Elec       q    Type
REMARK                         _______ _______ _______ _____ _____    ______ ____
ROOT
ATOM      1  C   UNL     1      33.724 -12.901 -25.329  0.00  0.00    +0.090 C 
ATOM      2  C   UNL     1      34.161 -10.510 -25.193  0.00  0.00    +0.055 C 
ATOM      3  C   UNL     1      34.082 -11.763 -24.585  0.00  0.00    +0.023 C 
ATOM      4  C   UNL     1      33.449 -12.748 -26.698  0.00  0.00    +0.018 C 
ATOM      5  C   UNL     1      33.884 -10.376 -26.553  0.00  0.00    +0.005 C 
ATOM      6  C   UNL     1      33.528 -11.496 -27.306  0.00  0.00    +0.002 C 
ENDROOT
BRANCH   1   8
ATOM      7  O   UNL     1      34.651 -15.445 -20.894  0.00  0.00    -0.207 OA
ATOM      8  N   UNL     1      33.647 -14.150 -24.723  0.00  0.00    -0.137 N 
ATOM      9  N   UNL     1      33.890 -15.331 -25.351  0.00  0.00    -0.215 N 
ATOM     10  N   UNL     1      33.896 -14.240 -23.356  0.00  0.00    -0.143 NA
ATOM     11  N   UNL     1      34.669 -17.460 -24.396  0.00  0.00    -0.309 NA
ATOM     12  N   UNL     1      35.049 -17.436 -22.013  0.00  0.00    -0.251 NA
ATOM     13  N   UNL     1      35.416 -19.367 -23.232  0.00  0.00    -0.283 N 
ATOM     14  C   UNL     1      34.305 -16.231 -24.425  0.00  0.00    +0.243 C 
ATOM     15  C   UNL     1      34.284 -15.463 -23.171  0.00  0.00    +0.241 C 
ATOM     16  C   UNL     1      34.679 -16.116 -21.916  0.00  0.00    +0.239 C 
ATOM     17  C   UNL     1      35.038 -18.045 -23.183  0.00  0.00    +0.208 C 
ATOM     18  H   UNL     1      33.785 -15.504 -26.314  0.00  0.00    +0.175 HD
ATOM     19  H   UNL     1      35.418 -19.848 -24.092  0.00  0.00    +0.156 HD
ATOM     20  H   UNL     1      35.687 -19.832 -22.408  0.00  0.00    +0.156 HD
ENDBRANCH   1   8
BRANCH   2  23
ATOM     21  O   UNL     1      35.731  -9.044 -24.254  0.00  0.00    -0.270 OA
ATOM     22  N   UNL     1      33.491  -8.580 -23.870  0.00  0.00    -0.297 N 
ATOM     23  C   UNL     1      34.534  -9.343 -24.409  0.00  0.00    +0.246 C 
ATOM     24  H   UNL     1      32.567  -8.875 -24.032  0.00  0.00    +0.150 HD
BRANCH  22  25
ATOM     25  C   UNL     1      33.700  -7.382 -23.090  0.00  0.00    +0.117 C 
BRANCH  25  28
ATOM     26 CL   UNL     1      35.213  -4.381 -27.057  0.00  0.00    -0.082 Cl
ATOM     27 CL   UNL     1      31.014  -3.015 -23.956  0.00  0.00    -0.082 Cl
ATOM     28  C   UNL     1      33.502  -6.137 -23.906  0.00  0.00    -0.001 C 
ATOM     29  C   UNL     1      32.470  -5.262 -23.586  0.00  0.00    +0.009 C 
ATOM     30  C   UNL     1      34.352  -5.873 -24.973  0.00  0.00    +0.009 C 
ATOM     31  C   UNL     1      34.168  -4.717 -25.732  0.00  0.00    +0.058 C 
ATOM     32  C   UNL     1      32.286  -4.106 -24.344  0.00  0.00    +0.058 C 
ATOM     33  C   UNL     1      33.135  -3.833 -25.418  0.00  0.00    +0.023 C 
ENDBRANCH  25  28
ENDBRANCH  22  25
ENDBRANCH   2  23
TORSDOF 4
ENDMDL
MODEL 9
REMARK VINA RESULT:     -11.0      7.016     11.121
REMARK  Name = 448407
REMARK  4 active torsions:
REMARK  status: ('A' for Active; 'I' for Inactive)
REMARK    1  A    between atoms: C_1  and  N_8
REMARK    2  A    between atoms: C_2  and  C_23
REMARK    3  A    between atoms: N_22  and  C_25
REMARK    4  A    between atoms: C_25  and  C_28
REMARK                            x       y       z     vdW  Elec       q    Type
REMARK                         _______ _______ _______ _____ _____    ______ ____
ROOT
ATOM      1  C   UNL     1      33.721 -12.867 -25.343  0.00  0.00    +0.090 C 
ATOM      2  C   UNL     1      34.154 -10.475 -25.202  0.00  0.00    +0.055 C 
ATOM      3  C   UNL     1      34.072 -11.729 -24.596  0.00  0.00    +0.023 C 
ATOM      4  C   UNL     1      33.456 -12.713 -26.715  0.00  0.00    +0.018 C 
ATOM      5  C   UNL     1      33.888 -10.341 -26.565  0.00  0.00    +0.005 C 
ATOM      6  C   UNL     1      33.539 -11.460 -27.321  0.00  0.00    +0.002 C 
ENDROOT
BRANCH   1   8
ATOM      7  O   UNL     1      34.651 -15.421 -20.915  0.00  0.00    -0.207 OA
ATOM      8  N   UNL     1      33.640 -14.116 -24.739  0.00  0.00    -0.137 N 
ATOM      9  N   UNL     1      33.875 -15.297 -25.369  0.00  0.00    -0.215 N 
ATOM     10  N   UNL     1      33.893 -14.209 -23.373  0.00  0.00    -0.143 NA
ATOM     11  N   UNL     1      34.647 -17.431 -24.420  0.00  0.00    -0.309 NA
ATOM     12  N   UNL     1      35.037 -17.412 -22.039  0.00  0.00    -0.251 NA
ATOM     13  N   UNL     1      35.389 -19.343 -23.261  0.00  0.00    -0.283 N 
ATOM     14  C   UNL     1      34.289 -16.201 -24.446  0.00  0.00    +0.243 C 
ATOM     15  C   UNL     1      34.276 -15.434 -23.190  0.00  0.00    +0.241 C 
ATOM     16  C   UNL     1      34.673 -16.091 -21.938  0.00  0.00    +0.239 C 
ATOM     17  C   UNL     1      35.018 -18.019 -23.209  0.00  0.00    +0.208 C 
ATOM     18  H   UNL     1      33.765 -15.468 -26.332  0.00  0.00    +0.175 HD
ATOM     19  H   UNL     1      35.385 -19.823 -24.122  0.00  0.00    +0.156 HD
ATOM     20  H   UNL     1      35.661 -19.811 -22.439  0.00  0.00    +0.156 HD
ENDBRANCH   1   8
BRANCH   2  23
ATOM     21  O   UNL     1      35.716  -9.011 -24.247  0.00  0.00    -0.270 OA
ATOM     22  N   UNL     1      33.472  -8.544 -23.888  0.00  0.00    -0.297 N 
ATOM     23  C   UNL     1      34.520  -9.309 -24.415  0.00  0.00    +0.246 C 
ATOM     24  H   UNL     1      32.549  -8.838 -24.060  0.00  0.00    +0.150 HD
BRANCH  22  25
ATOM     25  C   UNL     1      33.674  -7.346 -23.106  0.00  0.00    +0.117 C 
BRANCH  25  28
ATOM     26 CL   UNL     1      30.985  -2.981 -23.972  0.00  0.00    -0.082 Cl
ATOM     27 CL   UNL     1      35.190  -4.341 -27.069  0.00  0.00    -0.082 Cl
ATOM     28  C   UNL     1      33.476  -6.101 -23.922  0.00  0.00    -0.001 C 
ATOM     29  C   UNL     1      34.327  -5.835 -24.988  0.00  0.00    +0.009 C 
ATOM     30  C   UNL     1      32.444  -5.227 -23.602  0.00  0.00    +0.009 C 
ATOM     31  C   UNL     1      32.259  -4.070 -24.360  0.00  0.00    +0.058 C 
ATOM     32  C   UNL     1      34.143  -4.679 -25.746  0.00  0.00    +0.058 C 
ATOM     33  C   UNL     1      33.109  -3.796 -25.432  0.00  0.00    +0.023 C 
ENDBRANCH  25  28
ENDBRANCH  22  25
ENDBRANCH   2  23
TORSDOF 4
ENDMDL
