MODEL 1
REMARK VINA RESULT:     -11.9      0.000      0.000
REMARK  Name = 54671008
REMARK  7 active torsions:
REMARK  status: ('A' for Active; 'I' for Inactive)
REMARK    1  A    between atoms: C_4  and  C_21
REMARK    2  A    between atoms: C_6  and  C_11
REMARK    3  A    between atoms: C_8  and  O_34
REMARK    4  A    between atoms: N_10  and  C_13
REMARK    5  A    between atoms: C_13  and  C_15
REMARK    6  A    between atoms: C_21  and  N_25
REMARK    7  A    between atoms: C_26  and  C_31
REMARK                            x       y       z     vdW  Elec       q    Type
REMARK                         _______ _______ _______ _____ _____    ______ ____
ROOT
ATOM      1  O   UNL     1      36.078 -23.358 -14.715  0.00  0.00    -0.271 OA
ATOM      2  N   UNL     1      33.763 -23.692 -14.638  0.00  0.00    -0.232 N 
ATOM      3  N   UNL     1      32.495 -23.471 -16.637  0.00  0.00    -0.386 NA
ATOM      4  C   UNL     1      32.574 -23.711 -15.365  0.00  0.00    +0.182 C 
ATOM      5  C   UNL     1      34.979 -23.402 -15.263  0.00  0.00    +0.265 C 
ATOM      6  C   UNL     1      33.662 -23.184 -17.289  0.00  0.00    +0.199 C 
ATOM      7  C   UNL     1      33.736 -23.980 -13.206  0.00  0.00    +0.122 C 
ATOM      8  C   UNL     1      34.876 -23.129 -16.723  0.00  0.00    +0.245 C 
ENDROOT
BRANCH   6  11
ATOM      9  O   UNL     1      33.691 -23.820 -19.550  0.00  0.00    -0.268 OA
ATOM     10  N   UNL     1      33.272 -21.591 -19.009  0.00  0.00    -0.295 N 
ATOM     11  C   UNL     1      33.546 -22.917 -18.730  0.00  0.00    +0.275 C 
ATOM     12  H   UNL     1      33.180 -20.964 -18.256  0.00  0.00    +0.150 HD
BRANCH  10  13
ATOM     13  C   UNL     1      33.113 -21.081 -20.352  0.00  0.00    +0.117 C 
BRANCH  13  15
ATOM     14  F   UNL     1      37.732 -18.412 -22.153  0.00  0.00    -0.204 F 
ATOM     15  C   UNL     1      34.345 -20.369 -20.833  0.00  0.00    -0.002 C 
ATOM     16  C   UNL     1      35.589 -20.682 -20.285  0.00  0.00    -0.000 C 
ATOM     17  C   UNL     1      34.245 -19.395 -21.826  0.00  0.00    -0.000 C 
ATOM     18  C   UNL     1      36.733 -20.020 -20.731  0.00  0.00    +0.029 C 
ATOM     19  C   UNL     1      35.389 -18.734 -22.272  0.00  0.00    +0.029 C 
ATOM     20  C   UNL     1      36.633 -19.046 -21.724  0.00  0.00    +0.140 C 
ENDBRANCH  13  15
ENDBRANCH  10  13
ENDBRANCH   6  11
BRANCH   4  21
ATOM     21  C   UNL     1      31.295 -24.031 -14.629  0.00  0.00    +0.117 C 
ATOM     22  C   UNL     1      31.219 -25.528 -14.358  0.00  0.00    +0.028 C 
ATOM     23  C   UNL     1      31.229 -23.228 -13.337  0.00  0.00    +0.028 C 
BRANCH  21  25
ATOM     24  O   UNL     1      28.588 -24.981 -14.723  0.00  0.00    -0.265 OA
ATOM     25  N   UNL     1      30.271 -23.617 -15.553  0.00  0.00    -0.293 N 
ATOM     26  C   UNL     1      28.983 -24.135 -15.521  0.00  0.00    +0.302 C 
ATOM     27  H   UNL     1      30.493 -22.940 -16.232  0.00  0.00    +0.150 HD
BRANCH  26  31
ATOM     28  O   UNL     1      27.399 -22.443 -16.365  0.00  0.00    -0.416 OA
ATOM     29  N   UNL     1      27.762 -24.201 -17.701  0.00  0.00    -0.102 NA
ATOM     30  N   UNL     1      26.858 -23.366 -18.329  0.00  0.00    -0.111 NA
ATOM     31  C   UNL     1      28.051 -23.623 -16.558  0.00  0.00    +0.304 A 
ATOM     32  C   UNL     1      26.675 -22.354 -17.514  0.00  0.00    +0.227 A 
ATOM     33  C   UNL     1      25.820 -21.170 -17.667  0.00  0.00    +0.097 C 
ENDBRANCH  26  31
ENDBRANCH  21  25
ENDBRANCH   4  21
BRANCH   8  34
ATOM     34  O   UNL     1      36.029 -22.836 -17.415  0.00  0.00    -0.370 OA
ATOM     35  H   UNL     1      36.345 -23.427 -18.070  0.00  0.00    +0.211 HD
ENDBRANCH   8  34
TORSDOF 7
ENDMDL
MODEL 2
REMARK VINA RESULT:     -10.5      2.403      6.045
REMARK  Name = 54671008
REMARK  7 active torsions:
REMARK  status: ('A' for Active; 'I' for Inactive)
REMARK    1  A    between atoms: C_4  and  C_21
REMARK    2  A    between atoms: C_6  and  C_11
REMARK    3  A    between atoms: C_8  and  O_34
REMARK    4  A    between atoms: N_10  and  C_13
REMARK    5  A    between atoms: C_13  and  C_15
REMARK    6  A    between atoms: C_21  and  N_25
REMARK    7  A    between atoms: C_26  and  C_31
REMARK                            x       y       z     vdW  Elec       q    Type
REMARK                         _______ _______ _______ _____ _____    ______ ____
ROOT
ATOM      1  O   UNL     1      29.850 -22.371 -17.081  0.00  0.00    -0.271 OA
ATOM      2  N   UNL     1      31.443 -23.371 -15.687  0.00  0.00    -0.232 N 
ATOM      3  N   UNL     1      33.664 -23.655 -16.485  0.00  0.00    -0.386 NA
ATOM      4  C   UNL     1      32.766 -23.786 -15.558  0.00  0.00    +0.182 C 
ATOM      5  C   UNL     1      30.993 -22.769 -16.865  0.00  0.00    +0.265 C 
ATOM      6  C   UNL     1      33.267 -23.069 -17.656  0.00  0.00    +0.199 C 
ATOM      7  C   UNL     1      30.515 -23.566 -14.575  0.00  0.00    +0.122 C 
ATOM      8  C   UNL     1      32.032 -22.623 -17.922  0.00  0.00    +0.245 C 
ENDROOT
BRANCH   6  11
ATOM      9  O   UNL     1      34.282 -23.634 -19.697  0.00  0.00    -0.268 OA
ATOM     10  N   UNL     1      35.239 -21.962 -18.385  0.00  0.00    -0.295 N 
ATOM     11  C   UNL     1      34.302 -22.931 -18.690  0.00  0.00    +0.275 C 
ATOM     12  H   UNL     1      35.141 -21.466 -17.540  0.00  0.00    +0.150 HD
BRANCH  10  13
ATOM     13  C   UNL     1      36.355 -21.640 -19.245  0.00  0.00    +0.117 C 
BRANCH  13  15
ATOM     14  F   UNL     1      35.027 -17.693 -23.034  0.00  0.00    -0.204 F 
ATOM     15  C   UNL     1      36.001 -20.587 -20.256  0.00  0.00    -0.002 C 
ATOM     16  C   UNL     1      34.703 -20.514 -20.761  0.00  0.00    -0.000 C 
ATOM     17  C   UNL     1      36.970 -19.682 -20.689  0.00  0.00    -0.000 C 
ATOM     18  C   UNL     1      34.374 -19.537 -21.699  0.00  0.00    +0.029 C 
ATOM     19  C   UNL     1      36.641 -18.705 -21.628  0.00  0.00    +0.029 C 
ATOM     20  C   UNL     1      35.343 -18.632 -22.133  0.00  0.00    +0.140 C 
ENDBRANCH  13  15
ENDBRANCH  10  13
ENDBRANCH   6  11
BRANCH   4  21
ATOM     21  C   UNL     1      33.187 -24.429 -14.258  0.00  0.00    +0.117 C 
ATOM     22  C   UNL     1      33.331 -23.363 -13.180  0.00  0.00    +0.028 C 
ATOM     23  C   UNL     1      32.174 -25.493 -13.858  0.00  0.00    +0.028 C 
BRANCH  21  25
ATOM     24  O   UNL     1      35.347 -24.939 -12.437  0.00  0.00    -0.265 OA
ATOM     25  N   UNL     1      34.462 -25.018 -14.579  0.00  0.00    -0.293 N 
ATOM     26  C   UNL     1      35.449 -25.227 -13.627  0.00  0.00    +0.302 C 
ATOM     27  H   UNL     1      34.638 -25.284 -15.511  0.00  0.00    +0.150 HD
BRANCH  26  31
ATOM     28  O   UNL     1      37.873 -25.104 -14.066  0.00  0.00    -0.416 OA
ATOM     29  N   UNL     1      36.867 -27.018 -14.640  0.00  0.00    -0.102 NA
ATOM     30  N   UNL     1      38.208 -27.129 -14.956  0.00  0.00    -0.111 NA
ATOM     31  C   UNL     1      36.717 -25.821 -14.123  0.00  0.00    +0.304 A 
ATOM     32  C   UNL     1      38.756 -25.990 -14.604  0.00  0.00    +0.227 A 
ATOM     33  C   UNL     1      40.153 -25.551 -14.707  0.00  0.00    +0.097 C 
ENDBRANCH  26  31
ENDBRANCH  21  25
ENDBRANCH   4  21
BRANCH   8  34
ATOM     34  O   UNL     1      31.671 -22.039 -19.115  0.00  0.00    -0.370 OA
ATOM     35  H   UNL     1      31.536 -22.570 -19.875  0.00  0.00    +0.211 HD
ENDBRANCH   8  34
TORSDOF 7
ENDMDL
MODEL 3
REMARK VINA RESULT:     -10.3      1.988      2.875
REMARK  Name = 54671008
REMARK  7 active torsions:
REMARK  status: ('A' for Active; 'I' for Inactive)
REMARK    1  A    between atoms: C_4  and  C_21
REMARK    2  A    between atoms: C_6  and  C_11
REMARK    3  A    between atoms: C_8  and  O_34
REMARK    4  A    between atoms: N_10  and  C_13
REMARK    5  A    between atoms: C_13  and  C_15
REMARK    6  A    between atoms: C_21  and  N_25
REMARK    7  A    between atoms: C_26  and  C_31
REMARK                            x       y       z     vdW  Elec       q    Type
REMARK                         _______ _______ _______ _____ _____    ______ ____
ROOT
ATOM      1  O   UNL     1      37.962 -21.391 -16.879  0.00  0.00    -0.271 OA
ATOM      2  N   UNL     1      36.315 -22.763 -15.938  0.00  0.00    -0.232 N 
ATOM      3  N   UNL     1      34.339 -23.217 -17.180  0.00  0.00    -0.386 NA
ATOM      4  C   UNL     1      35.067 -23.354 -16.114  0.00  0.00    +0.182 C 
ATOM      5  C   UNL     1      36.873 -21.959 -16.936  0.00  0.00    +0.265 C 
ATOM      6  C   UNL     1      34.848 -22.439 -18.183  0.00  0.00    +0.199 C 
ATOM      7  C   UNL     1      37.050 -22.987 -14.695  0.00  0.00    +0.122 C 
ATOM      8  C   UNL     1      36.031 -21.808 -18.154  0.00  0.00    +0.245 C 
ENDROOT
BRANCH   6  11
ATOM      9  O   UNL     1      33.413 -23.268 -19.848  0.00  0.00    -0.268 OA
ATOM     10  N   UNL     1      33.982 -21.007 -19.870  0.00  0.00    -0.295 N 
ATOM     11  C   UNL     1      34.006 -22.299 -19.380  0.00  0.00    +0.275 C 
ATOM     12  H   UNL     1      34.504 -20.318 -19.400  0.00  0.00    +0.150 HD
BRANCH  10  13
ATOM     13  C   UNL     1      33.226 -20.618 -21.039  0.00  0.00    +0.117 C 
BRANCH  13  15
ATOM     14  F   UNL     1      35.897 -16.693 -24.066  0.00  0.00    -0.204 F 
ATOM     15  C   UNL     1      33.939 -19.571 -21.847  0.00  0.00    -0.002 C 
ATOM     16  C   UNL     1      34.822 -18.691 -21.222  0.00  0.00    -0.000 C 
ATOM     17  C   UNL     1      33.716 -19.479 -23.221  0.00  0.00    -0.000 C 
ATOM     18  C   UNL     1      35.483 -17.719 -21.972  0.00  0.00    +0.029 C 
ATOM     19  C   UNL     1      34.377 -18.506 -23.971  0.00  0.00    +0.029 C 
ATOM     20  C   UNL     1      35.261 -17.626 -23.346  0.00  0.00    +0.140 C 
ENDBRANCH  13  15
ENDBRANCH  10  13
ENDBRANCH   6  11
BRANCH   4  21
ATOM     21  C   UNL     1      34.521 -24.211 -14.997  0.00  0.00    +0.117 C 
ATOM     22  C   UNL     1      35.115 -25.611 -15.086  0.00  0.00    +0.028 C 
ATOM     23  C   UNL     1      34.825 -23.562 -13.654  0.00  0.00    +0.028 C 
BRANCH  21  25
ATOM     24  O   UNL     1      32.459 -25.076 -13.196  0.00  0.00    -0.265 OA
ATOM     25  N   UNL     1      33.105 -24.230 -15.258  0.00  0.00    -0.293 N 
ATOM     26  C   UNL     1      32.179 -24.667 -14.320  0.00  0.00    +0.302 C 
ATOM     27  H   UNL     1      32.781 -23.920 -16.134  0.00  0.00    +0.150 HD
BRANCH  26  31
ATOM     28  O   UNL     1      30.213 -23.505 -15.251  0.00  0.00    -0.416 OA
ATOM     29  N   UNL     1      29.916 -25.655 -14.708  0.00  0.00    -0.102 NA
ATOM     30  N   UNL     1      28.722 -25.172 -15.208  0.00  0.00    -0.111 NA
ATOM     31  C   UNL     1      30.757 -24.648 -14.752  0.00  0.00    +0.304 A 
ATOM     32  C   UNL     1      28.941 -23.914 -15.512  0.00  0.00    +0.227 A 
ATOM     33  C   UNL     1      28.028 -22.914 -16.080  0.00  0.00    +0.097 C 
ENDBRANCH  26  31
ENDBRANCH  21  25
ENDBRANCH   4  21
BRANCH   8  34
ATOM     34  O   UNL     1      36.507 -21.033 -19.186  0.00  0.00    -0.370 OA
ATOM     35  H   UNL     1      36.468 -21.349 -20.067  0.00  0.00    +0.211 HD
ENDBRANCH   8  34
TORSDOF 7
ENDMDL
MODEL 4
REMARK VINA RESULT:      -9.4      9.746     13.872
REMARK  Name = 54671008
REMARK  7 active torsions:
REMARK  status: ('A' for Active; 'I' for Inactive)
REMARK    1  A    between atoms: C_4  and  C_21
REMARK    2  A    between atoms: C_6  and  C_11
REMARK    3  A    between atoms: C_8  and  O_34
REMARK    4  A    between atoms: N_10  and  C_13
REMARK    5  A    between atoms: C_13  and  C_15
REMARK    6  A    between atoms: C_21  and  N_25
REMARK    7  A    between atoms: C_26  and  C_31
REMARK                            x       y       z     vdW  Elec       q    Type
REMARK                         _______ _______ _______ _____ _____    ______ ____
ROOT
ATOM      1  O   UNL     1      34.268 -12.753 -28.093  0.00  0.00    -0.271 OA
ATOM      2  N   UNL     1      34.168 -11.051 -26.490  0.00  0.00    -0.232 N 
ATOM      3  N   UNL     1      33.788 -11.625 -24.214  0.00  0.00    -0.386 NA
ATOM      4  C   UNL     1      33.993 -10.742 -25.143  0.00  0.00    +0.182 C 
ATOM      5  C   UNL     1      34.129 -12.376 -26.931  0.00  0.00    +0.265 C 
ATOM      6  C   UNL     1      33.744 -12.936 -24.602  0.00  0.00    +0.199 C 
ATOM      7  C   UNL     1      34.395  -9.974 -27.452  0.00  0.00    +0.122 C 
ATOM      8  C   UNL     1      33.894 -13.380 -25.857  0.00  0.00    +0.245 C 
ENDROOT
BRANCH   6  11
ATOM      9  O   UNL     1      32.449 -13.936 -22.917  0.00  0.00    -0.268 OA
ATOM     10  N   UNL     1      34.592 -14.755 -23.330  0.00  0.00    -0.295 N 
ATOM     11  C   UNL     1      33.512 -13.916 -23.532  0.00  0.00    +0.275 C 
ATOM     12  H   UNL     1      35.390 -14.635 -23.894  0.00  0.00    +0.150 HD
BRANCH  10  13
ATOM     13  C   UNL     1      34.606 -15.803 -22.334  0.00  0.00    +0.117 C 
BRANCH  13  15
ATOM     14  F   UNL     1      34.925 -20.921 -24.658  0.00  0.00    -0.204 F 
ATOM     15  C   UNL     1      34.691 -17.168 -22.954  0.00  0.00    -0.002 C 
ATOM     16  C   UNL     1      34.230 -17.373 -24.254  0.00  0.00    -0.000 C 
ATOM     17  C   UNL     1      35.230 -18.230 -22.229  0.00  0.00    -0.000 C 
ATOM     18  C   UNL     1      34.309 -18.640 -24.830  0.00  0.00    +0.029 C 
ATOM     19  C   UNL     1      35.309 -19.498 -22.804  0.00  0.00    +0.029 C 
ATOM     20  C   UNL     1      34.848 -19.703 -24.105  0.00  0.00    +0.140 C 
ENDBRANCH  13  15
ENDBRANCH  10  13
ENDBRANCH   6  11
BRANCH   4  21
ATOM     21  C   UNL     1      34.046  -9.290 -24.732  0.00  0.00    +0.117 C 
ATOM     22  C   UNL     1      35.495  -8.831 -24.650  0.00  0.00    +0.028 C 
ATOM     23  C   UNL     1      33.250  -8.447 -25.719  0.00  0.00    +0.028 C 
BRANCH  21  25
ATOM     24  O   UNL     1      33.495  -6.998 -23.093  0.00  0.00    -0.265 OA
ATOM     25  N   UNL     1      33.427  -9.292 -23.432  0.00  0.00    -0.293 N 
ATOM     26  C   UNL     1      33.199  -8.128 -22.711  0.00  0.00    +0.302 C 
ATOM     27  H   UNL     1      33.153 -10.153 -23.040  0.00  0.00    +0.150 HD
BRANCH  26  31
ATOM     28  O   UNL     1      31.830  -9.411 -21.111  0.00  0.00    -0.416 OA
ATOM     29  N   UNL     1      32.656  -7.471 -20.362  0.00  0.00    -0.102 NA
ATOM     30  N   UNL     1      31.923  -8.046 -19.341  0.00  0.00    -0.111 NA
ATOM     31  C   UNL     1      32.574  -8.302 -21.374  0.00  0.00    +0.304 A 
ATOM     32  C   UNL     1      31.460  -9.175 -19.822  0.00  0.00    +0.227 A 
ATOM     33  C   UNL     1      30.619 -10.193 -19.179  0.00  0.00    +0.097 C 
ENDBRANCH  26  31
ENDBRANCH  21  25
ENDBRANCH   4  21
BRANCH   8  34
ATOM     34  O   UNL     1      33.843 -14.710 -26.207  0.00  0.00    -0.370 OA
ATOM     35  H   UNL     1      33.024 -15.103 -26.437  0.00  0.00    +0.211 HD
ENDBRANCH   8  34
TORSDOF 7
ENDMDL
MODEL 5
REMARK VINA RESULT:      -9.2     11.007     14.895
REMARK  Name = 54671008
REMARK  7 active torsions:
REMARK  status: ('A' for Active; 'I' for Inactive)
REMARK    1  A    between atoms: C_4  and  C_21
REMARK    2  A    between atoms: C_6  and  C_11
REMARK    3  A    between atoms: C_8  and  O_34
REMARK    4  A    between atoms: N_10  and  C_13
REMARK    5  A    between atoms: C_13  and  C_15
REMARK    6  A    between atoms: C_21  and  N_25
REMARK    7  A    between atoms: C_26  and  C_31
REMARK                            x       y       z     vdW  Elec       q    Type
REMARK                         _______ _______ _______ _____ _____    ______ ____
ROOT
ATOM      1  O   UNL     1      31.733 -11.326 -21.492  0.00  0.00    -0.271 OA
ATOM      2  N   UNL     1      32.936 -10.252 -23.189  0.00  0.00    -0.232 N 
ATOM      3  N   UNL     1      33.798 -11.542 -24.990  0.00  0.00    -0.386 NA
ATOM      4  C   UNL     1      33.630 -10.406 -24.386  0.00  0.00    +0.182 C 
ATOM      5  C   UNL     1      32.361 -11.354 -22.548  0.00  0.00    +0.265 C 
ATOM      6  C   UNL     1      33.250 -12.647 -24.399  0.00  0.00    +0.199 C 
ATOM      7  C   UNL     1      32.806  -8.923 -22.596  0.00  0.00    +0.122 C 
ATOM      8  C   UNL     1      32.559 -12.651 -23.251  0.00  0.00    +0.245 C 
ENDROOT
BRANCH   6  11
ATOM      9  O   UNL     1      32.968 -14.108 -26.216  0.00  0.00    -0.268 OA
ATOM     10  N   UNL     1      34.213 -14.819 -24.378  0.00  0.00    -0.295 N 
ATOM     11  C   UNL     1      33.453 -13.921 -25.103  0.00  0.00    +0.275 C 
ATOM     12  H   UNL     1      34.543 -14.544 -23.492  0.00  0.00    +0.150 HD
BRANCH  10  13
ATOM     13  C   UNL     1      34.550 -16.140 -24.857  0.00  0.00    +0.117 C 
BRANCH  13  15
ATOM     14  F   UNL     1      35.021 -19.853 -20.650  0.00  0.00    -0.204 F 
ATOM     15  C   UNL     1      34.676 -17.130 -23.735  0.00  0.00    -0.002 C 
ATOM     16  C   UNL     1      34.380 -18.475 -23.956  0.00  0.00    -0.000 C 
ATOM     17  C   UNL     1      35.087 -16.705 -22.472  0.00  0.00    -0.000 C 
ATOM     18  C   UNL     1      34.496 -19.395 -22.914  0.00  0.00    +0.029 C 
ATOM     19  C   UNL     1      35.204 -17.624 -21.430  0.00  0.00    +0.029 C 
ATOM     20  C   UNL     1      34.908 -18.969 -21.651  0.00  0.00    +0.140 C 
ENDBRANCH  13  15
ENDBRANCH  10  13
ENDBRANCH   6  11
BRANCH   4  21
ATOM     21  C   UNL     1      34.227  -9.175 -25.026  0.00  0.00    +0.117 C 
ATOM     22  C   UNL     1      35.531  -8.814 -24.329  0.00  0.00    +0.028 C 
ATOM     23  C   UNL     1      34.438  -9.419 -26.514  0.00  0.00    +0.028 C 
BRANCH  21  25
ATOM     24  O   UNL     1      34.464  -6.367 -25.574  0.00  0.00    -0.265 OA
ATOM     25  N   UNL     1      33.222  -8.167 -24.802  0.00  0.00    -0.293 N 
ATOM     26  C   UNL     1      33.429  -6.827 -25.100  0.00  0.00    +0.302 C 
ATOM     27  H   UNL     1      32.355  -8.440 -24.423  0.00  0.00    +0.150 HD
BRANCH  26  31
ATOM     28  O   UNL     1      32.546  -4.592 -24.547  0.00  0.00    -0.416 OA
ATOM     29  N   UNL     1      31.033  -6.233 -24.705  0.00  0.00    -0.102 NA
ATOM     30  N   UNL     1      30.365  -5.065 -24.393  0.00  0.00    -0.111 NA
ATOM     31  C   UNL     1      32.303  -5.910 -24.786  0.00  0.00    +0.304 A 
ATOM     32  C   UNL     1      31.286  -4.134 -24.310  0.00  0.00    +0.227 A 
ATOM     33  C   UNL     1      31.149  -2.704 -24.006  0.00  0.00    +0.097 C 
ENDBRANCH  26  31
ENDBRANCH  21  25
ENDBRANCH   4  21
BRANCH   8  34
ATOM     34  O   UNL     1      32.023 -13.787 -22.687  0.00  0.00    -0.370 OA
ATOM     35  H   UNL     1      31.456 -14.337 -23.190  0.00  0.00    +0.211 HD
ENDBRANCH   8  34
TORSDOF 7
ENDMDL
MODEL 6
REMARK VINA RESULT:      -9.2     11.143     15.161
REMARK  Name = 54671008
REMARK  7 active torsions:
REMARK  status: ('A' for Active; 'I' for Inactive)
REMARK    1  A    between atoms: C_4  and  C_21
REMARK    2  A    between atoms: C_6  and  C_11
REMARK    3  A    between atoms: C_8  and  O_34
REMARK    4  A    between atoms: N_10  and  C_13
REMARK    5  A    between atoms: C_13  and  C_15
REMARK    6  A    between atoms: C_21  and  N_25
REMARK    7  A    between atoms: C_26  and  C_31
REMARK                            x       y       z     vdW  Elec       q    Type
REMARK                         _______ _______ _______ _____ _____    ______ ____
ROOT
ATOM      1  O   UNL     1      33.077  -6.680 -19.874  0.00  0.00    -0.271 OA
ATOM      2  N   UNL     1      32.578  -6.932 -22.147  0.00  0.00    -0.232 N 
ATOM      3  N   UNL     1      31.689  -8.999 -22.916  0.00  0.00    -0.386 NA
ATOM      4  C   UNL     1      32.092  -7.785 -23.135  0.00  0.00    +0.182 C 
ATOM      5  C   UNL     1      32.662  -7.352 -20.817  0.00  0.00    +0.265 C 
ATOM      6  C   UNL     1      31.753  -9.450 -21.627  0.00  0.00    +0.199 C 
ATOM      7  C   UNL     1      33.003  -5.580 -22.507  0.00  0.00    +0.122 C 
ATOM      8  C   UNL     1      32.197  -8.745 -20.577  0.00  0.00    +0.245 C 
ENDROOT
BRANCH   6  11
ATOM      9  O   UNL     1      30.094 -11.103 -21.446  0.00  0.00    -0.268 OA
ATOM     10  N   UNL     1      32.327 -11.707 -21.153  0.00  0.00    -0.295 N 
ATOM     11  C   UNL     1      31.290 -10.828 -21.403  0.00  0.00    +0.275 C 
ATOM     12  H   UNL     1      33.247 -11.357 -21.147  0.00  0.00    +0.150 HD
BRANCH  10  13
ATOM     13  C   UNL     1      32.126 -13.117 -20.902  0.00  0.00    +0.117 C 
BRANCH  13  15
ATOM     14  F   UNL     1      35.476 -16.324 -24.094  0.00  0.00    -0.204 F 
ATOM     15  C   UNL     1      33.020 -13.972 -21.754  0.00  0.00    -0.002 C 
ATOM     16  C   UNL     1      33.879 -14.894 -21.155  0.00  0.00    -0.000 C 
ATOM     17  C   UNL     1      32.991 -13.845 -23.142  0.00  0.00    -0.000 C 
ATOM     18  C   UNL     1      34.709 -15.688 -21.946  0.00  0.00    +0.029 C 
ATOM     19  C   UNL     1      33.821 -14.639 -23.933  0.00  0.00    +0.029 C 
ATOM     20  C   UNL     1      34.680 -15.561 -23.335  0.00  0.00    +0.140 C 
ENDBRANCH  13  15
ENDBRANCH  10  13
ENDBRANCH   6  11
BRANCH   4  21
ATOM     21  C   UNL     1      32.027  -7.268 -24.553  0.00  0.00    +0.117 C 
ATOM     22  C   UNL     1      30.584  -6.950 -24.919  0.00  0.00    +0.028 C 
ATOM     23  C   UNL     1      32.921  -6.044 -24.696  0.00  0.00    +0.028 C 
BRANCH  21  25
ATOM     24  O   UNL     1      34.739  -8.207 -24.644  0.00  0.00    -0.265 OA
ATOM     25  N   UNL     1      32.529  -8.373 -25.329  0.00  0.00    -0.293 N 
ATOM     26  C   UNL     1      33.863  -8.755 -25.308  0.00  0.00    +0.302 C 
ATOM     27  H   UNL     1      31.900  -8.877 -25.895  0.00  0.00    +0.150 HD
BRANCH  26  31
ATOM     28  O   UNL     1      33.485 -11.040 -26.156  0.00  0.00    -0.416 OA
ATOM     29  N   UNL     1      35.229  -9.945 -27.030  0.00  0.00    -0.102 NA
ATOM     30  N   UNL     1      35.172 -11.195 -27.617  0.00  0.00    -0.111 NA
ATOM     31  C   UNL     1      34.226  -9.899 -26.185  0.00  0.00    +0.304 A 
ATOM     32  C   UNL     1      34.140 -11.799 -27.077  0.00  0.00    +0.227 A 
ATOM     33  C   UNL     1      33.608 -13.145 -27.323  0.00  0.00    +0.097 C 
ENDBRANCH  26  31
ENDBRANCH  21  25
ENDBRANCH   4  21
BRANCH   8  34
ATOM     34  O   UNL     1      32.245  -9.237 -19.292  0.00  0.00    -0.370 OA
ATOM     35  H   UNL     1      31.987  -8.696 -18.573  0.00  0.00    +0.211 HD
ENDBRANCH   8  34
TORSDOF 7
ENDMDL
MODEL 7
REMARK VINA RESULT:      -8.9      6.306     10.036
REMARK  Name = 54671008
REMARK  7 active torsions:
REMARK  status: ('A' for Active; 'I' for Inactive)
REMARK    1  A    between atoms: C_4  and  C_21
REMARK    2  A    between atoms: C_6  and  C_11
REMARK    3  A    between atoms: C_8  and  O_34
REMARK    4  A    between atoms: N_10  and  C_13
REMARK    5  A    between atoms: C_13  and  C_15
REMARK    6  A    between atoms: C_21  and  N_25
REMARK    7  A    between atoms: C_26  and  C_31
REMARK                            x       y       z     vdW  Elec       q    Type
REMARK                         _______ _______ _______ _____ _____    ______ ____
ROOT
ATOM      1  O   UNL     1      32.825 -17.581 -25.871  0.00  0.00    -0.271 OA
ATOM      2  N   UNL     1      34.303 -18.100 -24.131  0.00  0.00    -0.232 N 
ATOM      3  N   UNL     1      34.979 -16.380 -22.636  0.00  0.00    -0.386 NA
ATOM      4  C   UNL     1      35.012 -17.614 -23.036  0.00  0.00    +0.182 C 
ATOM      5  C   UNL     1      33.488 -17.254 -24.888  0.00  0.00    +0.265 C 
ATOM      6  C   UNL     1      34.192 -15.518 -23.347  0.00  0.00    +0.199 C 
ATOM      7  C   UNL     1      34.413 -19.512 -24.493  0.00  0.00    +0.122 C 
ATOM      8  C   UNL     1      33.456 -15.841 -24.420  0.00  0.00    +0.245 C 
ENDROOT
BRANCH   6  11
ATOM      9  O   UNL     1      34.660 -13.823 -21.790  0.00  0.00    -0.268 OA
ATOM     10  N   UNL     1      33.556 -13.267 -23.766  0.00  0.00    -0.295 N 
ATOM     11  C   UNL     1      34.169 -14.126 -22.874  0.00  0.00    +0.275 C 
ATOM     12  H   UNL     1      33.202 -13.638 -24.606  0.00  0.00    +0.150 HD
BRANCH  10  13
ATOM     13  C   UNL     1      33.410 -11.849 -23.526  0.00  0.00    +0.117 C 
BRANCH  13  15
ATOM     14  F   UNL     1      35.876  -8.767 -27.541  0.00  0.00    -0.204 F 
ATOM     15  C   UNL     1      34.067 -11.027 -24.597  0.00  0.00    -0.002 C 
ATOM     16  C   UNL     1      34.199 -11.540 -25.887  0.00  0.00    -0.000 C 
ATOM     17  C   UNL     1      34.547  -9.751 -24.301  0.00  0.00    -0.000 C 
ATOM     18  C   UNL     1      34.810 -10.776 -26.881  0.00  0.00    +0.029 C 
ATOM     19  C   UNL     1      35.158  -8.987 -25.296  0.00  0.00    +0.029 C 
ATOM     20  C   UNL     1      35.290  -9.500 -26.586  0.00  0.00    +0.140 C 
ENDBRANCH  13  15
ENDBRANCH  10  13
ENDBRANCH   6  11
BRANCH   4  21
ATOM     21  C   UNL     1      35.876 -18.581 -22.261  0.00  0.00    +0.117 C 
ATOM     22  C   UNL     1      36.702 -19.419 -23.226  0.00  0.00    +0.028 C 
ATOM     23  C   UNL     1      36.762 -17.815 -21.288  0.00  0.00    +0.028 C 
BRANCH  21  25
ATOM     24  O   UNL     1      36.440 -20.573 -20.273  0.00  0.00    -0.265 OA
ATOM     25  N   UNL     1      34.914 -19.392 -21.560  0.00  0.00    -0.293 N 
ATOM     26  C   UNL     1      35.283 -20.334 -20.610  0.00  0.00    +0.302 C 
ATOM     27  H   UNL     1      33.957 -19.272 -21.762  0.00  0.00    +0.150 HD
BRANCH  26  31
ATOM     28  O   UNL     1      34.442 -22.047 -19.046  0.00  0.00    -0.416 OA
ATOM     29  N   UNL     1      32.895 -20.991 -20.271  0.00  0.00    -0.102 NA
ATOM     30  N   UNL     1      32.248 -21.905 -19.461  0.00  0.00    -0.111 NA
ATOM     31  C   UNL     1      34.173 -21.108 -19.995  0.00  0.00    +0.304 A 
ATOM     32  C   UNL     1      33.189 -22.498 -18.765  0.00  0.00    +0.227 A 
ATOM     33  C   UNL     1      33.079 -23.553 -17.750  0.00  0.00    +0.097 C 
ENDBRANCH  26  31
ENDBRANCH  21  25
ENDBRANCH   4  21
BRANCH   8  34
ATOM     34  O   UNL     1      32.675 -14.942 -25.110  0.00  0.00    -0.370 OA
ATOM     35  H   UNL     1      32.214 -14.271 -24.647  0.00  0.00    +0.211 HD
ENDBRANCH   8  34
TORSDOF 7
ENDMDL
