MODEL 1
REMARK VINA RESULT:     -11.6      0.000      0.000
REMARK  Name = 16755766
REMARK  5 active torsions:
REMARK  status: ('A' for Active; 'I' for Inactive)
REMARK    1  A    between atoms: N_1  and  C_25
REMARK    2  A    between atoms: N_3  and  C_12
REMARK    3  A    between atoms: C_5  and  C_20
REMARK    4  A    between atoms: C_25  and  C_26
REMARK    5  A    between atoms: C_26  and  C_29
REMARK                            x       y       z     vdW  Elec       q    Type
REMARK                         _______ _______ _______ _____ _____    ______ ____
ROOT
ATOM      1  N   UNL     1      32.414 -23.465 -16.269  0.00  0.00    -0.174 N 
ATOM      2  N   UNL     1      33.625 -23.654 -15.740  0.00  0.00    -0.096 NA
ATOM      3  N   UNL     1      34.161 -24.594 -13.601  0.00  0.00    -0.246 N 
ATOM      4  N   UNL     1      31.954 -24.346 -14.339  0.00  0.00    -0.319 NA
ATOM      5  C   UNL     1      31.425 -23.872 -15.444  0.00  0.00    +0.216 C 
ATOM      6  C   UNL     1      33.291 -24.193 -14.565  0.00  0.00    +0.165 C 
ATOM      7  H   UNL     1      33.725 -24.887 -12.769  0.00  0.00    +0.165 HD
ENDROOT
BRANCH   3  12
ATOM      8  F   UNL     1      40.351 -26.993 -14.344  0.00  0.00    -0.125 F 
ATOM      9  F   UNL     1      40.481 -25.254 -15.663  0.00  0.00    -0.125 F 
ATOM     10  O   UNL     1      38.449 -26.179 -15.271  0.00  0.00    -0.395 OA
ATOM     11  O   UNL     1      39.665 -24.977 -13.567  0.00  0.00    -0.395 OA
ATOM     12  C   UNL     1      35.581 -24.672 -13.565  0.00  0.00    +0.061 C 
ATOM     13  C   UNL     1      37.625 -25.486 -14.437  0.00  0.00    +0.183 C 
ATOM     14  C   UNL     1      36.247 -25.441 -14.514  0.00  0.00    +0.056 C 
ATOM     15  C   UNL     1      38.319 -24.799 -13.465  0.00  0.00    +0.182 C 
ATOM     16  C   UNL     1      36.279 -23.971 -12.572  0.00  0.00    +0.019 C 
ATOM     17  C   UNL     1      37.674 -24.032 -12.517  0.00  0.00    +0.042 C 
ATOM     18  C   UNL     1      39.724 -25.846 -14.706  0.00  0.00    +0.589 C 
ENDBRANCH   3  12
BRANCH   5  20
ATOM     19  N   UNL     1      27.294 -23.613 -16.350  0.00  0.00    -0.242 NA
ATOM     20  C   UNL     1      30.018 -23.784 -15.751  0.00  0.00    +0.050 C 
ATOM     21  C   UNL     1      29.304 -22.636 -15.426  0.00  0.00    +0.025 C 
ATOM     22  C   UNL     1      29.373 -24.846 -16.374  0.00  0.00    +0.025 C 
ATOM     23  C   UNL     1      27.955 -22.601 -15.744  0.00  0.00    +0.099 C 
ATOM     24  C   UNL     1      28.022 -24.712 -16.649  0.00  0.00    +0.099 C 
ENDBRANCH   5  20
BRANCH   1  25
ATOM     25  C   UNL     1      32.294 -22.865 -17.592  0.00  0.00    +0.129 C 
BRANCH  25  26
ATOM     26  C   UNL     1      33.622 -22.867 -18.348  0.00  0.00    +0.109 C 
BRANCH  26  29
ATOM     27  O   UNL     1      32.571 -21.685 -20.149  0.00  0.00    -0.275 OA
ATOM     28  N   UNL     1      34.845 -21.331 -19.864  0.00  0.00    -0.276 N 
ATOM     29  C   UNL     1      33.617 -21.912 -19.534  0.00  0.00    +0.228 C 
ATOM     30  C   UNL     1      36.071 -21.613 -19.121  0.00  0.00    +0.115 C 
ATOM     31  C   UNL     1      34.996 -20.399 -20.975  0.00  0.00    +0.115 C 
ENDBRANCH  26  29
ENDBRANCH  25  26
ENDBRANCH   1  25
TORSDOF 5
ENDMDL
MODEL 2
REMARK VINA RESULT:     -11.1      4.369      8.132
REMARK  Name = 16755766
REMARK  5 active torsions:
REMARK  status: ('A' for Active; 'I' for Inactive)
REMARK    1  A    between atoms: N_1  and  C_25
REMARK    2  A    between atoms: N_3  and  C_12
REMARK    3  A    between atoms: C_5  and  C_20
REMARK    4  A    between atoms: C_25  and  C_26
REMARK    5  A    between atoms: C_26  and  C_29
REMARK                            x       y       z     vdW  Elec       q    Type
REMARK                         _______ _______ _______ _____ _____    ______ ____
ROOT
ATOM      1  N   UNL     1      34.362 -23.778 -15.882  0.00  0.00    -0.174 N 
ATOM      2  N   UNL     1      34.260 -22.998 -16.960  0.00  0.00    -0.096 NA
ATOM      3  N   UNL     1      36.037 -22.007 -18.227  0.00  0.00    -0.246 N 
ATOM      4  N   UNL     1      36.437 -23.350 -16.352  0.00  0.00    -0.319 NA
ATOM      5  C   UNL     1      35.646 -23.988 -15.521  0.00  0.00    +0.216 C 
ATOM      6  C   UNL     1      35.551 -22.764 -17.208  0.00  0.00    +0.165 C 
ATOM      7  H   UNL     1      37.013 -21.880 -18.197  0.00  0.00    +0.165 HD
ENDROOT
BRANCH   3  12
ATOM      8  F   UNL     1      34.780 -17.517 -23.010  0.00  0.00    -0.125 F 
ATOM      9  F   UNL     1      35.168 -19.271 -24.259  0.00  0.00    -0.125 F 
ATOM     10  O   UNL     1      36.084 -19.179 -22.187  0.00  0.00    -0.395 OA
ATOM     11  O   UNL     1      33.711 -19.459 -22.533  0.00  0.00    -0.395 OA
ATOM     12  C   UNL     1      35.407 -21.363 -19.328  0.00  0.00    +0.061 C 
ATOM     13  C   UNL     1      35.513 -19.977 -21.243  0.00  0.00    +0.183 C 
ATOM     14  C   UNL     1      36.170 -20.582 -20.190  0.00  0.00    +0.056 C 
ATOM     15  C   UNL     1      34.159 -20.137 -21.441  0.00  0.00    +0.182 C 
ATOM     16  C   UNL     1      34.029 -21.531 -19.521  0.00  0.00    +0.019 C 
ATOM     17  C   UNL     1      33.389 -20.909 -20.596  0.00  0.00    +0.042 C 
ATOM     18  C   UNL     1      34.936 -18.865 -22.986  0.00  0.00    +0.589 C 
ENDBRANCH   3  12
BRANCH   5  20
ATOM     19  N   UNL     1      36.855 -26.328 -12.202  0.00  0.00    -0.242 NA
ATOM     20  C   UNL     1      36.056 -24.786 -14.391  0.00  0.00    +0.050 C 
ATOM     21  C   UNL     1      36.619 -26.042 -14.591  0.00  0.00    +0.025 C 
ATOM     22  C   UNL     1      35.893 -24.300 -13.099  0.00  0.00    +0.025 C 
ATOM     23  C   UNL     1      36.998 -26.767 -13.472  0.00  0.00    +0.099 C 
ATOM     24  C   UNL     1      36.304 -25.104 -12.048  0.00  0.00    +0.099 C 
ENDBRANCH   5  20
BRANCH   1  25
ATOM     25  C   UNL     1      33.153 -24.280 -15.242  0.00  0.00    +0.129 C 
BRANCH  25  26
ATOM     26  C   UNL     1      32.094 -23.191 -15.075  0.00  0.00    +0.109 C 
BRANCH  26  29
ATOM     27  O   UNL     1      30.842 -22.846 -17.089  0.00  0.00    -0.275 OA
ATOM     28  N   UNL     1      29.889 -24.243 -15.502  0.00  0.00    -0.276 N 
ATOM     29  C   UNL     1      30.894 -23.401 -15.989  0.00  0.00    +0.228 C 
ATOM     30  C   UNL     1      29.972 -24.890 -14.194  0.00  0.00    +0.115 C 
ATOM     31  C   UNL     1      28.681 -24.538 -16.263  0.00  0.00    +0.115 C 
ENDBRANCH  26  29
ENDBRANCH  25  26
ENDBRANCH   1  25
TORSDOF 5
ENDMDL
MODEL 3
REMARK VINA RESULT:     -10.4      4.470      8.231
REMARK  Name = 16755766
REMARK  5 active torsions:
REMARK  status: ('A' for Active; 'I' for Inactive)
REMARK    1  A    between atoms: N_1  and  C_25
REMARK    2  A    between atoms: N_3  and  C_12
REMARK    3  A    between atoms: C_5  and  C_20
REMARK    4  A    between atoms: C_25  and  C_26
REMARK    5  A    between atoms: C_26  and  C_29
REMARK                            x       y       z     vdW  Elec       q    Type
REMARK                         _______ _______ _______ _____ _____    ______ ____
ROOT
ATOM      1  N   UNL     1      34.577 -23.619 -15.130  0.00  0.00    -0.174 N 
ATOM      2  N   UNL     1      33.293 -23.728 -15.477  0.00  0.00    -0.096 NA
ATOM      3  N   UNL     1      31.484 -24.581 -14.156  0.00  0.00    -0.246 N 
ATOM      4  N   UNL     1      33.680 -24.482 -13.352  0.00  0.00    -0.319 NA
ATOM      5  C   UNL     1      34.809 -24.063 -13.876  0.00  0.00    +0.216 C 
ATOM      6  C   UNL     1      32.788 -24.258 -14.361  0.00  0.00    +0.165 C 
ATOM      7  H   UNL     1      31.318 -25.041 -13.302  0.00  0.00    +0.165 HD
ENDROOT
BRANCH   3  12
ATOM      8  F   UNL     1      25.569 -22.186 -16.132  0.00  0.00    -0.125 F 
ATOM      9  F   UNL     1      26.804 -21.517 -17.809  0.00  0.00    -0.125 F 
ATOM     10  O   UNL     1      27.789 -21.871 -15.798  0.00  0.00    -0.395 OA
ATOM     11  O   UNL     1      26.937 -23.681 -17.149  0.00  0.00    -0.395 OA
ATOM     12  C   UNL     1      30.313 -24.381 -14.939  0.00  0.00    +0.061 C 
ATOM     13  C   UNL     1      28.545 -23.000 -15.690  0.00  0.00    +0.183 C 
ATOM     14  C   UNL     1      29.678 -23.144 -14.914  0.00  0.00    +0.056 C 
ATOM     15  C   UNL     1      28.058 -24.032 -16.462  0.00  0.00    +0.182 C 
ATOM     16  C   UNL     1      29.825 -25.438 -15.720  0.00  0.00    +0.019 C 
ATOM     17  C   UNL     1      28.677 -25.265 -16.498  0.00  0.00    +0.042 C 
ATOM     18  C   UNL     1      26.785 -22.322 -16.718  0.00  0.00    +0.589 C 
ENDBRANCH   3  12
BRANCH   5  20
ATOM     19  N   UNL     1      38.612 -24.084 -12.009  0.00  0.00    -0.242 NA
ATOM     20  C   UNL     1      36.103 -24.072 -13.240  0.00  0.00    +0.050 C 
ATOM     21  C   UNL     1      36.987 -25.121 -13.468  0.00  0.00    +0.025 C 
ATOM     22  C   UNL     1      36.472 -23.030 -12.397  0.00  0.00    +0.025 C 
ATOM     23  C   UNL     1      38.219 -25.080 -12.835  0.00  0.00    +0.099 C 
ATOM     24  C   UNL     1      37.726 -23.083 -11.811  0.00  0.00    +0.099 C 
ENDBRANCH   5  20
BRANCH   1  25
ATOM     25  C   UNL     1      35.536 -23.077 -16.086  0.00  0.00    +0.129 C 
BRANCH  25  26
ATOM     26  C   UNL     1      34.891 -22.768 -17.436  0.00  0.00    +0.109 C 
BRANCH  26  29
ATOM     27  O   UNL     1      37.005 -21.831 -18.066  0.00  0.00    -0.275 OA
ATOM     28  N   UNL     1      35.229 -21.447 -19.508  0.00  0.00    -0.276 N 
ATOM     29  C   UNL     1      35.814 -21.978 -18.354  0.00  0.00    +0.228 C 
ATOM     30  C   UNL     1      33.816 -21.634 -19.829  0.00  0.00    +0.115 C 
ATOM     31  C   UNL     1      35.986 -20.667 -20.480  0.00  0.00    +0.115 C 
ENDBRANCH  26  29
ENDBRANCH  25  26
ENDBRANCH   1  25
TORSDOF 5
ENDMDL
MODEL 4
REMARK VINA RESULT:     -10.3      3.851      7.289
REMARK  Name = 16755766
REMARK  5 active torsions:
REMARK  status: ('A' for Active; 'I' for Inactive)
REMARK    1  A    between atoms: N_1  and  C_25
REMARK    2  A    between atoms: N_3  and  C_12
REMARK    3  A    between atoms: C_5  and  C_20
REMARK    4  A    between atoms: C_25  and  C_26
REMARK    5  A    between atoms: C_26  and  C_29
REMARK                            x       y       z     vdW  Elec       q    Type
REMARK                         _______ _______ _______ _____ _____    ______ ____
ROOT
ATOM      1  N   UNL     1      33.137 -23.508 -16.411  0.00  0.00    -0.174 N 
ATOM      2  N   UNL     1      33.699 -22.842 -17.422  0.00  0.00    -0.096 NA
ATOM      3  N   UNL     1      32.607 -21.827 -19.298  0.00  0.00    -0.246 N 
ATOM      4  N   UNL     1      31.424 -22.961 -17.627  0.00  0.00    -0.319 NA
ATOM      5  C   UNL     1      31.793 -23.580 -16.529  0.00  0.00    +0.216 C 
ATOM      6  C   UNL     1      32.615 -22.529 -18.135  0.00  0.00    +0.165 C 
ATOM      7  H   UNL     1      31.720 -21.770 -19.722  0.00  0.00    +0.165 HD
ENDROOT
BRANCH   3  12
ATOM      8  F   UNL     1      35.766 -18.651 -24.253  0.00  0.00    -0.125 F 
ATOM      9  F   UNL     1      35.819 -17.080 -22.731  0.00  0.00    -0.125 F 
ATOM     10  O   UNL     1      34.184 -18.648 -22.629  0.00  0.00    -0.395 OA
ATOM     11  O   UNL     1      36.497 -19.169 -22.170  0.00  0.00    -0.395 OA
ATOM     12  C   UNL     1      33.634 -21.159 -20.021  0.00  0.00    +0.061 C 
ATOM     13  C   UNL     1      34.321 -19.595 -21.658  0.00  0.00    +0.183 C 
ATOM     14  C   UNL     1      33.289 -20.215 -20.983  0.00  0.00    +0.056 C 
ATOM     15  C   UNL     1      35.640 -19.891 -21.397  0.00  0.00    +0.182 C 
ATOM     16  C   UNL     1      34.974 -21.468 -19.749  0.00  0.00    +0.019 C 
ATOM     17  C   UNL     1      35.999 -20.824 -20.446  0.00  0.00    +0.042 C 
ATOM     18  C   UNL     1      35.562 -18.396 -22.936  0.00  0.00    +0.589 C 
ENDBRANCH   3  12
BRANCH   5  20
ATOM     19  N   UNL     1      29.239 -25.527 -13.765  0.00  0.00    -0.242 NA
ATOM     20  C   UNL     1      30.925 -24.244 -15.588  0.00  0.00    +0.050 C 
ATOM     21  C   UNL     1      31.139 -24.102 -14.221  0.00  0.00    +0.025 C 
ATOM     22  C   UNL     1      29.870 -25.026 -16.044  0.00  0.00    +0.025 C 
ATOM     23  C   UNL     1      30.275 -24.758 -13.359  0.00  0.00    +0.099 C 
ATOM     24  C   UNL     1      29.064 -25.641 -15.100  0.00  0.00    +0.099 C 
ENDBRANCH   5  20
BRANCH   1  25
ATOM     25  C   UNL     1      33.979 -24.063 -15.359  0.00  0.00    +0.129 C 
BRANCH  25  26
ATOM     26  C   UNL     1      35.467 -23.927 -15.681  0.00  0.00    +0.109 C 
BRANCH  26  29
ATOM     27  O   UNL     1      36.262 -26.187 -15.744  0.00  0.00    -0.275 OA
ATOM     28  N   UNL     1      37.037 -24.864 -14.005  0.00  0.00    -0.276 N 
ATOM     29  C   UNL     1      36.284 -25.101 -15.159  0.00  0.00    +0.228 C 
ATOM     30  C   UNL     1      37.049 -23.569 -13.328  0.00  0.00    +0.115 C 
ATOM     31  C   UNL     1      37.867 -25.892 -13.388  0.00  0.00    +0.115 C 
ENDBRANCH  26  29
ENDBRANCH  25  26
ENDBRANCH   1  25
TORSDOF 5
ENDMDL
MODEL 5
REMARK VINA RESULT:      -9.7     12.845     16.860
REMARK  Name = 16755766
REMARK  5 active torsions:
REMARK  status: ('A' for Active; 'I' for Inactive)
REMARK    1  A    between atoms: N_1  and  C_25
REMARK    2  A    between atoms: N_3  and  C_12
REMARK    3  A    between atoms: C_5  and  C_20
REMARK    4  A    between atoms: C_25  and  C_26
REMARK    5  A    between atoms: C_26  and  C_29
REMARK                            x       y       z     vdW  Elec       q    Type
REMARK                         _______ _______ _______ _____ _____    ______ ____
ROOT
ATOM      1  N   UNL     1      33.084  -8.365 -23.778  0.00  0.00    -0.174 N 
ATOM      2  N   UNL     1      33.222  -9.692 -23.774  0.00  0.00    -0.096 NA
ATOM      3  N   UNL     1      33.464 -11.147 -25.664  0.00  0.00    -0.246 N 
ATOM      4  N   UNL     1      33.229  -8.829 -25.893  0.00  0.00    -0.319 NA
ATOM      5  C   UNL     1      33.088  -7.852 -25.027  0.00  0.00    +0.216 C 
ATOM      6  C   UNL     1      33.306  -9.927 -25.086  0.00  0.00    +0.165 C 
ATOM      7  H   UNL     1      33.418 -11.129 -26.647  0.00  0.00    +0.165 HD
ENDROOT
BRANCH   3  12
ATOM      8  F   UNL     1      32.983 -17.747 -24.753  0.00  0.00    -0.125 F 
ATOM      9  F   UNL     1      35.103 -17.612 -25.276  0.00  0.00    -0.125 F 
ATOM     10  O   UNL     1      33.690 -15.996 -26.008  0.00  0.00    -0.395 OA
ATOM     11  O   UNL     1      34.281 -16.230 -23.678  0.00  0.00    -0.395 OA
ATOM     12  C   UNL     1      33.681 -12.444 -25.121  0.00  0.00    +0.061 C 
ATOM     13  C   UNL     1      33.770 -14.795 -25.370  0.00  0.00    +0.183 C 
ATOM     14  C   UNL     1      33.550 -13.558 -25.943  0.00  0.00    +0.056 C 
ATOM     15  C   UNL     1      34.108 -14.929 -24.041  0.00  0.00    +0.182 C 
ATOM     16  C   UNL     1      34.024 -12.570 -23.768  0.00  0.00    +0.019 C 
ATOM     17  C   UNL     1      34.242 -13.833 -23.213  0.00  0.00    +0.042 C 
ATOM     18  C   UNL     1      34.014 -16.882 -24.927  0.00  0.00    +0.589 C 
ENDBRANCH   3  12
BRANCH   5  20
ATOM     19  N   UNL     1      32.680  -3.733 -25.934  0.00  0.00    -0.242 NA
ATOM     20  C   UNL     1      32.950  -6.450 -25.334  0.00  0.00    +0.050 C 
ATOM     21  C   UNL     1      34.080  -5.664 -25.534  0.00  0.00    +0.025 C 
ATOM     22  C   UNL     1      31.686  -5.879 -25.434  0.00  0.00    +0.025 C 
ATOM     23  C   UNL     1      33.892  -4.323 -25.829  0.00  0.00    +0.099 C 
ATOM     24  C   UNL     1      31.606  -4.529 -25.733  0.00  0.00    +0.099 C 
ENDBRANCH   5  20
BRANCH   1  25
ATOM     25  C   UNL     1      32.942  -7.654 -22.513  0.00  0.00    +0.129 C 
BRANCH  25  26
ATOM     26  C   UNL     1      31.626  -7.986 -21.811  0.00  0.00    +0.109 C 
BRANCH  26  29
ATOM     27  O   UNL     1      32.393  -8.441 -19.586  0.00  0.00    -0.275 OA
ATOM     28  N   UNL     1      31.334 -10.182 -20.694  0.00  0.00    -0.276 N 
ATOM     29  C   UNL     1      31.825  -8.876 -20.592  0.00  0.00    +0.228 C 
ATOM     30  C   UNL     1      30.665 -10.676 -21.896  0.00  0.00    +0.115 C 
ATOM     31  C   UNL     1      31.453 -11.149 -19.610  0.00  0.00    +0.115 C 
ENDBRANCH  26  29
ENDBRANCH  25  26
ENDBRANCH   1  25
TORSDOF 5
ENDMDL
MODEL 6
REMARK VINA RESULT:      -9.6      4.641      8.394
REMARK  Name = 16755766
REMARK  5 active torsions:
REMARK  status: ('A' for Active; 'I' for Inactive)
REMARK    1  A    between atoms: N_1  and  C_25
REMARK    2  A    between atoms: N_3  and  C_12
REMARK    3  A    between atoms: C_5  and  C_20
REMARK    4  A    between atoms: C_25  and  C_26
REMARK    5  A    between atoms: C_26  and  C_29
REMARK                            x       y       z     vdW  Elec       q    Type
REMARK                         _______ _______ _______ _____ _____    ______ ____
ROOT
ATOM      1  N   UNL     1      34.639 -22.909 -17.501  0.00  0.00    -0.174 N 
ATOM      2  N   UNL     1      34.815 -22.071 -18.524  0.00  0.00    -0.096 NA
ATOM      3  N   UNL     1      36.723 -20.694 -18.981  0.00  0.00    -0.246 N 
ATOM      4  N   UNL     1      36.615 -22.100 -17.114  0.00  0.00    -0.319 NA
ATOM      5  C   UNL     1      35.700 -22.929 -16.666  0.00  0.00    +0.216 C 
ATOM      6  C   UNL     1      36.033 -21.603 -18.244  0.00  0.00    +0.165 C 
ATOM      7  H   UNL     1      37.570 -20.408 -18.569  0.00  0.00    +0.165 HD
ENDROOT
BRANCH   3  12
ATOM      8  F   UNL     1      34.205 -19.684 -25.086  0.00  0.00    -0.125 F 
ATOM      9  F   UNL     1      33.347 -17.957 -24.055  0.00  0.00    -0.125 F 
ATOM     10  O   UNL     1      33.900 -19.790 -22.842  0.00  0.00    -0.395 OA
ATOM     11  O   UNL     1      35.567 -18.361 -23.846  0.00  0.00    -0.395 OA
ATOM     12  C   UNL     1      36.456 -20.077 -20.236  0.00  0.00    +0.061 C 
ATOM     13  C   UNL     1      35.025 -19.688 -22.079  0.00  0.00    +0.183 C 
ATOM     14  C   UNL     1      35.237 -20.308 -20.863  0.00  0.00    +0.056 C 
ATOM     15  C   UNL     1      35.975 -18.872 -22.652  0.00  0.00    +0.182 C 
ATOM     16  C   UNL     1      37.429 -19.250 -20.811  0.00  0.00    +0.019 C 
ATOM     17  C   UNL     1      37.189 -18.633 -22.042  0.00  0.00    +0.042 C 
ATOM     18  C   UNL     1      34.263 -18.950 -23.946  0.00  0.00    +0.589 C 
ENDBRANCH   3  12
BRANCH   5  20
ATOM     19  N   UNL     1      35.949 -25.306 -13.167  0.00  0.00    -0.242 NA
ATOM     20  C   UNL     1      35.786 -23.737 -15.474  0.00  0.00    +0.050 C 
ATOM     21  C   UNL     1      35.463 -23.192 -14.236  0.00  0.00    +0.025 C 
ATOM     22  C   UNL     1      36.190 -25.064 -15.560  0.00  0.00    +0.025 C 
ATOM     23  C   UNL     1      35.560 -24.012 -13.123  0.00  0.00    +0.099 C 
ATOM     24  C   UNL     1      36.254 -25.799 -14.387  0.00  0.00    +0.099 C 
ENDBRANCH   5  20
BRANCH   1  25
ATOM     25  C   UNL     1      33.393 -23.659 -17.393  0.00  0.00    +0.129 C 
BRANCH  25  26
ATOM     26  C   UNL     1      32.522 -23.164 -16.239  0.00  0.00    +0.109 C 
BRANCH  26  29
ATOM     27  O   UNL     1      30.617 -22.423 -17.490  0.00  0.00    -0.275 OA
ATOM     28  N   UNL     1      30.223 -24.009 -15.845  0.00  0.00    -0.276 N 
ATOM     29  C   UNL     1      31.041 -23.154 -16.591  0.00  0.00    +0.228 C 
ATOM     30  C   UNL     1      30.747 -24.868 -14.785  0.00  0.00    +0.115 C 
ATOM     31  C   UNL     1      28.786 -24.108 -16.067  0.00  0.00    +0.115 C 
ENDBRANCH  26  29
ENDBRANCH  25  26
ENDBRANCH   1  25
TORSDOF 5
ENDMDL
MODEL 7
REMARK VINA RESULT:      -9.4     13.002     17.554
REMARK  Name = 16755766
REMARK  5 active torsions:
REMARK  status: ('A' for Active; 'I' for Inactive)
REMARK    1  A    between atoms: N_1  and  C_25
REMARK    2  A    between atoms: N_3  and  C_12
REMARK    3  A    between atoms: C_5  and  C_20
REMARK    4  A    between atoms: C_25  and  C_26
REMARK    5  A    between atoms: C_26  and  C_29
REMARK                            x       y       z     vdW  Elec       q    Type
REMARK                         _______ _______ _______ _____ _____    ______ ____
ROOT
ATOM      1  N   UNL     1      33.138 -12.395 -23.299  0.00  0.00    -0.174 N 
ATOM      2  N   UNL     1      33.186 -11.080 -23.521  0.00  0.00    -0.096 NA
ATOM      3  N   UNL     1      34.397  -9.926 -25.237  0.00  0.00    -0.246 N 
ATOM      4  N   UNL     1      34.453 -12.255 -25.020  0.00  0.00    -0.319 NA
ATOM      5  C   UNL     1      33.885 -13.092 -24.182  0.00  0.00    +0.216 C 
ATOM      6  C   UNL     1      33.999 -11.046 -24.579  0.00  0.00    +0.165 C 
ATOM      7  H   UNL     1      35.066 -10.094 -25.939  0.00  0.00    +0.165 HD
ENDROOT
BRANCH   3  12
ATOM      8  F   UNL     1      31.284  -4.114 -26.312  0.00  0.00    -0.125 F 
ATOM      9  F   UNL     1      30.659  -4.477 -24.248  0.00  0.00    -0.125 F 
ATOM     10  O   UNL     1      31.225  -6.247 -25.547  0.00  0.00    -0.395 OA
ATOM     11  O   UNL     1      32.858  -4.647 -24.770  0.00  0.00    -0.395 OA
ATOM     12  C   UNL     1      34.032  -8.557 -25.106  0.00  0.00    +0.061 C 
ATOM     13  C   UNL     1      32.432  -6.823 -25.284  0.00  0.00    +0.183 C 
ATOM     14  C   UNL     1      32.737  -8.162 -25.427  0.00  0.00    +0.056 C 
ATOM     15  C   UNL     1      33.363  -5.910 -24.840  0.00  0.00    +0.182 C 
ATOM     16  C   UNL     1      34.986  -7.635 -24.654  0.00  0.00    +0.019 C 
ATOM     17  C   UNL     1      34.650  -6.286 -24.517  0.00  0.00    +0.042 C 
ATOM     18  C   UNL     1      31.516  -4.882 -25.218  0.00  0.00    +0.589 C 
ENDBRANCH   3  12
BRANCH   5  20
ATOM     19  N   UNL     1      34.301 -17.309 -24.174  0.00  0.00    -0.242 NA
ATOM     20  C   UNL     1      34.025 -14.528 -24.179  0.00  0.00    +0.050 C 
ATOM     21  C   UNL     1      33.507 -15.282 -25.227  0.00  0.00    +0.025 C 
ATOM     22  C   UNL     1      34.680 -15.162 -23.130  0.00  0.00    +0.025 C 
ATOM     23  C   UNL     1      33.671 -16.657 -25.177  0.00  0.00    +0.099 C 
ATOM     24  C   UNL     1      34.790 -16.542 -23.174  0.00  0.00    +0.099 C 
ENDBRANCH   5  20
BRANCH   1  25
ATOM     25  C   UNL     1      32.343 -12.908 -22.189  0.00  0.00    +0.129 C 
BRANCH  25  26
ATOM     26  C   UNL     1      31.153 -12.005 -21.868  0.00  0.00    +0.109 C 
BRANCH  26  29
ATOM     27  O   UNL     1      31.704 -11.529 -19.584  0.00  0.00    -0.275 OA
ATOM     28  N   UNL     1      31.358  -9.701 -20.969  0.00  0.00    -0.276 N 
ATOM     29  C   UNL     1      31.432 -11.071 -20.697  0.00  0.00    +0.228 C 
ATOM     30  C   UNL     1      31.035  -9.182 -22.296  0.00  0.00    +0.115 C 
ATOM     31  C   UNL     1      31.598  -8.688 -19.949  0.00  0.00    +0.115 C 
ENDBRANCH  26  29
ENDBRANCH  25  26
ENDBRANCH   1  25
TORSDOF 5
ENDMDL
MODEL 8
REMARK VINA RESULT:      -9.3      7.501     11.901
REMARK  Name = 16755766
REMARK  5 active torsions:
REMARK  status: ('A' for Active; 'I' for Inactive)
REMARK    1  A    between atoms: N_1  and  C_25
REMARK    2  A    between atoms: N_3  and  C_12
REMARK    3  A    between atoms: C_5  and  C_20
REMARK    4  A    between atoms: C_25  and  C_26
REMARK    5  A    between atoms: C_26  and  C_29
REMARK                            x       y       z     vdW  Elec       q    Type
REMARK                         _______ _______ _______ _____ _____    ______ ____
ROOT
ATOM      1  N   UNL     1      34.069 -14.313 -23.100  0.00  0.00    -0.174 N 
ATOM      2  N   UNL     1      34.377 -15.495 -22.564  0.00  0.00    -0.096 NA
ATOM      3  N   UNL     1      35.094 -17.479 -23.702  0.00  0.00    -0.246 N 
ATOM      4  N   UNL     1      34.596 -15.496 -24.841  0.00  0.00    -0.319 NA
ATOM      5  C   UNL     1      34.198 -14.310 -24.444  0.00  0.00    +0.216 C 
ATOM      6  C   UNL     1      34.692 -16.182 -23.665  0.00  0.00    +0.165 C 
ATOM      7  H   UNL     1      35.198 -17.837 -24.613  0.00  0.00    +0.165 HD
ENDROOT
BRANCH   3  12
ATOM      8  F   UNL     1      34.269 -21.587 -18.499  0.00  0.00    -0.125 F 
ATOM      9  F   UNL     1      34.881 -23.044 -20.011  0.00  0.00    -0.125 F 
ATOM     10  O   UNL     1      33.908 -21.110 -20.686  0.00  0.00    -0.395 OA
ATOM     11  O   UNL     1      36.126 -21.171 -19.733  0.00  0.00    -0.395 OA
ATOM     12  C   UNL     1      35.392 -18.420 -22.677  0.00  0.00    +0.061 C 
ATOM     13  C   UNL     1      34.738 -20.183 -21.242  0.00  0.00    +0.183 C 
ATOM     14  C   UNL     1      34.400 -19.291 -22.239  0.00  0.00    +0.056 C 
ATOM     15  C   UNL     1      36.003 -20.219 -20.698  0.00  0.00    +0.182 C 
ATOM     16  C   UNL     1      36.682 -18.447 -22.129  0.00  0.00    +0.019 C 
ATOM     17  C   UNL     1      36.998 -19.362 -21.122  0.00  0.00    +0.042 C 
ATOM     18  C   UNL     1      34.800 -21.718 -19.741  0.00  0.00    +0.589 C 
ENDBRANCH   3  12
BRANCH   5  20
ATOM     19  N   UNL     1      33.407 -10.967 -26.925  0.00  0.00    -0.242 NA
ATOM     20  C   UNL     1      33.927 -13.171 -25.288  0.00  0.00    +0.050 C 
ATOM     21  C   UNL     1      34.173 -11.883 -24.823  0.00  0.00    +0.025 C 
ATOM     22  C   UNL     1      33.421 -13.358 -26.569  0.00  0.00    +0.025 C 
ATOM     23  C   UNL     1      33.899 -10.825 -25.674  0.00  0.00    +0.099 C 
ATOM     24  C   UNL     1      33.180 -12.233 -27.341  0.00  0.00    +0.099 C 
ENDBRANCH   5  20
BRANCH   1  25
ATOM     25  C   UNL     1      33.642 -13.220 -22.233  0.00  0.00    +0.129 C 
BRANCH  25  26
ATOM     26  C   UNL     1      32.123 -13.057 -22.219  0.00  0.00    +0.109 C 
BRANCH  26  29
ATOM     27  O   UNL     1      31.560 -13.125 -19.891  0.00  0.00    -0.275 OA
ATOM     28  N   UNL     1      31.232 -11.103 -20.978  0.00  0.00    -0.276 N 
ATOM     29  C   UNL     1      31.616 -12.446 -20.920  0.00  0.00    +0.228 C 
ATOM     30  C   UNL     1      31.307 -10.318 -22.208  0.00  0.00    +0.115 C 
ATOM     31  C   UNL     1      30.725 -10.384 -19.815  0.00  0.00    +0.115 C 
ENDBRANCH  26  29
ENDBRANCH  25  26
ENDBRANCH   1  25
TORSDOF 5
ENDMDL
MODEL 9
REMARK VINA RESULT:      -8.7     10.549     14.634
REMARK  Name = 16755766
REMARK  5 active torsions:
REMARK  status: ('A' for Active; 'I' for Inactive)
REMARK    1  A    between atoms: N_1  and  C_25
REMARK    2  A    between atoms: N_3  and  C_12
REMARK    3  A    between atoms: C_5  and  C_20
REMARK    4  A    between atoms: C_25  and  C_26
REMARK    5  A    between atoms: C_26  and  C_29
REMARK                            x       y       z     vdW  Elec       q    Type
REMARK                         _______ _______ _______ _____ _____    ______ ____
ROOT
ATOM      1  N   UNL     1      33.795 -11.113 -24.484  0.00  0.00    -0.174 N 
ATOM      2  N   UNL     1      34.184 -12.362 -24.223  0.00  0.00    -0.096 NA
ATOM      3  N   UNL     1      33.401 -13.807 -22.478  0.00  0.00    -0.246 N 
ATOM      4  N   UNL     1      32.583 -11.632 -22.760  0.00  0.00    -0.319 NA
ATOM      5  C   UNL     1      32.850 -10.679 -23.622  0.00  0.00    +0.216 C 
ATOM      6  C   UNL     1      33.417 -12.635 -23.164  0.00  0.00    +0.165 C 
ATOM      7  H   UNL     1      32.833 -13.790 -21.674  0.00  0.00    +0.165 HD
ENDROOT
BRANCH   3  12
ATOM      8  F   UNL     1      37.459 -19.034 -21.566  0.00  0.00    -0.125 F 
ATOM      9  F   UNL     1      35.529 -20.057 -21.459  0.00  0.00    -0.125 F 
ATOM     10  O   UNL     1      35.629 -17.852 -20.941  0.00  0.00    -0.395 OA
ATOM     11  O   UNL     1      35.929 -18.659 -23.197  0.00  0.00    -0.395 OA
ATOM     12  C   UNL     1      34.049 -15.055 -22.697  0.00  0.00    +0.061 C 
ATOM     13  C   UNL     1      35.123 -16.994 -21.871  0.00  0.00    +0.183 C 
ATOM     14  C   UNL     1      34.500 -15.791 -21.607  0.00  0.00    +0.056 C 
ATOM     15  C   UNL     1      35.294 -17.455 -23.157  0.00  0.00    +0.182 C 
ATOM     16  C   UNL     1      34.220 -15.515 -24.010  0.00  0.00    +0.019 C 
ATOM     17  C   UNL     1      34.853 -16.737 -24.250  0.00  0.00    +0.042 C 
ATOM     18  C   UNL     1      36.130 -18.889 -21.795  0.00  0.00    +0.589 C 
ENDBRANCH   3  12
BRANCH   5  20
ATOM     19  N   UNL     1      31.082  -6.830 -23.734  0.00  0.00    -0.242 NA
ATOM     20  C   UNL     1      32.249  -9.368 -23.661  0.00  0.00    +0.050 C 
ATOM     21  C   UNL     1      32.007  -8.746 -24.882  0.00  0.00    +0.025 C 
ATOM     22  C   UNL     1      31.909  -8.722 -22.478  0.00  0.00    +0.025 C 
ATOM     23  C   UNL     1      31.426  -7.488 -24.864  0.00  0.00    +0.099 C 
ATOM     24  C   UNL     1      31.333  -7.465 -22.568  0.00  0.00    +0.099 C 
ENDBRANCH   5  20
BRANCH   1  25
ATOM     25  C   UNL     1      34.401 -10.389 -25.595  0.00  0.00    +0.129 C 
BRANCH  25  26
ATOM     26  C   UNL     1      35.469  -9.402 -25.125  0.00  0.00    +0.109 C 
BRANCH  26  29
ATOM     27  O   UNL     1      35.502  -7.982 -27.056  0.00  0.00    -0.275 OA
ATOM     28  N   UNL     1      35.124  -6.948 -25.015  0.00  0.00    -0.276 N 
ATOM     29  C   UNL     1      35.369  -8.057 -25.832  0.00  0.00    +0.228 C 
ATOM     30  C   UNL     1      34.970  -7.060 -23.566  0.00  0.00    +0.115 C 
ATOM     31  C   UNL     1      35.004  -5.597 -25.547  0.00  0.00    +0.115 C 
ENDBRANCH  26  29
ENDBRANCH  25  26
ENDBRANCH   1  25
TORSDOF 5
ENDMDL
