MODEL 1
REMARK VINA RESULT:     -13.3      0.000      0.000
REMARK  Name = 25171648
REMARK  8 active torsions:
REMARK  status: ('A' for Active; 'I' for Inactive)
REMARK    1  A    between atoms: C_1  and  C_12
REMARK    2  A    between atoms: C_2  and  C_23
REMARK    3  A    between atoms: C_9  and  O_13
REMARK    4  A    between atoms: O_13  and  C_14
REMARK    5  A    between atoms: C_14  and  C_16
REMARK    6  A    between atoms: C_23  and  N_25
REMARK    7  A    between atoms: C_27  and  C_31
REMARK    8  A    between atoms: C_34  and  C_38
REMARK                            x       y       z     vdW  Elec       q    Type
REMARK                         _______ _______ _______ _____ _____    ______ ____
ROOT
ATOM      1  C   UNL     1      35.196 -20.420 -20.510  0.00  0.00    +0.062 C 
ATOM      2  C   UNL     1      34.174 -22.224 -19.270  0.00  0.00    +0.000 C 
ATOM      3  C   UNL     1      34.092 -21.231 -20.247  0.00  0.00    +0.007 C 
ATOM      4  C   UNL     1      36.381 -20.602 -19.797  0.00  0.00    +0.010 C 
ATOM      5  C   UNL     1      35.359 -22.405 -18.557  0.00  0.00    -0.003 C 
ATOM      6  C   UNL     1      36.463 -21.595 -18.822  0.00  0.00    +0.000 C 
ENDROOT
BRANCH   1  12
ATOM      7  N   UNL     1      35.444 -18.148 -21.137  0.00  0.00    -0.212 NA
ATOM      8  N   UNL     1      34.708 -19.788 -22.742  0.00  0.00    -0.190 NA
ATOM      9  C   UNL     1      34.954 -17.485 -23.399  0.00  0.00    +0.161 C 
ATOM     10  C   UNL     1      35.354 -17.214 -22.107  0.00  0.00    +0.201 C 
ATOM     11  C   UNL     1      34.641 -18.803 -23.662  0.00  0.00    +0.144 C 
ATOM     12  C   UNL     1      35.111 -19.395 -21.519  0.00  0.00    +0.031 C 
BRANCH   9  13
ATOM     13  O   UNL     1      34.875 -16.508 -24.361  0.00  0.00    -0.476 OA
BRANCH  13  14
ATOM     14  C   UNL     1      33.597 -16.246 -24.908  0.00  0.00    +0.205 C 
BRANCH  14  16
ATOM     15  N   UNL     1      34.259 -11.981 -24.743  0.00  0.00    +0.386 N 
ATOM     16  C   UNL     1      33.307 -14.755 -24.774  0.00  0.00    +0.040 C 
ATOM     17  C   UNL     1      33.692 -14.002 -26.053  0.00  0.00    -0.019 C 
ATOM     18  C   UNL     1      34.050 -14.153 -23.577  0.00  0.00    -0.019 C 
ATOM     19  C   UNL     1      33.498 -12.493 -25.892  0.00  0.00    -0.077 C 
ATOM     20  C   UNL     1      33.843 -12.639 -23.497  0.00  0.00    -0.077 C 
ATOM     21  C   UNL     1      34.104 -10.530 -24.633  0.00  0.00    -0.101 C 
ATOM     22  H   UNL     1      35.244 -12.194 -24.898  0.00  0.00    -0.080 HD
ENDBRANCH  14  16
ENDBRANCH  13  14
ENDBRANCH   9  13
ENDBRANCH   1  12
BRANCH   2  23
ATOM     23  C   UNL     1      32.993 -23.091 -18.986  0.00  0.00    +0.146 C 
BRANCH  23  25
ATOM     24  O   UNL     1      30.576 -22.336 -17.644  0.00  0.00    -0.268 OA
ATOM     25  N   UNL     1      32.727 -23.213 -17.563  0.00  0.00    -0.173 N 
ATOM     26  N   UNL     1      33.756 -23.733 -16.831  0.00  0.00    -0.175 NA
ATOM     27  C   UNL     1      33.594 -23.865 -15.554  0.00  0.00    +0.099 C 
ATOM     28  C   UNL     1      31.517 -22.818 -17.013  0.00  0.00    +0.268 C 
ATOM     29  C   UNL     1      32.358 -23.514 -14.829  0.00  0.00    +0.025 C 
ATOM     30  C   UNL     1      31.365 -23.007 -15.555  0.00  0.00    +0.061 C 
BRANCH  27  31
ATOM     31  C   UNL     1      34.709 -24.425 -14.745  0.00  0.00    +0.020 C 
ATOM     32  C   UNL     1      34.759 -24.195 -13.370  0.00  0.00    +0.012 C 
ATOM     33  C   UNL     1      35.706 -25.181 -15.362  0.00  0.00    +0.002 C 
ATOM     34  C   UNL     1      35.805 -24.721 -12.613  0.00  0.00    +0.068 C 
ATOM     35  C   UNL     1      36.753 -25.708 -14.604  0.00  0.00    +0.001 C 
ATOM     36  C   UNL     1      36.802 -25.478 -13.229  0.00  0.00    +0.010 C 
BRANCH  34  38
ATOM     37  N   UNL     1      35.899 -24.294 -10.060  0.00  0.00    -0.191 NA
ATOM     38  C   UNL     1      35.857 -24.485 -11.204  0.00  0.00    +0.100 C 
ENDBRANCH  34  38
ENDBRANCH  27  31
ENDBRANCH  23  25
ENDBRANCH   2  23
TORSDOF 8
ENDMDL
MODEL 2
REMARK VINA RESULT:     -13.0      1.108      1.524
REMARK  Name = 25171648
REMARK  8 active torsions:
REMARK  status: ('A' for Active; 'I' for Inactive)
REMARK    1  A    between atoms: C_1  and  C_12
REMARK    2  A    between atoms: C_2  and  C_23
REMARK    3  A    between atoms: C_9  and  O_13
REMARK    4  A    between atoms: O_13  and  C_14
REMARK    5  A    between atoms: C_14  and  C_16
REMARK    6  A    between atoms: C_23  and  N_25
REMARK    7  A    between atoms: C_27  and  C_31
REMARK    8  A    between atoms: C_34  and  C_38
REMARK                            x       y       z     vdW  Elec       q    Type
REMARK                         _______ _______ _______ _____ _____    ______ ____
ROOT
ATOM      1  C   UNL     1      35.284 -20.607 -20.276  0.00  0.00    +0.062 C 
ATOM      2  C   UNL     1      34.264 -22.383 -18.994  0.00  0.00    +0.000 C 
ATOM      3  C   UNL     1      34.193 -21.436 -20.017  0.00  0.00    +0.007 C 
ATOM      4  C   UNL     1      36.446 -20.724 -19.513  0.00  0.00    +0.010 C 
ATOM      5  C   UNL     1      35.425 -22.499 -18.232  0.00  0.00    -0.003 C 
ATOM      6  C   UNL     1      36.517 -21.671 -18.491  0.00  0.00    +0.000 C 
ENDROOT
BRANCH   1  12
ATOM      7  N   UNL     1      35.830 -18.456 -21.108  0.00  0.00    -0.212 NA
ATOM      8  N   UNL     1      34.531 -19.989 -22.437  0.00  0.00    -0.190 NA
ATOM      9  C   UNL     1      35.075 -17.809 -23.300  0.00  0.00    +0.161 C 
ATOM     10  C   UNL     1      35.742 -17.564 -22.117  0.00  0.00    +0.201 C 
ATOM     11  C   UNL     1      34.483 -19.051 -23.406  0.00  0.00    +0.144 C 
ATOM     12  C   UNL     1      35.211 -19.630 -21.331  0.00  0.00    +0.031 C 
BRANCH   9  13
ATOM     13  O   UNL     1      35.006 -16.878 -24.307  0.00  0.00    -0.476 OA
BRANCH  13  14
ATOM     14  C   UNL     1      33.731 -16.626 -24.865  0.00  0.00    +0.205 C 
BRANCH  14  16
ATOM     15  N   UNL     1      34.260 -12.344 -24.662  0.00  0.00    +0.386 N 
ATOM     16  C   UNL     1      33.402 -15.148 -24.680  0.00  0.00    +0.040 C 
ATOM     17  C   UNL     1      33.667 -14.360 -25.968  0.00  0.00    -0.019 C 
ATOM     18  C   UNL     1      34.210 -14.543 -23.527  0.00  0.00    -0.019 C 
ATOM     19  C   UNL     1      33.435 -12.862 -25.762  0.00  0.00    -0.077 C 
ATOM     20  C   UNL     1      33.959 -13.038 -23.402  0.00  0.00    -0.077 C 
ATOM     21  C   UNL     1      34.066 -10.902 -24.511  0.00  0.00    -0.101 C 
ATOM     22  H   UNL     1      35.238 -12.520 -24.892  0.00  0.00    -0.080 HD
ENDBRANCH  14  16
ENDBRANCH  13  14
ENDBRANCH   9  13
ENDBRANCH   1  12
BRANCH   2  23
ATOM     23  C   UNL     1      33.097 -23.269 -18.716  0.00  0.00    +0.146 C 
BRANCH  23  25
ATOM     24  O   UNL     1      30.624 -22.426 -17.539  0.00  0.00    -0.268 OA
ATOM     25  N   UNL     1      32.760 -23.311 -17.303  0.00  0.00    -0.173 N 
ATOM     26  N   UNL     1      33.747 -23.796 -16.494  0.00  0.00    -0.175 NA
ATOM     27  C   UNL     1      33.521 -23.856 -15.221  0.00  0.00    +0.099 C 
ATOM     28  C   UNL     1      31.527 -22.879 -16.836  0.00  0.00    +0.268 C 
ATOM     29  C   UNL     1      32.254 -23.459 -14.578  0.00  0.00    +0.025 C 
ATOM     30  C   UNL     1      31.302 -22.986 -15.380  0.00  0.00    +0.061 C 
BRANCH  27  31
ATOM     31  C   UNL     1      34.590 -24.378 -14.328  0.00  0.00    +0.020 C 
ATOM     32  C   UNL     1      35.693 -25.037 -14.871  0.00  0.00    +0.012 C 
ATOM     33  C   UNL     1      34.490 -24.206 -12.947  0.00  0.00    +0.002 C 
ATOM     34  C   UNL     1      36.695 -25.525 -14.032  0.00  0.00    +0.068 C 
ATOM     35  C   UNL     1      35.492 -24.695 -12.109  0.00  0.00    +0.001 C 
ATOM     36  C   UNL     1      36.595 -25.353 -12.651  0.00  0.00    +0.010 C 
BRANCH  34  38
ATOM     37  N   UNL     1      38.744 -26.750 -15.038  0.00  0.00    -0.191 NA
ATOM     38  C   UNL     1      37.826 -26.201 -14.588  0.00  0.00    +0.100 C 
ENDBRANCH  34  38
ENDBRANCH  27  31
ENDBRANCH  23  25
ENDBRANCH   2  23
TORSDOF 8
ENDMDL
MODEL 3
REMARK VINA RESULT:     -13.0      2.088      3.794
REMARK  Name = 25171648
REMARK  8 active torsions:
REMARK  status: ('A' for Active; 'I' for Inactive)
REMARK    1  A    between atoms: C_1  and  C_12
REMARK    2  A    between atoms: C_2  and  C_23
REMARK    3  A    between atoms: C_9  and  O_13
REMARK    4  A    between atoms: O_13  and  C_14
REMARK    5  A    between atoms: C_14  and  C_16
REMARK    6  A    between atoms: C_23  and  N_25
REMARK    7  A    between atoms: C_27  and  C_31
REMARK    8  A    between atoms: C_34  and  C_38
REMARK                            x       y       z     vdW  Elec       q    Type
REMARK                         _______ _______ _______ _____ _____    ______ ____
ROOT
ATOM      1  C   UNL     1      34.288 -20.381 -20.664  0.00  0.00    +0.062 C 
ATOM      2  C   UNL     1      35.204 -21.890 -19.015  0.00  0.00    +0.000 C 
ATOM      3  C   UNL     1      35.383 -20.875 -19.956  0.00  0.00    +0.007 C 
ATOM      4  C   UNL     1      33.015 -20.901 -20.432  0.00  0.00    +0.010 C 
ATOM      5  C   UNL     1      33.931 -22.410 -18.783  0.00  0.00    -0.003 C 
ATOM      6  C   UNL     1      32.836 -21.915 -19.491  0.00  0.00    +0.000 C 
ENDROOT
BRANCH   1  12
ATOM      7  N   UNL     1      34.002 -19.572 -22.873  0.00  0.00    -0.212 NA
ATOM      8  N   UNL     1      35.097 -18.220 -21.207  0.00  0.00    -0.190 NA
ATOM      9  C   UNL     1      34.816 -17.380 -23.445  0.00  0.00    +0.161 C 
ATOM     10  C   UNL     1      34.191 -18.570 -23.757  0.00  0.00    +0.201 C 
ATOM     11  C   UNL     1      35.252 -17.259 -22.141  0.00  0.00    +0.144 C 
ATOM     12  C   UNL     1      34.472 -19.334 -21.635  0.00  0.00    +0.031 C 
BRANCH   9  13
ATOM     13  O   UNL     1      34.991 -16.382 -24.371  0.00  0.00    -0.476 OA
BRANCH  13  14
ATOM     14  C   UNL     1      33.886 -16.068 -25.196  0.00  0.00    +0.205 C 
BRANCH  14  16
ATOM     15  N   UNL     1      34.258 -11.792 -24.709  0.00  0.00    +0.386 N 
ATOM     16  C   UNL     1      33.495 -14.613 -24.954  0.00  0.00    +0.040 C 
ATOM     17  C   UNL     1      33.833 -13.743 -26.171  0.00  0.00    -0.019 C 
ATOM     18  C   UNL     1      34.192 -14.054 -23.709  0.00  0.00    -0.019 C 
ATOM     19  C   UNL     1      33.537 -12.267 -25.899  0.00  0.00    -0.077 C 
ATOM     20  C   UNL     1      33.884 -12.567 -23.519  0.00  0.00    -0.077 C 
ATOM     21  C   UNL     1      34.005 -10.367 -24.493  0.00  0.00    -0.101 C 
ATOM     22  H   UNL     1      35.255 -11.927 -24.872  0.00  0.00    -0.080 HD
ENDBRANCH  14  16
ENDBRANCH  13  14
ENDBRANCH   9  13
ENDBRANCH   1  12
BRANCH   2  23
ATOM     23  C   UNL     1      36.374 -22.419 -18.256  0.00  0.00    +0.146 C 
BRANCH  23  25
ATOM     24  O   UNL     1      38.169 -22.481 -16.023  0.00  0.00    -0.268 OA
ATOM     25  N   UNL     1      36.032 -22.773 -16.889  0.00  0.00    -0.173 N 
ATOM     26  N   UNL     1      34.723 -23.111 -16.696  0.00  0.00    -0.175 NA
ATOM     27  C   UNL     1      34.347 -23.445 -15.503  0.00  0.00    +0.099 C 
ATOM     28  C   UNL     1      36.981 -22.768 -15.877  0.00  0.00    +0.268 C 
ATOM     29  C   UNL     1      35.231 -23.463 -14.323  0.00  0.00    +0.025 C 
ATOM     30  C   UNL     1      36.505 -23.134 -14.527  0.00  0.00    +0.061 C 
BRANCH  27  31
ATOM     31  C   UNL     1      32.925 -23.820 -15.281  0.00  0.00    +0.020 C 
ATOM     32  C   UNL     1      31.916 -23.198 -16.016  0.00  0.00    +0.012 C 
ATOM     33  C   UNL     1      32.601 -24.796 -14.338  0.00  0.00    +0.002 C 
ATOM     34  C   UNL     1      30.582 -23.551 -15.807  0.00  0.00    +0.068 C 
ATOM     35  C   UNL     1      31.267 -25.149 -14.129  0.00  0.00    +0.001 C 
ATOM     36  C   UNL     1      30.258 -24.527 -14.863  0.00  0.00    +0.010 C 
BRANCH  34  38
ATOM     37  N   UNL     1      28.707 -22.395 -17.169  0.00  0.00    -0.191 NA
ATOM     38  C   UNL     1      29.547 -22.913 -16.558  0.00  0.00    +0.100 C 
ENDBRANCH  34  38
ENDBRANCH  27  31
ENDBRANCH  23  25
ENDBRANCH   2  23
TORSDOF 8
ENDMDL
MODEL 4
REMARK VINA RESULT:     -12.4      4.224     15.243
REMARK  Name = 25171648
REMARK  8 active torsions:
REMARK  status: ('A' for Active; 'I' for Inactive)
REMARK    1  A    between atoms: C_1  and  C_12
REMARK    2  A    between atoms: C_2  and  C_23
REMARK    3  A    between atoms: C_9  and  O_13
REMARK    4  A    between atoms: O_13  and  C_14
REMARK    5  A    between atoms: C_14  and  C_16
REMARK    6  A    between atoms: C_23  and  N_25
REMARK    7  A    between atoms: C_27  and  C_31
REMARK    8  A    between atoms: C_34  and  C_38
REMARK                            x       y       z     vdW  Elec       q    Type
REMARK                         _______ _______ _______ _____ _____    ______ ____
ROOT
ATOM      1  C   UNL     1      33.912 -13.437 -25.279  0.00  0.00    +0.062 C 
ATOM      2  C   UNL     1      34.010 -11.049 -24.921  0.00  0.00    +0.000 C 
ATOM      3  C   UNL     1      34.197 -12.350 -24.452  0.00  0.00    +0.007 C 
ATOM      4  C   UNL     1      33.441 -13.222 -26.574  0.00  0.00    +0.010 C 
ATOM      5  C   UNL     1      33.540 -10.835 -26.216  0.00  0.00    -0.003 C 
ATOM      6  C   UNL     1      33.256 -11.922 -27.043  0.00  0.00    +0.000 C 
ENDROOT
BRANCH   1  12
ATOM      7  N   UNL     1      33.634 -15.771 -25.574  0.00  0.00    -0.212 NA
ATOM      8  N   UNL     1      34.736 -14.907 -23.612  0.00  0.00    -0.190 NA
ATOM      9  C   UNL     1      34.463 -17.282 -23.893  0.00  0.00    +0.161 C 
ATOM     10  C   UNL     1      33.831 -17.016 -25.090  0.00  0.00    +0.201 C 
ATOM     11  C   UNL     1      34.900 -16.178 -23.190  0.00  0.00    +0.144 C 
ATOM     12  C   UNL     1      34.104 -14.779 -24.795  0.00  0.00    +0.031 C 
BRANCH   9  13
ATOM     13  O   UNL     1      34.648 -18.562 -23.432  0.00  0.00    -0.476 OA
BRANCH  13  14
ATOM     14  C   UNL     1      35.228 -18.708 -22.150  0.00  0.00    +0.205 C 
BRANCH  14  16
ATOM     15  N   UNL     1      33.973 -21.676 -19.274  0.00  0.00    +0.386 N 
ATOM     16  C   UNL     1      34.800 -20.053 -21.572  0.00  0.00    +0.040 C 
ATOM     17  C   UNL     1      33.392 -19.970 -20.969  0.00  0.00    -0.019 C 
ATOM     18  C   UNL     1      35.790 -20.537 -20.508  0.00  0.00    -0.019 C 
ATOM     19  C   UNL     1      32.995 -21.287 -20.299  0.00  0.00    -0.077 C 
ATOM     20  C   UNL     1      35.314 -21.836 -19.853  0.00  0.00    -0.077 C 
ATOM     21  C   UNL     1      33.553 -22.909 -18.607  0.00  0.00    -0.101 C 
ATOM     22  H   UNL     1      34.016 -20.928 -18.581  0.00  0.00    -0.080 HD
ENDBRANCH  14  16
ENDBRANCH  13  14
ENDBRANCH   9  13
ENDBRANCH   1  12
BRANCH   2  23
ATOM     23  C   UNL     1      34.314  -9.887 -24.036  0.00  0.00    +0.146 C 
BRANCH  23  25
ATOM     24  O   UNL     1      31.980 -10.605 -22.537  0.00  0.00    -0.268 OA
ATOM     25  N   UNL     1      33.149  -9.049 -23.806  0.00  0.00    -0.173 N 
ATOM     26  N   UNL     1      33.210  -7.813 -24.386  0.00  0.00    -0.175 NA
ATOM     27  C   UNL     1      32.204  -7.014 -24.230  0.00  0.00    +0.099 C 
ATOM     28  C   UNL     1      32.069  -9.494 -23.060  0.00  0.00    +0.268 C 
ATOM     29  C   UNL     1      30.997  -7.334 -23.444  0.00  0.00    +0.025 C 
ATOM     30  C   UNL     1      30.951  -8.542 -22.888  0.00  0.00    +0.061 C 
BRANCH  27  31
ATOM     31  C   UNL     1      32.256  -5.668 -24.860  0.00  0.00    +0.020 C 
ATOM     32  C   UNL     1      31.146  -4.825 -24.798  0.00  0.00    +0.012 C 
ATOM     33  C   UNL     1      33.416  -5.248 -25.512  0.00  0.00    +0.002 C 
ATOM     34  C   UNL     1      31.197  -3.562 -25.389  0.00  0.00    +0.068 C 
ATOM     35  C   UNL     1      33.466  -3.985 -26.103  0.00  0.00    +0.001 C 
ATOM     36  C   UNL     1      32.356  -3.142 -26.041  0.00  0.00    +0.010 C 
BRANCH  34  38
ATOM     37  N   UNL     1      29.137  -1.996 -25.276  0.00  0.00    -0.191 NA
ATOM     38  C   UNL     1      30.060  -2.698 -25.327  0.00  0.00    +0.100 C 
ENDBRANCH  34  38
ENDBRANCH  27  31
ENDBRANCH  23  25
ENDBRANCH   2  23
TORSDOF 8
ENDMDL
MODEL 5
REMARK VINA RESULT:     -12.3      4.511      9.431
REMARK  Name = 25171648
REMARK  8 active torsions:
REMARK  status: ('A' for Active; 'I' for Inactive)
REMARK    1  A    between atoms: C_1  and  C_12
REMARK    2  A    between atoms: C_2  and  C_23
REMARK    3  A    between atoms: C_9  and  O_13
REMARK    4  A    between atoms: O_13  and  C_14
REMARK    5  A    between atoms: C_14  and  C_16
REMARK    6  A    between atoms: C_23  and  N_25
REMARK    7  A    between atoms: C_27  and  C_31
REMARK    8  A    between atoms: C_34  and  C_38
REMARK                            x       y       z     vdW  Elec       q    Type
REMARK                         _______ _______ _______ _____ _____    ______ ____
ROOT
ATOM      1  C   UNL     1      32.717 -11.928 -22.671  0.00  0.00    +0.062 C 
ATOM      2  C   UNL     1      33.984 -13.972 -22.900  0.00  0.00    +0.000 C 
ATOM      3  C   UNL     1      33.696 -12.675 -23.326  0.00  0.00    +0.007 C 
ATOM      4  C   UNL     1      32.025 -12.478 -21.592  0.00  0.00    +0.010 C 
ATOM      5  C   UNL     1      33.292 -14.522 -21.821  0.00  0.00    -0.003 C 
ATOM      6  C   UNL     1      32.313 -13.774 -21.167  0.00  0.00    +0.000 C 
ENDROOT
BRANCH   1  12
ATOM      7  N   UNL     1      31.467  -9.929 -22.426  0.00  0.00    -0.212 NA
ATOM      8  N   UNL     1      33.126 -10.131 -24.162  0.00  0.00    -0.190 NA
ATOM      9  C   UNL     1      31.868  -8.092 -23.930  0.00  0.00    +0.161 C 
ATOM     10  C   UNL     1      31.215  -8.678 -22.864  0.00  0.00    +0.201 C 
ATOM     11  C   UNL     1      32.824  -8.873 -24.546  0.00  0.00    +0.144 C 
ATOM     12  C   UNL     1      32.420 -10.589 -23.111  0.00  0.00    +0.031 C 
BRANCH   9  13
ATOM     13  O   UNL     1      31.586  -6.815 -24.348  0.00  0.00    -0.476 OA
BRANCH  13  14
ATOM     14  C   UNL     1      32.230  -5.757 -23.664  0.00  0.00    +0.205 C 
BRANCH  14  16
ATOM     15  N   UNL     1      33.379  -4.065 -27.468  0.00  0.00    +0.386 N 
ATOM     16  C   UNL     1      32.725  -4.744 -24.692  0.00  0.00    +0.040 C 
ATOM     17  C   UNL     1      31.648  -4.457 -25.745  0.00  0.00    -0.019 C 
ATOM     18  C   UNL     1      34.003  -5.235 -25.379  0.00  0.00    -0.019 C 
ATOM     19  C   UNL     1      32.171  -3.519 -26.835  0.00  0.00    -0.077 C 
ATOM     20  C   UNL     1      34.448  -4.271 -26.481  0.00  0.00    -0.077 C 
ATOM     21  C   UNL     1      33.837  -3.182 -28.541  0.00  0.00    -0.101 C 
ATOM     22  H   UNL     1      33.142  -4.971 -27.869  0.00  0.00    -0.080 HD
ENDBRANCH  14  16
ENDBRANCH  13  14
ENDBRANCH   9  13
ENDBRANCH   1  12
BRANCH   2  23
ATOM     23  C   UNL     1      35.031 -14.772 -23.600  0.00  0.00    +0.146 C 
BRANCH  23  25
ATOM     24  O   UNL     1      33.572 -15.768 -25.857  0.00  0.00    -0.268 OA
ATOM     25  N   UNL     1      34.620 -16.149 -23.818  0.00  0.00    -0.173 N 
ATOM     26  N   UNL     1      34.974 -17.016 -22.824  0.00  0.00    -0.175 NA
ATOM     27  C   UNL     1      34.635 -18.259 -22.946  0.00  0.00    +0.099 C 
ATOM     28  C   UNL     1      33.915 -16.527 -24.951  0.00  0.00    +0.268 C 
ATOM     29  C   UNL     1      33.908 -18.817 -24.102  0.00  0.00    +0.025 C 
ATOM     30  C   UNL     1      33.568 -17.960 -25.062  0.00  0.00    +0.061 C 
BRANCH  27  31
ATOM     31  C   UNL     1      35.011 -19.212 -21.867  0.00  0.00    +0.020 C 
ATOM     32  C   UNL     1      34.036 -20.014 -21.274  0.00  0.00    +0.012 C 
ATOM     33  C   UNL     1      36.339 -19.305 -21.451  0.00  0.00    +0.002 C 
ATOM     34  C   UNL     1      34.390 -20.908 -20.263  0.00  0.00    +0.068 C 
ATOM     35  C   UNL     1      36.693 -20.198 -20.440  0.00  0.00    +0.001 C 
ATOM     36  C   UNL     1      35.719 -21.001 -19.846  0.00  0.00    +0.010 C 
BRANCH  34  38
ATOM     37  N   UNL     1      32.582 -22.397 -19.158  0.00  0.00    -0.191 NA
ATOM     38  C   UNL     1      33.392 -21.730 -19.654  0.00  0.00    +0.100 C 
ENDBRANCH  34  38
ENDBRANCH  27  31
ENDBRANCH  23  25
ENDBRANCH   2  23
TORSDOF 8
ENDMDL
MODEL 6
REMARK VINA RESULT:     -12.2      4.019     15.186
REMARK  Name = 25171648
REMARK  8 active torsions:
REMARK  status: ('A' for Active; 'I' for Inactive)
REMARK    1  A    between atoms: C_1  and  C_12
REMARK    2  A    between atoms: C_2  and  C_23
REMARK    3  A    between atoms: C_9  and  O_13
REMARK    4  A    between atoms: O_13  and  C_14
REMARK    5  A    between atoms: C_14  and  C_16
REMARK    6  A    between atoms: C_23  and  N_25
REMARK    7  A    between atoms: C_27  and  C_31
REMARK    8  A    between atoms: C_34  and  C_38
REMARK                            x       y       z     vdW  Elec       q    Type
REMARK                         _______ _______ _______ _____ _____    ______ ____
ROOT
ATOM      1  C   UNL     1      33.920 -13.420 -25.269  0.00  0.00    +0.062 C 
ATOM      2  C   UNL     1      33.986 -11.031 -24.911  0.00  0.00    +0.000 C 
ATOM      3  C   UNL     1      34.194 -12.330 -24.443  0.00  0.00    +0.007 C 
ATOM      4  C   UNL     1      33.437 -13.212 -26.560  0.00  0.00    +0.010 C 
ATOM      5  C   UNL     1      33.504 -10.824 -26.203  0.00  0.00    -0.003 C 
ATOM      6  C   UNL     1      33.230 -11.915 -27.028  0.00  0.00    +0.000 C 
ENDROOT
BRANCH   1  12
ATOM      7  N   UNL     1      33.734 -15.760 -25.592  0.00  0.00    -0.212 NA
ATOM      8  N   UNL     1      34.715 -14.877 -23.576  0.00  0.00    -0.190 NA
ATOM      9  C   UNL     1      34.536 -17.257 -23.886  0.00  0.00    +0.161 C 
ATOM     10  C   UNL     1      33.951 -17.001 -25.109  0.00  0.00    +0.201 C 
ATOM     11  C   UNL     1      34.902 -16.145 -23.155  0.00  0.00    +0.144 C 
ATOM     12  C   UNL     1      34.134 -14.760 -24.786  0.00  0.00    +0.031 C 
BRANCH   9  13
ATOM     13  O   UNL     1      34.741 -18.534 -23.426  0.00  0.00    -0.476 OA
BRANCH  13  14
ATOM     14  C   UNL     1      35.245 -18.672 -22.111  0.00  0.00    +0.205 C 
BRANCH  14  16
ATOM     15  N   UNL     1      33.933 -21.657 -19.278  0.00  0.00    +0.386 N 
ATOM     16  C   UNL     1      34.788 -20.017 -21.553  0.00  0.00    +0.040 C 
ATOM     17  C   UNL     1      33.385 -19.911 -20.944  0.00  0.00    -0.019 C 
ATOM     18  C   UNL     1      35.771 -20.540 -20.501  0.00  0.00    -0.019 C 
ATOM     19  C   UNL     1      32.960 -21.229 -20.294  0.00  0.00    -0.077 C 
ATOM     20  C   UNL     1      35.267 -21.838 -19.866  0.00  0.00    -0.077 C 
ATOM     21  C   UNL     1      33.486 -22.890 -18.630  0.00  0.00    -0.101 C 
ATOM     22  H   UNL     1      33.996 -20.922 -18.574  0.00  0.00    -0.080 HD
ENDBRANCH  14  16
ENDBRANCH  13  14
ENDBRANCH   9  13
ENDBRANCH   1  12
BRANCH   2  23
ATOM     23  C   UNL     1      34.280  -9.864 -24.029  0.00  0.00    +0.146 C 
BRANCH  23  25
ATOM     24  O   UNL     1      32.006 -10.667 -22.480  0.00  0.00    -0.268 OA
ATOM     25  N   UNL     1      33.097  -9.064 -23.761  0.00  0.00    -0.173 N 
ATOM     26  N   UNL     1      33.106  -7.822 -24.328  0.00  0.00    -0.175 NA
ATOM     27  C   UNL     1      32.082  -7.054 -24.138  0.00  0.00    +0.099 C 
ATOM     28  C   UNL     1      32.048  -9.549 -22.993  0.00  0.00    +0.268 C 
ATOM     29  C   UNL     1      30.905  -7.418 -23.327  0.00  0.00    +0.025 C 
ATOM     30  C   UNL     1      30.908  -8.633 -22.783  0.00  0.00    +0.061 C 
BRANCH  27  31
ATOM     31  C   UNL     1      32.078  -5.701 -24.755  0.00  0.00    +0.020 C 
ATOM     32  C   UNL     1      33.174  -5.270 -25.502  0.00  0.00    +0.012 C 
ATOM     33  C   UNL     1      30.976  -4.861 -24.586  0.00  0.00    +0.002 C 
ATOM     34  C   UNL     1      33.169  -4.001 -26.080  0.00  0.00    +0.068 C 
ATOM     35  C   UNL     1      30.971  -3.592 -25.164  0.00  0.00    +0.001 C 
ATOM     36  C   UNL     1      32.067  -3.161 -25.912  0.00  0.00    +0.010 C 
BRANCH  34  38
ATOM     37  N   UNL     1      35.205  -3.200 -27.466  0.00  0.00    -0.191 NA
ATOM     38  C   UNL     1      34.293  -3.559 -26.845  0.00  0.00    +0.100 C 
ENDBRANCH  34  38
ENDBRANCH  27  31
ENDBRANCH  23  25
ENDBRANCH   2  23
TORSDOF 8
ENDMDL
MODEL 7
REMARK VINA RESULT:     -12.2      2.127     12.862
REMARK  Name = 25171648
REMARK  8 active torsions:
REMARK  status: ('A' for Active; 'I' for Inactive)
REMARK    1  A    between atoms: C_1  and  C_12
REMARK    2  A    between atoms: C_2  and  C_23
REMARK    3  A    between atoms: C_9  and  O_13
REMARK    4  A    between atoms: O_13  and  C_14
REMARK    5  A    between atoms: C_14  and  C_16
REMARK    6  A    between atoms: C_23  and  N_25
REMARK    7  A    between atoms: C_27  and  C_31
REMARK    8  A    between atoms: C_34  and  C_38
REMARK                            x       y       z     vdW  Elec       q    Type
REMARK                         _______ _______ _______ _____ _____    ______ ____
ROOT
ATOM      1  C   UNL     1      34.517 -18.866 -21.858  0.00  0.00    +0.062 C 
ATOM      2  C   UNL     1      34.789 -16.482 -22.145  0.00  0.00    +0.000 C 
ATOM      3  C   UNL     1      34.713 -17.598 -21.310  0.00  0.00    +0.007 C 
ATOM      4  C   UNL     1      34.396 -19.017 -23.240  0.00  0.00    +0.010 C 
ATOM      5  C   UNL     1      34.667 -16.634 -23.526  0.00  0.00    -0.003 C 
ATOM      6  C   UNL     1      34.472 -17.901 -24.073  0.00  0.00    +0.000 C 
ENDROOT
BRANCH   1  12
ATOM      7  N   UNL     1      33.206 -20.475 -20.716  0.00  0.00    -0.212 NA
ATOM      8  N   UNL     1      35.610 -20.521 -20.561  0.00  0.00    -0.190 NA
ATOM      9  C   UNL     1      34.296 -22.165 -19.393  0.00  0.00    +0.161 C 
ATOM     10  C   UNL     1      33.170 -21.555 -19.908  0.00  0.00    +0.201 C 
ATOM     11  C   UNL     1      35.501 -21.600 -19.758  0.00  0.00    +0.144 C 
ATOM     12  C   UNL     1      34.440 -20.017 -20.998  0.00  0.00    +0.031 C 
BRANCH   9  13
ATOM     13  O   UNL     1      34.222 -23.264 -18.573  0.00  0.00    -0.476 OA
BRANCH  13  14
ATOM     14  C   UNL     1      33.243 -23.241 -17.552  0.00  0.00    +0.205 C 
BRANCH  14  16
ATOM     15  N   UNL     1      34.666 -23.457 -13.480  0.00  0.00    +0.386 N 
ATOM     16  C   UNL     1      33.857 -23.809 -16.277  0.00  0.00    +0.040 C 
ATOM     17  C   UNL     1      32.847 -23.789 -15.124  0.00  0.00    -0.019 C 
ATOM     18  C   UNL     1      35.114 -23.031 -15.875  0.00  0.00    -0.019 C 
ATOM     19  C   UNL     1      33.484 -24.263 -13.816  0.00  0.00    -0.077 C 
ATOM     20  C   UNL     1      35.677 -23.531 -14.543  0.00  0.00    -0.077 C 
ATOM     21  C   UNL     1      35.233 -23.889 -12.202  0.00  0.00    -0.101 C 
ATOM     22  H   UNL     1      34.369 -22.485 -13.394  0.00  0.00    -0.080 HD
ENDBRANCH  14  16
ENDBRANCH  13  14
ENDBRANCH   9  13
ENDBRANCH   1  12
BRANCH   2  23
ATOM     23  C   UNL     1      34.998 -15.126 -21.560  0.00  0.00    +0.146 C 
BRANCH  23  25
ATOM     24  O   UNL     1      32.439 -14.711 -20.339  0.00  0.00    -0.268 OA
ATOM     25  N   UNL     1      33.985 -14.176 -21.989  0.00  0.00    -0.173 N 
ATOM     26  N   UNL     1      34.322 -13.439 -23.088  0.00  0.00    -0.175 NA
ATOM     27  C   UNL     1      33.464 -12.577 -23.533  0.00  0.00    +0.099 C 
ATOM     28  C   UNL     1      32.775 -14.053 -21.323  0.00  0.00    +0.268 C 
ATOM     29  C   UNL     1      32.149 -12.314 -22.920  0.00  0.00    +0.025 C 
ATOM     30  C   UNL     1      31.834 -13.042 -21.850  0.00  0.00    +0.061 C 
BRANCH  27  31
ATOM     31  C   UNL     1      33.817 -11.772 -24.733  0.00  0.00    +0.020 C 
ATOM     32  C   UNL     1      34.138 -10.421 -24.597  0.00  0.00    +0.012 C 
ATOM     33  C   UNL     1      33.827 -12.368 -25.994  0.00  0.00    +0.002 C 
ATOM     34  C   UNL     1      34.469  -9.667 -25.723  0.00  0.00    +0.068 C 
ATOM     35  C   UNL     1      34.158 -11.614 -27.120  0.00  0.00    +0.001 C 
ATOM     36  C   UNL     1      34.479 -10.263 -26.985  0.00  0.00    +0.010 C 
BRANCH  34  38
ATOM     37  N   UNL     1      35.064  -7.159 -25.473  0.00  0.00    -0.191 NA
ATOM     38  C   UNL     1      34.798  -8.283 -25.585  0.00  0.00    +0.100 C 
ENDBRANCH  34  38
ENDBRANCH  27  31
ENDBRANCH  23  25
ENDBRANCH   2  23
TORSDOF 8
ENDMDL
MODEL 8
REMARK VINA RESULT:     -12.0      3.890     14.298
REMARK  Name = 25171648
REMARK  8 active torsions:
REMARK  status: ('A' for Active; 'I' for Inactive)
REMARK    1  A    between atoms: C_1  and  C_12
REMARK    2  A    between atoms: C_2  and  C_23
REMARK    3  A    between atoms: C_9  and  O_13
REMARK    4  A    between atoms: O_13  and  C_14
REMARK    5  A    between atoms: C_14  and  C_16
REMARK    6  A    between atoms: C_23  and  N_25
REMARK    7  A    between atoms: C_27  and  C_31
REMARK    8  A    between atoms: C_34  and  C_38
REMARK                            x       y       z     vdW  Elec       q    Type
REMARK                         _______ _______ _______ _____ _____    ______ ____
ROOT
ATOM      1  C   UNL     1      33.757 -13.513 -23.781  0.00  0.00    +0.062 C 
ATOM      2  C   UNL     1      32.481 -11.591 -23.063  0.00  0.00    +0.000 C 
ATOM      3  C   UNL     1      32.877 -12.916 -22.878  0.00  0.00    +0.007 C 
ATOM      4  C   UNL     1      34.241 -12.784 -24.867  0.00  0.00    +0.010 C 
ATOM      5  C   UNL     1      32.966 -10.863 -24.149  0.00  0.00    -0.003 C 
ATOM      6  C   UNL     1      33.846 -11.460 -25.051  0.00  0.00    +0.000 C 
ENDROOT
BRANCH   1  12
ATOM      7  N   UNL     1      34.157 -15.667 -24.683  0.00  0.00    -0.212 NA
ATOM      8  N   UNL     1      34.514 -15.235 -22.339  0.00  0.00    -0.190 NA
ATOM      9  C   UNL     1      34.927 -17.431 -23.235  0.00  0.00    +0.161 C 
ATOM     10  C   UNL     1      34.545 -16.942 -24.468  0.00  0.00    +0.201 C 
ATOM     11  C   UNL     1      34.892 -16.522 -22.197  0.00  0.00    +0.144 C 
ATOM     12  C   UNL     1      34.165 -14.881 -23.591  0.00  0.00    +0.031 C 
BRANCH   9  13
ATOM     13  O   UNL     1      35.317 -18.734 -23.054  0.00  0.00    -0.476 OA
BRANCH  13  14
ATOM     14  C   UNL     1      35.884 -19.069 -21.802  0.00  0.00    +0.205 C 
BRANCH  14  16
ATOM     15  N   UNL     1      33.868 -21.775 -19.106  0.00  0.00    +0.386 N 
ATOM     16  C   UNL     1      35.204 -20.331 -21.281  0.00  0.00    +0.040 C 
ATOM     17  C   UNL     1      33.754 -20.045 -20.871  0.00  0.00    -0.019 C 
ATOM     18  C   UNL     1      35.970 -20.920 -20.092  0.00  0.00    -0.019 C 
ATOM     19  C   UNL     1      33.096 -21.280 -20.254  0.00  0.00    -0.077 C 
ATOM     20  C   UNL     1      35.239 -22.128 -19.501  0.00  0.00    -0.077 C 
ATOM     21  C   UNL     1      33.199 -22.925 -18.496  0.00  0.00    -0.101 C 
ATOM     22  H   UNL     1      33.922 -21.025 -18.417  0.00  0.00    -0.080 HD
ENDBRANCH  14  16
ENDBRANCH  13  14
ENDBRANCH   9  13
ENDBRANCH   1  12
BRANCH   2  23
ATOM     23  C   UNL     1      31.539 -10.952 -22.098  0.00  0.00    +0.146 C 
BRANCH  23  25
ATOM     24  O   UNL     1      31.469  -9.914 -19.428  0.00  0.00    -0.268 OA
ATOM     25  N   UNL     1      31.990  -9.636 -21.676  0.00  0.00    -0.173 N 
ATOM     26  N   UNL     1      32.477  -8.849 -22.679  0.00  0.00    -0.175 NA
ATOM     27  C   UNL     1      32.890  -7.660 -22.379  0.00  0.00    +0.099 C 
ATOM     28  C   UNL     1      31.913  -9.232 -20.351  0.00  0.00    +0.268 C 
ATOM     29  C   UNL     1      32.896  -7.097 -21.016  0.00  0.00    +0.025 C 
ATOM     30  C   UNL     1      32.416  -7.875 -20.048  0.00  0.00    +0.061 C 
BRANCH  27  31
ATOM     31  C   UNL     1      33.418  -6.790 -23.464  0.00  0.00    +0.020 C 
ATOM     32  C   UNL     1      32.754  -5.610 -23.798  0.00  0.00    +0.012 C 
ATOM     33  C   UNL     1      34.578  -7.156 -24.148  0.00  0.00    +0.002 C 
ATOM     34  C   UNL     1      33.251  -4.795 -24.816  0.00  0.00    +0.068 C 
ATOM     35  C   UNL     1      35.074  -6.341 -25.166  0.00  0.00    +0.001 C 
ATOM     36  C   UNL     1      34.411  -5.160 -25.500  0.00  0.00    +0.010 C 
BRANCH  34  38
ATOM     37  N   UNL     1      32.019  -2.603 -25.438  0.00  0.00    -0.191 NA
ATOM     38  C   UNL     1      32.571  -3.586 -25.160  0.00  0.00    +0.100 C 
ENDBRANCH  34  38
ENDBRANCH  27  31
ENDBRANCH  23  25
ENDBRANCH   2  23
TORSDOF 8
ENDMDL
MODEL 9
REMARK VINA RESULT:     -12.0      4.283     13.049
REMARK  Name = 25171648
REMARK  8 active torsions:
REMARK  status: ('A' for Active; 'I' for Inactive)
REMARK    1  A    between atoms: C_1  and  C_12
REMARK    2  A    between atoms: C_2  and  C_23
REMARK    3  A    between atoms: C_9  and  O_13
REMARK    4  A    between atoms: O_13  and  C_14
REMARK    5  A    between atoms: C_14  and  C_16
REMARK    6  A    between atoms: C_23  and  N_25
REMARK    7  A    between atoms: C_27  and  C_31
REMARK    8  A    between atoms: C_34  and  C_38
REMARK                            x       y       z     vdW  Elec       q    Type
REMARK                         _______ _______ _______ _____ _____    ______ ____
ROOT
ATOM      1  C   UNL     1      33.890 -12.630 -25.491  0.00  0.00    +0.062 C 
ATOM      2  C   UNL     1      34.265 -10.276 -25.890  0.00  0.00    +0.000 C 
ATOM      3  C   UNL     1      34.492 -11.425 -25.130  0.00  0.00    +0.007 C 
ATOM      4  C   UNL     1      33.060 -12.687 -26.612  0.00  0.00    +0.010 C 
ATOM      5  C   UNL     1      33.435 -10.334 -27.010  0.00  0.00    -0.003 C 
ATOM      6  C   UNL     1      32.834 -11.539 -27.371  0.00  0.00    +0.000 C 
ENDROOT
BRANCH   1  12
ATOM      7  N   UNL     1      34.321 -13.633 -23.388  0.00  0.00    -0.212 NA
ATOM      8  N   UNL     1      34.123 -14.986 -25.373  0.00  0.00    -0.190 NA
ATOM      9  C   UNL     1      34.561 -16.024 -23.246  0.00  0.00    +0.161 C 
ATOM     10  C   UNL     1      34.537 -14.764 -22.685  0.00  0.00    +0.201 C 
ATOM     11  C   UNL     1      34.345 -16.075 -24.608  0.00  0.00    +0.144 C 
ATOM     12  C   UNL     1      34.124 -13.815 -24.707  0.00  0.00    +0.031 C 
BRANCH   9  13
ATOM     13  O   UNL     1      34.784 -17.154 -22.498  0.00  0.00    -0.476 OA
BRANCH  13  14
ATOM     14  C   UNL     1      34.447 -18.394 -23.090  0.00  0.00    +0.205 C 
BRANCH  14  16
ATOM     15  N   UNL     1      35.846 -20.586 -19.641  0.00  0.00    +0.386 N 
ATOM     16  C   UNL     1      35.060 -19.514 -22.254  0.00  0.00    +0.040 C 
ATOM     17  C   UNL     1      34.042 -20.075 -21.255  0.00  0.00    -0.019 C 
ATOM     18  C   UNL     1      36.304 -19.026 -21.506  0.00  0.00    -0.019 C 
ATOM     19  C   UNL     1      34.676 -21.129 -20.345  0.00  0.00    -0.077 C 
ATOM     20  C   UNL     1      36.865 -20.116 -20.589  0.00  0.00    -0.077 C 
ATOM     21  C   UNL     1      36.410 -21.589 -18.738  0.00  0.00    -0.101 C 
ATOM     22  H   UNL     1      35.536 -19.786 -19.089  0.00  0.00    -0.080 HD
ENDBRANCH  14  16
ENDBRANCH  13  14
ENDBRANCH   9  13
ENDBRANCH   1  12
BRANCH   2  23
ATOM     23  C   UNL     1      34.908  -8.987 -25.505  0.00  0.00    +0.146 C 
BRANCH  23  25
ATOM     24  O   UNL     1      34.405  -6.168 -25.631  0.00  0.00    -0.268 OA
ATOM     25  N   UNL     1      34.092  -8.218 -24.580  0.00  0.00    -0.173 N 
ATOM     26  N   UNL     1      33.540  -8.944 -23.564  0.00  0.00    -0.175 NA
ATOM     27  C   UNL     1      32.806  -8.324 -22.697  0.00  0.00    +0.099 C 
ATOM     28  C   UNL     1      33.911  -6.851 -24.734  0.00  0.00    +0.268 C 
ATOM     29  C   UNL     1      32.501  -6.882 -22.740  0.00  0.00    +0.025 C 
ATOM     30  C   UNL     1      33.048  -6.186 -23.735  0.00  0.00    +0.061 C 
BRANCH  27  31
ATOM     31  C   UNL     1      32.203  -9.103 -21.583  0.00  0.00    +0.020 C 
ATOM     32  C   UNL     1      32.193 -10.497 -21.631  0.00  0.00    +0.012 C 
ATOM     33  C   UNL     1      31.647  -8.439 -20.489  0.00  0.00    +0.002 C 
ATOM     34  C   UNL     1      31.627 -11.226 -20.585  0.00  0.00    +0.068 C 
ATOM     35  C   UNL     1      31.081  -9.168 -19.443  0.00  0.00    +0.001 C 
ATOM     36  C   UNL     1      31.072 -10.562 -19.491  0.00  0.00    +0.010 C 
BRANCH  34  38
ATOM     37  N   UNL     1      31.606 -13.815 -20.673  0.00  0.00    -0.191 NA
ATOM     38  C   UNL     1      31.616 -12.655 -20.634  0.00  0.00    +0.100 C 
ENDBRANCH  34  38
ENDBRANCH  27  31
ENDBRANCH  23  25
ENDBRANCH   2  23
TORSDOF 8
ENDMDL
