MODEL 1
REMARK VINA RESULT:     -11.2      0.000      0.000
REMARK  Name = 447546
REMARK  10 active torsions:
REMARK  status: ('A' for Active; 'I' for Inactive)
REMARK    1  A    between atoms: N_1  and  C_23
REMARK    2  A    between atoms: C_8  and  N_11
REMARK    3  A    between atoms: N_12  and  C_16
REMARK    4  A    between atoms: C_16  and  C_17
REMARK    5  A    between atoms: C_23  and  C_24
REMARK    6  A    between atoms: C_24  and  C_25
REMARK    7  A    between atoms: C_25  and  N_26
REMARK    8  A    between atoms: C_25  and  C_36
REMARK    9  A    between atoms: C_30  and  C_33
REMARK   10  A    between atoms: C_36  and  O_37
REMARK                            x       y       z     vdW  Elec       q    Type
REMARK                         _______ _______ _______ _____ _____    ______ ____
ROOT
ATOM      1  N   UNL     1      32.254 -24.902 -14.238  0.00  0.00    -0.286 N 
ATOM      2  C   UNL     1      31.784 -24.175 -15.308  0.00  0.00    +0.053 C 
ATOM      3  C   UNL     1      30.394 -24.107 -15.180  0.00  0.00    +0.015 C 
ATOM      4  C   UNL     1      31.213 -25.294 -13.439  0.00  0.00    +0.065 C 
ATOM      5  C   UNL     1      30.050 -24.817 -13.996  0.00  0.00    +0.017 C 
ATOM      6  C   UNL     1      32.475 -23.578 -16.369  0.00  0.00    +0.030 C 
ATOM      7  C   UNL     1      29.656 -23.411 -16.158  0.00  0.00    +0.003 C 
ATOM      8  C   UNL     1      31.721 -22.893 -17.327  0.00  0.00    +0.053 C 
ATOM      9  C   UNL     1      30.334 -22.808 -17.224  0.00  0.00    +0.015 C 
ENDROOT
BRANCH   8  11
ATOM     10  O   UNL     1      34.640 -22.753 -18.006  0.00  0.00    -0.252 OA
ATOM     11  N   UNL     1      32.371 -22.281 -18.400  0.00  0.00    -0.268 N 
ATOM     12  N   UNL     1      33.999 -21.525 -19.858  0.00  0.00    -0.285 N 
ATOM     13  C   UNL     1      33.751 -22.241 -18.681  0.00  0.00    +0.305 C 
ATOM     14  H   UNL     1      31.789 -21.819 -19.046  0.00  0.00    +0.156 HD
ATOM     15  H   UNL     1      33.234 -21.145 -20.345  0.00  0.00    +0.151 HD
BRANCH  12  16
ATOM     16  C   UNL     1      35.327 -21.321 -20.391  0.00  0.00    +0.118 C 
BRANCH  16  17
ATOM     17  C   UNL     1      35.389 -20.131 -21.303  0.00  0.00    -0.003 C 
ATOM     18  C   UNL     1      34.313 -19.834 -22.138  0.00  0.00    -0.003 C 
ATOM     19  C   UNL     1      36.524 -19.320 -21.315  0.00  0.00    -0.003 C 
ATOM     20  C   UNL     1      34.371 -18.728 -22.986  0.00  0.00    -0.000 C 
ATOM     21  C   UNL     1      36.582 -18.214 -22.163  0.00  0.00    -0.000 C 
ATOM     22  C   UNL     1      35.505 -17.918 -22.998  0.00  0.00    -0.000 C 
ENDBRANCH  16  17
ENDBRANCH  12  16
ENDBRANCH   8  11
BRANCH   1  23
ATOM     23  C   UNL     1      33.643 -25.216 -13.980  0.00  0.00    +0.097 C 
BRANCH  23  24
ATOM     24  C   UNL     1      34.336 -24.257 -13.002  0.00  0.00    +0.040 C 
BRANCH  24  25
ATOM     25  C   UNL     1      35.657 -24.780 -12.395  0.00  0.00    +0.091 C 
BRANCH  25  26
ATOM     26  N   UNL     1      36.793 -24.739 -13.333  0.00  0.00    -0.246 NA
ATOM     27  N   UNL     1      38.222 -24.131 -14.919  0.00  0.00    -0.251 NA
ATOM     28  C   UNL     1      37.794 -25.671 -13.449  0.00  0.00    +0.125 C 
ATOM     29  C   UNL     1      37.081 -23.825 -14.233  0.00  0.00    +0.201 C 
ATOM     30  C   UNL     1      38.693 -25.315 -14.427  0.00  0.00    +0.124 C 
BRANCH  30  33
ATOM     31  O   UNL     1      40.253 -26.007 -16.063  0.00  0.00    -0.269 OA
ATOM     32  N   UNL     1      40.647 -26.649 -13.912  0.00  0.00    -0.324 N 
ATOM     33  C   UNL     1      39.868 -25.988 -14.869  0.00  0.00    +0.257 C 
ATOM     34  H   UNL     1      41.464 -27.124 -14.185  0.00  0.00    +0.145 HD
ATOM     35  H   UNL     1      40.378 -26.639 -12.965  0.00  0.00    +0.145 HD
ENDBRANCH  30  33
ENDBRANCH  25  26
BRANCH  25  36
ATOM     36  C   UNL     1      36.000 -24.017 -11.105  0.00  0.00    +0.153 C 
BRANCH  36  37
ATOM     37  O   UNL     1      35.341 -24.626 -10.000  0.00  0.00    -0.381 OA
ATOM     38  H   UNL     1      35.906 -25.323  -9.632  0.00  0.00    +0.210 HD
ENDBRANCH  36  37
ENDBRANCH  25  36
ENDBRANCH  24  25
ENDBRANCH  23  24
ENDBRANCH   1  23
TORSDOF 10
ENDMDL
MODEL 2
REMARK VINA RESULT:     -11.2      2.869      6.779
REMARK  Name = 447546
REMARK  10 active torsions:
REMARK  status: ('A' for Active; 'I' for Inactive)
REMARK    1  A    between atoms: N_1  and  C_23
REMARK    2  A    between atoms: C_8  and  N_11
REMARK    3  A    between atoms: N_12  and  C_16
REMARK    4  A    between atoms: C_16  and  C_17
REMARK    5  A    between atoms: C_23  and  C_24
REMARK    6  A    between atoms: C_24  and  C_25
REMARK    7  A    between atoms: C_25  and  N_26
REMARK    8  A    between atoms: C_25  and  C_36
REMARK    9  A    between atoms: C_30  and  C_33
REMARK   10  A    between atoms: C_36  and  O_37
REMARK                            x       y       z     vdW  Elec       q    Type
REMARK                         _______ _______ _______ _____ _____    ______ ____
ROOT
ATOM      1  N   UNL     1      34.559 -24.335 -14.957  0.00  0.00    -0.286 N 
ATOM      2  C   UNL     1      35.437 -23.588 -15.709  0.00  0.00    +0.053 C 
ATOM      3  C   UNL     1      36.712 -23.795 -15.177  0.00  0.00    +0.015 C 
ATOM      4  C   UNL     1      35.233 -25.005 -13.971  0.00  0.00    +0.065 C 
ATOM      5  C   UNL     1      36.567 -24.691 -14.082  0.00  0.00    +0.017 C 
ATOM      6  C   UNL     1      35.203 -22.755 -16.809  0.00  0.00    +0.030 C 
ATOM      7  C   UNL     1      37.808 -23.137 -15.769  0.00  0.00    +0.003 C 
ATOM      8  C   UNL     1      36.307 -22.113 -17.379  0.00  0.00    +0.053 C 
ATOM      9  C   UNL     1      37.590 -22.301 -16.870  0.00  0.00    +0.015 C 
ENDROOT
BRANCH   8  11
ATOM     10  O   UNL     1      34.862 -22.596 -19.966  0.00  0.00    -0.252 OA
ATOM     11  N   UNL     1      36.117 -21.275 -18.479  0.00  0.00    -0.268 N 
ATOM     12  N   UNL     1      35.466 -20.437 -20.534  0.00  0.00    -0.285 N 
ATOM     13  C   UNL     1      35.428 -21.544 -19.679  0.00  0.00    +0.305 C 
ATOM     14  H   UNL     1      36.516 -20.377 -18.407  0.00  0.00    +0.156 HD
ATOM     15  H   UNL     1      35.939 -19.628 -20.234  0.00  0.00    +0.151 HD
BRANCH  12  16
ATOM     16  C   UNL     1      34.841 -20.427 -21.837  0.00  0.00    +0.118 C 
BRANCH  16  17
ATOM     17  C   UNL     1      34.850 -19.058 -22.453  0.00  0.00    -0.003 C 
ATOM     18  C   UNL     1      34.517 -18.895 -23.797  0.00  0.00    -0.003 C 
ATOM     19  C   UNL     1      35.192 -17.947 -21.680  0.00  0.00    -0.003 C 
ATOM     20  C   UNL     1      34.526 -17.623 -24.369  0.00  0.00    -0.000 C 
ATOM     21  C   UNL     1      35.201 -16.675 -22.253  0.00  0.00    -0.000 C 
ATOM     22  C   UNL     1      34.868 -16.514 -23.597  0.00  0.00    -0.000 C 
ENDBRANCH  16  17
ENDBRANCH  12  16
ENDBRANCH   8  11
BRANCH   1  23
ATOM     23  C   UNL     1      33.129 -24.412 -15.163  0.00  0.00    +0.097 C 
BRANCH  23  24
ATOM     24  C   UNL     1      32.353 -23.180 -14.677  0.00  0.00    +0.040 C 
BRANCH  24  25
ATOM     25  C   UNL     1      30.883 -23.444 -14.281  0.00  0.00    +0.091 C 
BRANCH  25  26
ATOM     26  N   UNL     1      29.917 -23.100 -15.338  0.00  0.00    -0.246 NA
ATOM     27  N   UNL     1      28.987 -22.617 -17.295  0.00  0.00    -0.251 NA
ATOM     28  C   UNL     1      28.570 -22.889 -15.180  0.00  0.00    +0.125 C 
ATOM     29  C   UNL     1      30.135 -22.929 -16.623  0.00  0.00    +0.201 C 
ATOM     30  C   UNL     1      27.971 -22.588 -16.382  0.00  0.00    +0.124 C 
BRANCH  30  33
ATOM     31  O   UNL     1      25.682 -22.396 -15.825  0.00  0.00    -0.269 OA
ATOM     32  N   UNL     1      26.281 -21.866 -17.959  0.00  0.00    -0.324 N 
ATOM     33  C   UNL     1      26.606 -22.301 -16.668  0.00  0.00    +0.257 C 
ATOM     34  H   UNL     1      25.347 -21.660 -18.189  0.00  0.00    +0.145 HD
ATOM     35  H   UNL     1      26.988 -21.767 -18.638  0.00  0.00    +0.145 HD
ENDBRANCH  30  33
ENDBRANCH  25  26
BRANCH  25  36
ATOM     36  C   UNL     1      30.697 -24.905 -13.838  0.00  0.00    +0.153 C 
BRANCH  36  37
ATOM     37  O   UNL     1      30.052 -24.943 -12.570  0.00  0.00    -0.381 OA
ATOM     38  H   UNL     1      29.282 -24.353 -12.582  0.00  0.00    +0.210 HD
ENDBRANCH  36  37
ENDBRANCH  25  36
ENDBRANCH  24  25
ENDBRANCH  23  24
ENDBRANCH   1  23
TORSDOF 10
ENDMDL
MODEL 3
REMARK VINA RESULT:     -11.2      2.545      4.665
REMARK  Name = 447546
REMARK  10 active torsions:
REMARK  status: ('A' for Active; 'I' for Inactive)
REMARK    1  A    between atoms: N_1  and  C_23
REMARK    2  A    between atoms: C_8  and  N_11
REMARK    3  A    between atoms: N_12  and  C_16
REMARK    4  A    between atoms: C_16  and  C_17
REMARK    5  A    between atoms: C_23  and  C_24
REMARK    6  A    between atoms: C_24  and  C_25
REMARK    7  A    between atoms: C_25  and  N_26
REMARK    8  A    between atoms: C_25  and  C_36
REMARK    9  A    between atoms: C_30  and  C_33
REMARK   10  A    between atoms: C_36  and  O_37
REMARK                            x       y       z     vdW  Elec       q    Type
REMARK                         _______ _______ _______ _____ _____    ______ ____
ROOT
ATOM      1  N   UNL     1      36.196 -23.165 -16.277  0.00  0.00    -0.286 N 
ATOM      2  C   UNL     1      35.611 -22.621 -17.399  0.00  0.00    +0.053 C 
ATOM      3  C   UNL     1      34.302 -23.107 -17.456  0.00  0.00    +0.015 C 
ATOM      4  C   UNL     1      35.304 -23.974 -15.625  0.00  0.00    +0.065 C 
ATOM      5  C   UNL     1      34.124 -23.958 -16.330  0.00  0.00    +0.017 C 
ATOM      6  C   UNL     1      36.135 -21.745 -18.357  0.00  0.00    +0.030 C 
ATOM      7  C   UNL     1      33.475 -22.700 -18.521  0.00  0.00    +0.003 C 
ATOM      8  C   UNL     1      35.294 -21.356 -19.404  0.00  0.00    +0.053 C 
ATOM      9  C   UNL     1      33.984 -21.824 -19.486  0.00  0.00    +0.015 C 
ENDROOT
BRANCH   8  11
ATOM     10  O   UNL     1      33.864 -19.970 -21.649  0.00  0.00    -0.252 OA
ATOM     11  N   UNL     1      35.776 -20.482 -20.380  0.00  0.00    -0.268 N 
ATOM     12  N   UNL     1      35.915 -19.047 -22.188  0.00  0.00    -0.285 N 
ATOM     13  C   UNL     1      35.065 -19.851 -21.420  0.00  0.00    +0.305 C 
ATOM     14  H   UNL     1      36.739 -20.279 -20.335  0.00  0.00    +0.156 HD
ATOM     15  H   UNL     1      36.866 -19.002 -21.942  0.00  0.00    +0.151 HD
BRANCH  12  16
ATOM     16  C   UNL     1      35.459 -18.280 -23.324  0.00  0.00    +0.118 C 
BRANCH  16  17
ATOM     17  C   UNL     1      35.021 -16.899 -22.930  0.00  0.00    -0.003 C 
ATOM     18  C   UNL     1      34.850 -16.579 -21.584  0.00  0.00    -0.003 C 
ATOM     19  C   UNL     1      34.786 -15.935 -23.911  0.00  0.00    -0.003 C 
ATOM     20  C   UNL     1      34.443 -15.296 -21.218  0.00  0.00    -0.000 C 
ATOM     21  C   UNL     1      34.379 -14.652 -23.546  0.00  0.00    -0.000 C 
ATOM     22  C   UNL     1      34.208 -14.333 -22.199  0.00  0.00    -0.000 C 
ENDBRANCH  16  17
ENDBRANCH  12  16
ENDBRANCH   8  11
BRANCH   1  23
ATOM     23  C   UNL     1      37.554 -22.927 -15.837  0.00  0.00    +0.097 C 
BRANCH  23  24
ATOM     24  C   UNL     1      38.482 -24.142 -15.969  0.00  0.00    +0.040 C 
BRANCH  24  25
ATOM     25  C   UNL     1      39.112 -24.633 -14.645  0.00  0.00    +0.091 C 
BRANCH  25  26
ATOM     26  N   UNL     1      38.120 -25.055 -13.642  0.00  0.00    -0.246 NA
ATOM     27  N   UNL     1      36.689 -26.249 -12.436  0.00  0.00    -0.251 NA
ATOM     28  C   UNL     1      37.567 -24.275 -12.657  0.00  0.00    +0.125 C 
ATOM     29  C   UNL     1      37.569 -26.238 -13.481  0.00  0.00    +0.201 C 
ATOM     30  C   UNL     1      36.676 -24.995 -11.896  0.00  0.00    +0.124 C 
BRANCH  30  33
ATOM     31  O   UNL     1      34.997 -25.286 -10.257  0.00  0.00    -0.269 OA
ATOM     32  N   UNL     1      36.142 -23.316 -10.234  0.00  0.00    -0.324 N 
ATOM     33  C   UNL     1      35.889 -24.578 -10.784  0.00  0.00    +0.257 C 
ATOM     34  H   UNL     1      35.615 -22.999  -9.466  0.00  0.00    +0.145 HD
ATOM     35  H   UNL     1      36.846 -22.744 -10.617  0.00  0.00    +0.145 HD
ENDBRANCH  30  33
ENDBRANCH  25  26
BRANCH  25  36
ATOM     36  C   UNL     1      40.120 -25.763 -14.912  0.00  0.00    +0.153 C 
BRANCH  36  37
ATOM     37  O   UNL     1      40.160 -26.049 -16.306  0.00  0.00    -0.381 OA
ATOM     38  H   UNL     1      39.289 -25.879 -16.695  0.00  0.00    +0.210 HD
ENDBRANCH  36  37
ENDBRANCH  25  36
ENDBRANCH  24  25
ENDBRANCH  23  24
ENDBRANCH   1  23
TORSDOF 10
ENDMDL
MODEL 4
REMARK VINA RESULT:     -10.9     10.460     15.447
REMARK  Name = 447546
REMARK  10 active torsions:
REMARK  status: ('A' for Active; 'I' for Inactive)
REMARK    1  A    between atoms: N_1  and  C_23
REMARK    2  A    between atoms: C_8  and  N_11
REMARK    3  A    between atoms: N_12  and  C_16
REMARK    4  A    between atoms: C_16  and  C_17
REMARK    5  A    between atoms: C_23  and  C_24
REMARK    6  A    between atoms: C_24  and  C_25
REMARK    7  A    between atoms: C_25  and  N_26
REMARK    8  A    between atoms: C_25  and  C_36
REMARK    9  A    between atoms: C_30  and  C_33
REMARK   10  A    between atoms: C_36  and  O_37
REMARK                            x       y       z     vdW  Elec       q    Type
REMARK                         _______ _______ _______ _____ _____    ______ ____
ROOT
ATOM      1  N   UNL     1      31.562  -8.772 -21.654  0.00  0.00    -0.286 N 
ATOM      2  C   UNL     1      31.693 -10.140 -21.574  0.00  0.00    +0.053 C 
ATOM      3  C   UNL     1      31.588 -10.484 -20.224  0.00  0.00    +0.015 C 
ATOM      4  C   UNL     1      31.376  -8.241 -20.406  0.00  0.00    +0.065 C 
ATOM      5  C   UNL     1      31.388  -9.276 -19.500  0.00  0.00    +0.017 C 
ATOM      6  C   UNL     1      31.896 -11.090 -22.582  0.00  0.00    +0.030 C 
ATOM      7  C   UNL     1      31.689 -11.841 -19.860  0.00  0.00    +0.003 C 
ATOM      8  C   UNL     1      31.993 -12.430 -22.196  0.00  0.00    +0.053 C 
ATOM      9  C   UNL     1      31.891 -12.802 -20.858  0.00  0.00    +0.015 C 
ENDROOT
BRANCH   8  11
ATOM     10  O   UNL     1      34.515 -13.768 -23.120  0.00  0.00    -0.252 OA
ATOM     11  N   UNL     1      32.192 -13.409 -23.171  0.00  0.00    -0.268 N 
ATOM     12  N   UNL     1      33.175 -14.953 -24.585  0.00  0.00    -0.285 N 
ATOM     13  C   UNL     1      33.401 -14.012 -23.573  0.00  0.00    +0.305 C 
ATOM     14  H   UNL     1      31.382 -13.720 -23.637  0.00  0.00    +0.156 HD
ATOM     15  H   UNL     1      32.253 -15.094 -24.897  0.00  0.00    +0.151 HD
BRANCH  12  16
ATOM     16  C   UNL     1      34.234 -15.727 -25.191  0.00  0.00    +0.118 C 
BRANCH  16  17
ATOM     17  C   UNL     1      34.479 -17.014 -24.459  0.00  0.00    -0.003 C 
ATOM     18  C   UNL     1      35.270 -17.025 -23.311  0.00  0.00    -0.003 C 
ATOM     19  C   UNL     1      33.913 -18.201 -24.927  0.00  0.00    -0.003 C 
ATOM     20  C   UNL     1      35.497 -18.222 -22.631  0.00  0.00    -0.000 C 
ATOM     21  C   UNL     1      34.140 -19.398 -24.247  0.00  0.00    -0.000 C 
ATOM     22  C   UNL     1      34.932 -19.407 -23.099  0.00  0.00    -0.000 C 
ENDBRANCH  16  17
ENDBRANCH  12  16
ENDBRANCH   8  11
BRANCH   1  23
ATOM     23  C   UNL     1      31.611  -7.992 -22.873  0.00  0.00    +0.097 C 
BRANCH  23  24
ATOM     24  C   UNL     1      33.011  -7.483 -23.241  0.00  0.00    +0.040 C 
BRANCH  24  25
ATOM     25  C   UNL     1      33.305  -7.410 -24.756  0.00  0.00    +0.091 C 
BRANCH  25  26
ATOM     26  N   UNL     1      33.971  -8.613 -25.285  0.00  0.00    -0.246 NA
ATOM     27  N   UNL     1      35.488 -10.142 -25.825  0.00  0.00    -0.251 NA
ATOM     28  C   UNL     1      33.377  -9.647 -25.965  0.00  0.00    +0.125 C 
ATOM     29  C   UNL     1      35.242  -8.942 -25.218  0.00  0.00    +0.201 C 
ATOM     30  C   UNL     1      34.298 -10.608 -26.310  0.00  0.00    +0.124 C 
BRANCH  30  33
ATOM     31  O   UNL     1      33.212 -12.662 -26.744  0.00  0.00    -0.269 OA
ATOM     32  N   UNL     1      34.972 -12.113 -28.084  0.00  0.00    -0.324 N 
ATOM     33  C   UNL     1      34.113 -11.832 -27.014  0.00  0.00    +0.257 C 
ATOM     34  H   UNL     1      34.870 -12.950 -28.590  0.00  0.00    +0.145 HD
ATOM     35  H   UNL     1      35.679 -11.473 -28.329  0.00  0.00    +0.145 HD
ENDBRANCH  30  33
ENDBRANCH  25  26
BRANCH  25  36
ATOM     36  C   UNL     1      32.016  -7.120 -25.544  0.00  0.00    +0.153 C 
BRANCH  36  37
ATOM     37  O   UNL     1      31.910  -5.722 -25.790  0.00  0.00    -0.381 OA
ATOM     38  H   UNL     1      30.980  -5.491 -25.938  0.00  0.00    +0.210 HD
ENDBRANCH  36  37
ENDBRANCH  25  36
ENDBRANCH  24  25
ENDBRANCH  23  24
ENDBRANCH   1  23
TORSDOF 10
ENDMDL
MODEL 5
REMARK VINA RESULT:     -10.9      3.384      7.314
REMARK  Name = 447546
REMARK  10 active torsions:
REMARK  status: ('A' for Active; 'I' for Inactive)
REMARK    1  A    between atoms: N_1  and  C_23
REMARK    2  A    between atoms: C_8  and  N_11
REMARK    3  A    between atoms: N_12  and  C_16
REMARK    4  A    between atoms: C_16  and  C_17
REMARK    5  A    between atoms: C_23  and  C_24
REMARK    6  A    between atoms: C_24  and  C_25
REMARK    7  A    between atoms: C_25  and  N_26
REMARK    8  A    between atoms: C_25  and  C_36
REMARK    9  A    between atoms: C_30  and  C_33
REMARK   10  A    between atoms: C_36  and  O_37
REMARK                            x       y       z     vdW  Elec       q    Type
REMARK                         _______ _______ _______ _____ _____    ______ ____
ROOT
ATOM      1  N   UNL     1      33.471 -23.481 -16.424  0.00  0.00    -0.286 N 
ATOM      2  C   UNL     1      34.313 -22.825 -17.294  0.00  0.00    +0.053 C 
ATOM      3  C   UNL     1      35.608 -22.947 -16.782  0.00  0.00    +0.015 C 
ATOM      4  C   UNL     1      34.187 -24.013 -15.385  0.00  0.00    +0.065 C 
ATOM      5  C   UNL     1      35.511 -23.699 -15.579  0.00  0.00    +0.017 C 
ATOM      6  C   UNL     1      34.031 -22.140 -18.482  0.00  0.00    +0.030 C 
ATOM      7  C   UNL     1      36.674 -22.356 -17.490  0.00  0.00    +0.003 C 
ATOM      8  C   UNL     1      35.106 -21.563 -19.165  0.00  0.00    +0.053 C 
ATOM      9  C   UNL     1      36.407 -21.669 -18.679  0.00  0.00    +0.015 C 
ENDROOT
BRANCH   8  11
ATOM     10  O   UNL     1      36.825 -19.603 -20.652  0.00  0.00    -0.252 OA
ATOM     11  N   UNL     1      34.868 -20.873 -20.355  0.00  0.00    -0.268 N 
ATOM     12  N   UNL     1      35.102 -19.484 -22.189  0.00  0.00    -0.285 N 
ATOM     13  C   UNL     1      35.709 -19.958 -21.020  0.00  0.00    +0.305 C 
ATOM     14  H   UNL     1      34.001 -21.050 -20.786  0.00  0.00    +0.156 HD
ATOM     15  H   UNL     1      34.205 -19.815 -22.419  0.00  0.00    +0.151 HD
BRANCH  12  16
ATOM     16  C   UNL     1      35.733 -18.531 -23.073  0.00  0.00    +0.118 C 
BRANCH  16  17
ATOM     17  C   UNL     1      35.165 -17.151 -22.911  0.00  0.00    -0.003 C 
ATOM     18  C   UNL     1      34.919 -16.644 -21.636  0.00  0.00    -0.003 C 
ATOM     19  C   UNL     1      34.884 -16.376 -24.037  0.00  0.00    -0.003 C 
ATOM     20  C   UNL     1      34.391 -15.361 -21.486  0.00  0.00    -0.000 C 
ATOM     21  C   UNL     1      34.356 -15.094 -23.886  0.00  0.00    -0.000 C 
ATOM     22  C   UNL     1      34.110 -14.587 -22.610  0.00  0.00    -0.000 C 
ENDBRANCH  16  17
ENDBRANCH  12  16
ENDBRANCH   8  11
BRANCH   1  23
ATOM     23  C   UNL     1      32.037 -23.600 -16.572  0.00  0.00    +0.097 C 
BRANCH  23  24
ATOM     24  C   UNL     1      31.230 -22.975 -15.426  0.00  0.00    +0.040 C 
BRANCH  24  25
ATOM     25  C   UNL     1      29.934 -23.728 -15.048  0.00  0.00    +0.091 C 
BRANCH  25  26
ATOM     26  N   UNL     1      28.893 -23.666 -16.088  0.00  0.00    -0.246 NA
ATOM     27  N   UNL     1      27.486 -24.186 -17.724  0.00  0.00    -0.251 NA
ATOM     28  C   UNL     1      28.138 -22.570 -16.427  0.00  0.00    +0.125 C 
ATOM     29  C   UNL     1      28.474 -24.622 -16.887  0.00  0.00    +0.201 C 
ATOM     30  C   UNL     1      27.258 -22.869 -17.441  0.00  0.00    +0.124 C 
BRANCH  30  33
ATOM     31  O   UNL     1      26.065 -22.072 -19.320  0.00  0.00    -0.269 OA
ATOM     32  N   UNL     1      25.569 -21.139 -17.300  0.00  0.00    -0.324 N 
ATOM     33  C   UNL     1      26.302 -22.035 -18.089  0.00  0.00    +0.257 C 
ATOM     34  H   UNL     1      24.902 -20.549 -17.717  0.00  0.00    +0.145 HD
ATOM     35  H   UNL     1      25.723 -21.099 -16.328  0.00  0.00    +0.145 HD
ENDBRANCH  30  33
ENDBRANCH  25  26
BRANCH  25  36
ATOM     36  C   UNL     1      30.245 -25.190 -14.686  0.00  0.00    +0.153 C 
BRANCH  36  37
ATOM     37  O   UNL     1      31.295 -25.233 -13.726  0.00  0.00    -0.381 OA
ATOM     38  H   UNL     1      32.080 -24.793 -14.088  0.00  0.00    +0.210 HD
ENDBRANCH  36  37
ENDBRANCH  25  36
ENDBRANCH  24  25
ENDBRANCH  23  24
ENDBRANCH   1  23
TORSDOF 10
ENDMDL
MODEL 6
REMARK VINA RESULT:     -10.8      7.604     12.271
REMARK  Name = 447546
REMARK  10 active torsions:
REMARK  status: ('A' for Active; 'I' for Inactive)
REMARK    1  A    between atoms: N_1  and  C_23
REMARK    2  A    between atoms: C_8  and  N_11
REMARK    3  A    between atoms: N_12  and  C_16
REMARK    4  A    between atoms: C_16  and  C_17
REMARK    5  A    between atoms: C_23  and  C_24
REMARK    6  A    between atoms: C_24  and  C_25
REMARK    7  A    between atoms: C_25  and  N_26
REMARK    8  A    between atoms: C_25  and  C_36
REMARK    9  A    between atoms: C_30  and  C_33
REMARK   10  A    between atoms: C_36  and  O_37
REMARK                            x       y       z     vdW  Elec       q    Type
REMARK                         _______ _______ _______ _____ _____    ______ ____
ROOT
ATOM      1  N   UNL     1      34.511 -16.164 -23.449  0.00  0.00    -0.286 N 
ATOM      2  C   UNL     1      34.214 -14.966 -24.059  0.00  0.00    +0.053 C 
ATOM      3  C   UNL     1      33.681 -15.267 -25.315  0.00  0.00    +0.015 C 
ATOM      4  C   UNL     1      34.184 -17.208 -24.273  0.00  0.00    +0.065 C 
ATOM      5  C   UNL     1      33.668 -16.684 -25.435  0.00  0.00    +0.017 C 
ATOM      6  C   UNL     1      34.376 -13.654 -23.601  0.00  0.00    +0.030 C 
ATOM      7  C   UNL     1      33.290 -14.206 -26.156  0.00  0.00    +0.003 C 
ATOM      8  C   UNL     1      33.979 -12.619 -24.453  0.00  0.00    +0.053 C 
ATOM      9  C   UNL     1      33.444 -12.888 -25.711  0.00  0.00    +0.015 C 
ENDROOT
BRANCH   8  11
ATOM     10  O   UNL     1      35.487 -10.338 -25.691  0.00  0.00    -0.252 OA
ATOM     11  N   UNL     1      34.121 -11.295 -24.033  0.00  0.00    -0.268 N 
ATOM     12  N   UNL     1      34.734  -9.068 -23.911  0.00  0.00    -0.285 N 
ATOM     13  C   UNL     1      34.841 -10.252 -24.649  0.00  0.00    +0.305 C 
ATOM     14  H   UNL     1      33.655 -11.059 -23.199  0.00  0.00    +0.156 HD
ATOM     15  H   UNL     1      34.198  -9.077 -23.086  0.00  0.00    +0.151 HD
BRANCH  12  16
ATOM     16  C   UNL     1      35.372  -7.833 -24.305  0.00  0.00    +0.118 C 
BRANCH  16  17
ATOM     17  C   UNL     1      34.418  -6.674 -24.274  0.00  0.00    -0.003 C 
ATOM     18  C   UNL     1      34.471  -5.701 -25.271  0.00  0.00    -0.003 C 
ATOM     19  C   UNL     1      33.478  -6.571 -23.248  0.00  0.00    -0.003 C 
ATOM     20  C   UNL     1      33.585  -4.624 -25.242  0.00  0.00    -0.000 C 
ATOM     21  C   UNL     1      32.593  -5.494 -23.219  0.00  0.00    -0.000 C 
ATOM     22  C   UNL     1      32.646  -4.521 -24.217  0.00  0.00    -0.000 C 
ENDBRANCH  16  17
ENDBRANCH  12  16
ENDBRANCH   8  11
BRANCH   1  23
ATOM     23  C   UNL     1      35.086 -16.316 -22.130  0.00  0.00    +0.097 C 
BRANCH  23  24
ATOM     24  C   UNL     1      34.814 -17.678 -21.476  0.00  0.00    +0.040 C 
BRANCH  24  25
ATOM     25  C   UNL     1      36.066 -18.554 -21.240  0.00  0.00    +0.091 C 
BRANCH  25  26
ATOM     26  N   UNL     1      35.772 -19.832 -20.570  0.00  0.00    -0.246 NA
ATOM     27  N   UNL     1      35.951 -21.720 -19.416  0.00  0.00    -0.251 NA
ATOM     28  C   UNL     1      34.557 -20.468 -20.515  0.00  0.00    +0.125 C 
ATOM     29  C   UNL     1      36.590 -20.612 -19.898  0.00  0.00    +0.201 C 
ATOM     30  C   UNL     1      34.644 -21.643 -19.804  0.00  0.00    +0.124 C 
BRANCH  30  33
ATOM     31  O   UNL     1      33.802 -23.841 -19.585  0.00  0.00    -0.269 OA
ATOM     32  N   UNL     1      32.384 -22.130 -19.083  0.00  0.00    -0.324 N 
ATOM     33  C   UNL     1      33.632 -22.601 -19.507  0.00  0.00    +0.257 C 
ATOM     34  H   UNL     1      31.664 -22.766 -18.871  0.00  0.00    +0.145 HD
ATOM     35  H   UNL     1      32.226 -21.161 -18.998  0.00  0.00    +0.145 HD
ENDBRANCH  30  33
ENDBRANCH  25  26
BRANCH  25  36
ATOM     36  C   UNL     1      36.811 -18.800 -22.563  0.00  0.00    +0.153 C 
BRANCH  36  37
ATOM     37  O   UNL     1      38.207 -18.601 -22.370  0.00  0.00    -0.381 OA
ATOM     38  H   UNL     1      38.524 -19.198 -21.674  0.00  0.00    +0.210 HD
ENDBRANCH  36  37
ENDBRANCH  25  36
ENDBRANCH  24  25
ENDBRANCH  23  24
ENDBRANCH   1  23
TORSDOF 10
ENDMDL
MODEL 7
REMARK VINA RESULT:     -10.7      3.696      7.416
REMARK  Name = 447546
REMARK  10 active torsions:
REMARK  status: ('A' for Active; 'I' for Inactive)
REMARK    1  A    between atoms: N_1  and  C_23
REMARK    2  A    between atoms: C_8  and  N_11
REMARK    3  A    between atoms: N_12  and  C_16
REMARK    4  A    between atoms: C_16  and  C_17
REMARK    5  A    between atoms: C_23  and  C_24
REMARK    6  A    between atoms: C_24  and  C_25
REMARK    7  A    between atoms: C_25  and  N_26
REMARK    8  A    between atoms: C_25  and  C_36
REMARK    9  A    between atoms: C_30  and  C_33
REMARK   10  A    between atoms: C_36  and  O_37
REMARK                            x       y       z     vdW  Elec       q    Type
REMARK                         _______ _______ _______ _____ _____    ______ ____
ROOT
ATOM      1  N   UNL     1      34.269 -22.670 -17.830  0.00  0.00    -0.286 N 
ATOM      2  C   UNL     1      34.803 -21.859 -18.806  0.00  0.00    +0.053 C 
ATOM      3  C   UNL     1      36.160 -21.701 -18.511  0.00  0.00    +0.015 C 
ATOM      4  C   UNL     1      35.238 -23.031 -16.933  0.00  0.00    +0.065 C 
ATOM      5  C   UNL     1      36.419 -22.447 -17.327  0.00  0.00    +0.017 C 
ATOM      6  C   UNL     1      34.197 -21.258 -19.915  0.00  0.00    +0.030 C 
ATOM      7  C   UNL     1      36.951 -20.906 -19.363  0.00  0.00    +0.003 C 
ATOM      8  C   UNL     1      35.002 -20.474 -20.746  0.00  0.00    +0.053 C 
ATOM      9  C   UNL     1      36.358 -20.300 -20.477  0.00  0.00    +0.015 C 
ENDROOT
BRANCH   8  11
ATOM     10  O   UNL     1      36.218 -18.614 -22.764  0.00  0.00    -0.252 OA
ATOM     11  N   UNL     1      34.437 -19.858 -21.864  0.00  0.00    -0.268 N 
ATOM     12  N   UNL     1      34.138 -18.587 -23.773  0.00  0.00    -0.285 N 
ATOM     13  C   UNL     1      35.049 -18.989 -22.789  0.00  0.00    +0.305 C 
ATOM     14  H   UNL     1      33.487 -20.060 -22.029  0.00  0.00    +0.156 HD
ATOM     15  H   UNL     1      33.217 -18.930 -23.727  0.00  0.00    +0.151 HD
BRANCH  12  16
ATOM     16  C   UNL     1      34.488 -17.693 -24.853  0.00  0.00    +0.118 C 
BRANCH  16  17
ATOM     17  C   UNL     1      34.197 -16.260 -24.513  0.00  0.00    -0.003 C 
ATOM     18  C   UNL     1      33.483 -15.462 -25.404  0.00  0.00    -0.003 C 
ATOM     19  C   UNL     1      34.641 -15.727 -23.302  0.00  0.00    -0.003 C 
ATOM     20  C   UNL     1      33.213 -14.131 -25.088  0.00  0.00    -0.000 C 
ATOM     21  C   UNL     1      34.372 -14.396 -22.985  0.00  0.00    -0.000 C 
ATOM     22  C   UNL     1      33.657 -13.598 -23.879  0.00  0.00    -0.000 C 
ENDBRANCH  16  17
ENDBRANCH  12  16
ENDBRANCH   8  11
BRANCH   1  23
ATOM     23  C   UNL     1      32.886 -23.089 -17.750  0.00  0.00    +0.097 C 
BRANCH  23  24
ATOM     24  C   UNL     1      32.576 -24.020 -16.570  0.00  0.00    +0.040 C 
BRANCH  24  25
ATOM     25  C   UNL     1      31.724 -23.391 -15.444  0.00  0.00    +0.091 C 
BRANCH  25  26
ATOM     26  N   UNL     1      30.276 -23.605 -15.613  0.00  0.00    -0.246 NA
ATOM     27  N   UNL     1      28.250 -24.511 -15.659  0.00  0.00    -0.251 NA
ATOM     28  C   UNL     1      29.357 -22.682 -16.045  0.00  0.00    +0.125 C 
ATOM     29  C   UNL     1      29.577 -24.695 -15.389  0.00  0.00    +0.201 C 
ATOM     30  C   UNL     1      28.092 -23.221 -16.082  0.00  0.00    +0.124 C 
BRANCH  30  33
ATOM     31  O   UNL     1      25.931 -22.359 -15.663  0.00  0.00    -0.269 OA
ATOM     32  N   UNL     1      26.684 -22.279 -17.812  0.00  0.00    -0.324 N 
ATOM     33  C   UNL     1      26.859 -22.619 -16.466  0.00  0.00    +0.257 C 
ATOM     34  H   UNL     1      25.844 -21.862 -18.110  0.00  0.00    +0.145 HD
ATOM     35  H   UNL     1      27.401 -22.458 -18.463  0.00  0.00    +0.145 HD
ENDBRANCH  30  33
ENDBRANCH  25  26
BRANCH  25  36
ATOM     36  C   UNL     1      32.185 -23.900 -14.068  0.00  0.00    +0.153 C 
BRANCH  36  37
ATOM     37  O   UNL     1      31.937 -22.904 -13.082  0.00  0.00    -0.381 OA
ATOM     38  H   UNL     1      31.380 -23.277 -12.381  0.00  0.00    +0.210 HD
ENDBRANCH  36  37
ENDBRANCH  25  36
ENDBRANCH  24  25
ENDBRANCH  23  24
ENDBRANCH   1  23
TORSDOF 10
ENDMDL
MODEL 8
REMARK VINA RESULT:     -10.6      9.511     14.131
REMARK  Name = 447546
REMARK  10 active torsions:
REMARK  status: ('A' for Active; 'I' for Inactive)
REMARK    1  A    between atoms: N_1  and  C_23
REMARK    2  A    between atoms: C_8  and  N_11
REMARK    3  A    between atoms: N_12  and  C_16
REMARK    4  A    between atoms: C_16  and  C_17
REMARK    5  A    between atoms: C_23  and  C_24
REMARK    6  A    between atoms: C_24  and  C_25
REMARK    7  A    between atoms: C_25  and  N_26
REMARK    8  A    between atoms: C_25  and  C_36
REMARK    9  A    between atoms: C_30  and  C_33
REMARK   10  A    between atoms: C_36  and  O_37
REMARK                            x       y       z     vdW  Elec       q    Type
REMARK                         _______ _______ _______ _____ _____    ______ ____
ROOT
ATOM      1  N   UNL     1      32.752 -13.193 -22.275  0.00  0.00    -0.286 N 
ATOM      2  C   UNL     1      32.220 -11.947 -22.030  0.00  0.00    +0.053 C 
ATOM      3  C   UNL     1      31.624 -11.996 -20.767  0.00  0.00    +0.015 C 
ATOM      4  C   UNL     1      32.515 -14.025 -21.214  0.00  0.00    +0.065 C 
ATOM      5  C   UNL     1      31.819 -13.313 -20.265  0.00  0.00    +0.017 C 
ATOM      6  C   UNL     1      32.220 -10.792 -22.821  0.00  0.00    +0.030 C 
ATOM      7  C   UNL     1      30.996 -10.837 -20.268  0.00  0.00    +0.003 C 
ATOM      8  C   UNL     1      31.592  -9.655 -22.304  0.00  0.00    +0.053 C 
ATOM      9  C   UNL     1      30.990  -9.675 -21.048  0.00  0.00    +0.015 C 
ENDROOT
BRANCH   8  11
ATOM     10  O   UNL     1      32.962  -7.025 -21.846  0.00  0.00    -0.252 OA
ATOM     11  N   UNL     1      31.571  -8.482 -23.060  0.00  0.00    -0.268 N 
ATOM     12  N   UNL     1      31.955  -6.328 -23.808  0.00  0.00    -0.285 N 
ATOM     13  C   UNL     1      32.234  -7.264 -22.806  0.00  0.00    +0.305 C 
ATOM     14  H   UNL     1      31.023  -8.509 -23.877  0.00  0.00    +0.156 HD
ATOM     15  H   UNL     1      31.362  -6.593 -24.546  0.00  0.00    +0.151 HD
BRANCH  12  16
ATOM     16  C   UNL     1      32.499  -4.989 -23.808  0.00  0.00    +0.118 C 
BRANCH  16  17
ATOM     17  C   UNL     1      33.437  -4.764 -24.959  0.00  0.00    -0.003 C 
ATOM     18  C   UNL     1      34.491  -5.648 -25.183  0.00  0.00    -0.003 C 
ATOM     19  C   UNL     1      33.252  -3.670 -25.805  0.00  0.00    -0.003 C 
ATOM     20  C   UNL     1      35.363  -5.438 -26.252  0.00  0.00    -0.000 C 
ATOM     21  C   UNL     1      34.123  -3.461 -26.874  0.00  0.00    -0.000 C 
ATOM     22  C   UNL     1      35.178  -4.345 -27.098  0.00  0.00    -0.000 C 
ENDBRANCH  16  17
ENDBRANCH  12  16
ENDBRANCH   8  11
BRANCH   1  23
ATOM     23  C   UNL     1      33.462 -13.583 -23.474  0.00  0.00    +0.097 C 
BRANCH  23  24
ATOM     24  C   UNL     1      34.579 -14.610 -23.241  0.00  0.00    +0.040 C 
BRANCH  24  25
ATOM     25  C   UNL     1      34.631 -15.766 -24.265  0.00  0.00    +0.091 C 
BRANCH  25  26
ATOM     26  N   UNL     1      34.815 -17.091 -23.647  0.00  0.00    -0.246 NA
ATOM     27  N   UNL     1      34.780 -19.273 -23.244  0.00  0.00    -0.251 NA
ATOM     28  C   UNL     1      35.443 -17.360 -22.457  0.00  0.00    +0.125 C 
ATOM     29  C   UNL     1      34.428 -18.265 -24.095  0.00  0.00    +0.201 C 
ATOM     30  C   UNL     1      35.435 -18.708 -22.186  0.00  0.00    +0.124 C 
BRANCH  30  33
ATOM     31  O   UNL     1      35.383 -20.363 -20.498  0.00  0.00    -0.269 OA
ATOM     32  N   UNL     1      37.234 -19.037 -20.599  0.00  0.00    -0.324 N 
ATOM     33  C   UNL     1      35.970 -19.413 -21.069  0.00  0.00    +0.257 C 
ATOM     34  H   UNL     1      37.632 -19.504 -19.829  0.00  0.00    +0.145 HD
ATOM     35  H   UNL     1      37.725 -18.305 -21.037  0.00  0.00    +0.145 HD
ENDBRANCH  30  33
ENDBRANCH  25  26
BRANCH  25  36
ATOM     36  C   UNL     1      33.377 -15.758 -25.155  0.00  0.00    +0.153 C 
BRANCH  36  37
ATOM     37  O   UNL     1      33.683 -15.153 -26.407  0.00  0.00    -0.381 OA
ATOM     38  H   UNL     1      34.024 -14.258 -26.257  0.00  0.00    +0.210 HD
ENDBRANCH  36  37
ENDBRANCH  25  36
ENDBRANCH  24  25
ENDBRANCH  23  24
ENDBRANCH   1  23
TORSDOF 10
ENDMDL
MODEL 9
REMARK VINA RESULT:     -10.5      2.840      6.137
REMARK  Name = 447546
REMARK  10 active torsions:
REMARK  status: ('A' for Active; 'I' for Inactive)
REMARK    1  A    between atoms: N_1  and  C_23
REMARK    2  A    between atoms: C_8  and  N_11
REMARK    3  A    between atoms: N_12  and  C_16
REMARK    4  A    between atoms: C_16  and  C_17
REMARK    5  A    between atoms: C_23  and  C_24
REMARK    6  A    between atoms: C_24  and  C_25
REMARK    7  A    between atoms: C_25  and  N_26
REMARK    8  A    between atoms: C_25  and  C_36
REMARK    9  A    between atoms: C_30  and  C_33
REMARK   10  A    between atoms: C_36  and  O_37
REMARK                            x       y       z     vdW  Elec       q    Type
REMARK                         _______ _______ _______ _____ _____    ______ ____
ROOT
ATOM      1  N   UNL     1      34.080 -22.672 -18.254  0.00  0.00    -0.286 N 
ATOM      2  C   UNL     1      34.651 -21.780 -19.133  0.00  0.00    +0.053 C 
ATOM      3  C   UNL     1      35.975 -21.596 -18.728  0.00  0.00    +0.015 C 
ATOM      4  C   UNL     1      34.995 -23.058 -17.312  0.00  0.00    +0.065 C 
ATOM      5  C   UNL     1      36.177 -22.409 -17.579  0.00  0.00    +0.017 C 
ATOM      6  C   UNL     1      34.102 -21.128 -20.244  0.00  0.00    +0.030 C 
ATOM      7  C   UNL     1      36.794 -20.718 -19.467  0.00  0.00    +0.003 C 
ATOM      8  C   UNL     1      34.934 -20.262 -20.961  0.00  0.00    +0.053 C 
ATOM      9  C   UNL     1      36.259 -20.060 -20.581  0.00  0.00    +0.015 C 
ENDROOT
BRANCH   8  11
ATOM     10  O   UNL     1      36.250 -18.307 -22.819  0.00  0.00    -0.252 OA
ATOM     11  N   UNL     1      34.427 -19.594 -22.076  0.00  0.00    -0.268 N 
ATOM     12  N   UNL     1      34.226 -18.232 -23.934  0.00  0.00    -0.285 N 
ATOM     13  C   UNL     1      35.085 -18.681 -22.924  0.00  0.00    +0.305 C 
ATOM     14  H   UNL     1      33.488 -19.787 -22.301  0.00  0.00    +0.156 HD
ATOM     15  H   UNL     1      33.305 -18.576 -23.954  0.00  0.00    +0.151 HD
BRANCH  12  16
ATOM     16  C   UNL     1      34.630 -17.287 -24.949  0.00  0.00    +0.118 C 
BRANCH  16  17
ATOM     17  C   UNL     1      34.227 -15.883 -24.603  0.00  0.00    -0.003 C 
ATOM     18  C   UNL     1      33.499 -15.120 -25.514  0.00  0.00    -0.003 C 
ATOM     19  C   UNL     1      34.580 -15.341 -23.366  0.00  0.00    -0.003 C 
ATOM     20  C   UNL     1      33.125 -13.816 -25.192  0.00  0.00    -0.000 C 
ATOM     21  C   UNL     1      34.205 -14.037 -23.043  0.00  0.00    -0.000 C 
ATOM     22  C   UNL     1      33.478 -13.274 -23.956  0.00  0.00    -0.000 C 
ENDBRANCH  16  17
ENDBRANCH  12  16
ENDBRANCH   8  11
BRANCH   1  23
ATOM     23  C   UNL     1      32.712 -23.143 -18.304  0.00  0.00    +0.097 C 
BRANCH  23  24
ATOM     24  C   UNL     1      31.834 -22.659 -17.141  0.00  0.00    +0.040 C 
BRANCH  24  25
ATOM     25  C   UNL     1      31.083 -23.773 -16.379  0.00  0.00    +0.091 C 
BRANCH  25  26
ATOM     26  N   UNL     1      31.754 -24.192 -15.136  0.00  0.00    -0.246 NA
ATOM     27  N   UNL     1      32.218 -25.144 -13.185  0.00  0.00    -0.251 NA
ATOM     28  C   UNL     1      33.009 -23.825 -14.719  0.00  0.00    +0.125 C 
ATOM     29  C   UNL     1      31.306 -24.987 -14.190  0.00  0.00    +0.201 C 
ATOM     30  C   UNL     1      33.320 -24.404 -13.510  0.00  0.00    +0.124 C 
BRANCH  30  33
ATOM     31  O   UNL     1      34.754 -25.015 -11.734  0.00  0.00    -0.269 OA
ATOM     32  N   UNL     1      35.455 -23.335 -13.106  0.00  0.00    -0.324 N 
ATOM     33  C   UNL     1      34.505 -24.292 -12.728  0.00  0.00    +0.257 C 
ATOM     34  H   UNL     1      36.284 -23.233 -12.586  0.00  0.00    +0.145 HD
ATOM     35  H   UNL     1      35.293 -22.763 -13.891  0.00  0.00    +0.145 HD
ENDBRANCH  30  33
ENDBRANCH  25  26
BRANCH  25  36
ATOM     36  C   UNL     1      29.634 -23.348 -16.089  0.00  0.00    +0.153 C 
BRANCH  36  37
ATOM     37  O   UNL     1      29.120 -22.614 -17.195  0.00  0.00    -0.381 OA
ATOM     38  H   UNL     1      28.386 -22.054 -16.897  0.00  0.00    +0.210 HD
ENDBRANCH  36  37
ENDBRANCH  25  36
ENDBRANCH  24  25
ENDBRANCH  23  24
ENDBRANCH   1  23
TORSDOF 10
ENDMDL
