MODEL 1
REMARK VINA RESULT:     -11.3      0.000      0.000
REMARK  Name = 11978813
REMARK  7 active torsions:
REMARK  status: ('A' for Active; 'I' for Inactive)
REMARK    1  A    between atoms: C_1  and  N_2
REMARK    2  A    between atoms: C_1  and  C_18
REMARK    3  A    between atoms: N_3  and  C_10
REMARK    4  A    between atoms: C_18  and  C_19
REMARK    5  A    between atoms: C_19  and  C_20
REMARK    6  A    between atoms: C_20  and  O_21
REMARK    7  A    between atoms: O_21  and  C_24
REMARK                            x       y       z     vdW  Elec       q    Type
REMARK                         _______ _______ _______ _____ _____    ______ ____
ROOT
ATOM      1  C   UNL     1      34.972 -16.921 -24.307  0.00  0.00    -0.077 C 
ENDROOT
BRANCH   1   2
ATOM      2  N   UNL     1      34.037 -15.878 -23.886  0.00  0.00    +0.389 N 
ATOM      3  N   UNL     1      33.188 -13.210 -23.320  0.00  0.00    -0.312 N 
ATOM      4  C   UNL     1      34.552 -15.170 -22.708  0.00  0.00    -0.055 C 
ATOM      5  C   UNL     1      33.802 -14.926 -24.978  0.00  0.00    -0.055 C 
ATOM      6  C   UNL     1      33.555 -14.114 -22.223  0.00  0.00    +0.068 C 
ATOM      7  C   UNL     1      32.781 -13.861 -24.570  0.00  0.00    +0.068 C 
ATOM      8  H   UNL     1      33.153 -16.324 -23.642  0.00  0.00    -0.080 HD
BRANCH   3  10
ATOM      9  S   UNL     1      33.219  -8.221 -24.155  0.00  0.00    -0.086 S 
ATOM     10  C   UNL     1      32.668 -11.953 -22.991  0.00  0.00    +0.048 C 
ATOM     11  C   UNL     1      33.108 -10.751 -23.634  0.00  0.00    +0.020 C 
ATOM     12  C   UNL     1      31.675 -11.852 -21.992  0.00  0.00    +0.015 C 
ATOM     13  C   UNL     1      32.545  -9.527 -23.255  0.00  0.00    +0.031 C 
ATOM     14  C   UNL     1      34.089 -10.573 -24.666  0.00  0.00    +0.009 C 
ATOM     15  C   UNL     1      31.131 -10.626 -21.633  0.00  0.00    +0.002 C 
ATOM     16  C   UNL     1      31.555  -9.450 -22.256  0.00  0.00    +0.007 C 
ATOM     17  C   UNL     1      34.244  -9.259 -25.036  0.00  0.00    +0.035 C 
ENDBRANCH   3  10
ENDBRANCH   1   2
BRANCH   1  18
ATOM     18  C   UNL     1      34.210 -18.135 -24.837  0.00  0.00    -0.019 C 
BRANCH  18  19
ATOM     19  C   UNL     1      34.674 -19.420 -24.154  0.00  0.00    +0.045 C 
BRANCH  19  20
ATOM     20  C   UNL     1      34.858 -19.224 -22.655  0.00  0.00    +0.205 C 
BRANCH  20  21
ATOM     21  O   UNL     1      33.723 -19.725 -21.961  0.00  0.00    -0.475 OA
BRANCH  21  24
ATOM     22  O   UNL     1      31.330 -23.748 -16.603  0.00  0.00    -0.270 OA
ATOM     23  N   UNL     1      32.087 -22.441 -18.340  0.00  0.00    -0.280 N 
ATOM     24  C   UNL     1      33.966 -20.530 -20.878  0.00  0.00    +0.140 C 
ATOM     25  C   UNL     1      32.899 -21.068 -20.169  0.00  0.00    +0.052 C 
ATOM     26  C   UNL     1      33.157 -21.888 -19.068  0.00  0.00    +0.054 C 
ATOM     27  C   UNL     1      35.278 -20.798 -20.503  0.00  0.00    +0.037 C 
ATOM     28  C   UNL     1      34.471 -22.166 -18.678  0.00  0.00    +0.014 C 
ATOM     29  C   UNL     1      35.534 -21.618 -19.401  0.00  0.00    +0.004 C 
ATOM     30  C   UNL     1      34.697 -23.029 -17.521  0.00  0.00    +0.006 C 
ATOM     31  C   UNL     1      32.260 -23.260 -17.242  0.00  0.00    +0.250 C 
ATOM     32  C   UNL     1      33.665 -23.545 -16.843  0.00  0.00    +0.058 C 
ATOM     33  H   UNL     1      31.168 -22.233 -18.629  0.00  0.00    +0.155 HD
ENDBRANCH  21  24
ENDBRANCH  20  21
ENDBRANCH  19  20
ENDBRANCH  18  19
ENDBRANCH   1  18
TORSDOF 7
ENDMDL
MODEL 2
REMARK VINA RESULT:     -11.2      3.531      6.208
REMARK  Name = 11978813
REMARK  7 active torsions:
REMARK  status: ('A' for Active; 'I' for Inactive)
REMARK    1  A    between atoms: C_1  and  N_2
REMARK    2  A    between atoms: C_1  and  C_18
REMARK    3  A    between atoms: N_3  and  C_10
REMARK    4  A    between atoms: C_18  and  C_19
REMARK    5  A    between atoms: C_19  and  C_20
REMARK    6  A    between atoms: C_20  and  O_21
REMARK    7  A    between atoms: O_21  and  C_24
REMARK                            x       y       z     vdW  Elec       q    Type
REMARK                         _______ _______ _______ _____ _____    ______ ____
ROOT
ATOM      1  C   UNL     1      35.679 -21.841 -19.125  0.00  0.00    -0.077 C 
ENDROOT
BRANCH   1   2
ATOM      2  N   UNL     1      35.598 -21.069 -20.364  0.00  0.00    +0.389 N 
ATOM      3  N   UNL     1      35.097 -18.762 -21.971  0.00  0.00    -0.312 N 
ATOM      4  C   UNL     1      34.223 -20.610 -20.595  0.00  0.00    -0.055 C 
ATOM      5  C   UNL     1      36.507 -19.919 -20.315  0.00  0.00    -0.055 C 
ATOM      6  C   UNL     1      34.113 -19.850 -21.919  0.00  0.00    +0.068 C 
ATOM      7  C   UNL     1      36.473 -19.134 -21.628  0.00  0.00    +0.068 C 
ATOM      8  H   UNL     1      35.876 -21.677 -21.135  0.00  0.00    -0.080 HD
BRANCH   3  10
ATOM      9  S   UNL     1      34.086 -13.844 -22.595  0.00  0.00    -0.086 S 
ATOM     10  C   UNL     1      34.864 -17.706 -22.860  0.00  0.00    +0.048 C 
ATOM     11  C   UNL     1      34.603 -16.371 -22.411  0.00  0.00    +0.020 C 
ATOM     12  C   UNL     1      34.885 -17.952 -24.250  0.00  0.00    +0.015 C 
ATOM     13  C   UNL     1      34.378 -15.364 -23.355  0.00  0.00    +0.031 C 
ATOM     14  C   UNL     1      34.526 -15.856 -21.074  0.00  0.00    +0.009 C 
ATOM     15  C   UNL     1      34.658 -16.935 -25.169  0.00  0.00    +0.002 C 
ATOM     16  C   UNL     1      34.403 -15.632 -24.738  0.00  0.00    +0.007 C 
ATOM     17  C   UNL     1      34.254 -14.509 -21.034  0.00  0.00    +0.035 C 
ENDBRANCH   3  10
ENDBRANCH   1   2
BRANCH   1  18
ATOM     18  C   UNL     1      36.813 -21.316 -18.245  0.00  0.00    -0.019 C 
BRANCH  18  19
ATOM     19  C   UNL     1      37.117 -22.283 -17.101  0.00  0.00    +0.045 C 
BRANCH  19  20
ATOM     20  C   UNL     1      35.935 -22.419 -16.151  0.00  0.00    +0.205 C 
BRANCH  20  21
ATOM     21  O   UNL     1      35.350 -23.707 -16.292  0.00  0.00    -0.475 OA
BRANCH  21  24
ATOM     22  O   UNL     1      28.434 -22.376 -17.294  0.00  0.00    -0.270 OA
ATOM     23  N   UNL     1      30.676 -22.796 -16.984  0.00  0.00    -0.280 N 
ATOM     24  C   UNL     1      34.045 -23.840 -15.896  0.00  0.00    +0.140 C 
ATOM     25  C   UNL     1      33.037 -23.247 -16.646  0.00  0.00    +0.052 C 
ATOM     26  C   UNL     1      31.709 -23.390 -16.236  0.00  0.00    +0.054 C 
ATOM     27  C   UNL     1      33.746 -24.568 -14.749  0.00  0.00    +0.037 C 
ATOM     28  C   UNL     1      31.392 -24.118 -15.084  0.00  0.00    +0.014 C 
ATOM     29  C   UNL     1      32.418 -24.709 -14.340  0.00  0.00    +0.004 C 
ATOM     30  C   UNL     1      29.991 -24.243 -14.689  0.00  0.00    +0.006 C 
ATOM     31  C   UNL     1      29.341 -22.891 -16.644  0.00  0.00    +0.250 C 
ATOM     32  C   UNL     1      29.024 -23.670 -15.417  0.00  0.00    +0.058 C 
ATOM     33  H   UNL     1      30.918 -22.286 -17.792  0.00  0.00    +0.155 HD
ENDBRANCH  21  24
ENDBRANCH  20  21
ENDBRANCH  19  20
ENDBRANCH  18  19
ENDBRANCH   1  18
TORSDOF 7
ENDMDL
MODEL 3
REMARK VINA RESULT:     -11.1      0.925      1.980
REMARK  Name = 11978813
REMARK  7 active torsions:
REMARK  status: ('A' for Active; 'I' for Inactive)
REMARK    1  A    between atoms: C_1  and  N_2
REMARK    2  A    between atoms: C_1  and  C_18
REMARK    3  A    between atoms: N_3  and  C_10
REMARK    4  A    between atoms: C_18  and  C_19
REMARK    5  A    between atoms: C_19  and  C_20
REMARK    6  A    between atoms: C_20  and  O_21
REMARK    7  A    between atoms: O_21  and  C_24
REMARK                            x       y       z     vdW  Elec       q    Type
REMARK                         _______ _______ _______ _____ _____    ______ ____
ROOT
ATOM      1  C   UNL     1      33.821 -16.750 -24.797  0.00  0.00    -0.077 C 
ENDROOT
BRANCH   1   2
ATOM      2  N   UNL     1      33.507 -15.336 -24.595  0.00  0.00    +0.389 N 
ATOM      3  N   UNL     1      33.987 -12.521 -24.669  0.00  0.00    -0.312 N 
ATOM      4  C   UNL     1      34.466 -14.722 -23.669  0.00  0.00    -0.055 C 
ATOM      5  C   UNL     1      33.518 -14.618 -25.875  0.00  0.00    -0.055 C 
ATOM      6  C   UNL     1      34.113 -13.257 -23.405  0.00  0.00    +0.068 C 
ATOM      7  C   UNL     1      33.136 -13.148 -25.685  0.00  0.00    +0.068 C 
ATOM      8  H   UNL     1      32.572 -15.273 -24.191  0.00  0.00    -0.080 HD
BRANCH   3  10
ATOM      9  S   UNL     1      32.340  -8.119 -22.798  0.00  0.00    -0.086 S 
ATOM     10  C   UNL     1      34.117 -11.128 -24.636  0.00  0.00    +0.048 C 
ATOM     11  C   UNL     1      33.274 -10.300 -23.826  0.00  0.00    +0.020 C 
ATOM     12  C   UNL     1      35.109 -10.504 -25.424  0.00  0.00    +0.015 C 
ATOM     13  C   UNL     1      33.458  -8.914 -23.842  0.00  0.00    +0.031 C 
ATOM     14  C   UNL     1      32.203 -10.671 -22.946  0.00  0.00    +0.009 C 
ATOM     15  C   UNL     1      35.274  -9.126 -25.423  0.00  0.00    +0.002 C 
ATOM     16  C   UNL     1      34.455  -8.312 -24.636  0.00  0.00    +0.007 C 
ATOM     17  C   UNL     1      31.618  -9.591 -22.331  0.00  0.00    +0.035 C 
ENDBRANCH   3  10
ENDBRANCH   1   2
BRANCH   1  18
ATOM     18  C   UNL     1      35.073 -17.134 -24.008  0.00  0.00    -0.019 C 
BRANCH  18  19
ATOM     19  C   UNL     1      35.100 -18.632 -23.711  0.00  0.00    +0.045 C 
BRANCH  19  20
ATOM     20  C   UNL     1      35.087 -18.908 -22.214  0.00  0.00    +0.205 C 
BRANCH  20  21
ATOM     21  O   UNL     1      33.968 -19.720 -21.884  0.00  0.00    -0.475 OA
BRANCH  21  24
ATOM     22  O   UNL     1      31.067 -23.617 -16.686  0.00  0.00    -0.270 OA
ATOM     23  N   UNL     1      31.989 -22.350 -18.372  0.00  0.00    -0.280 N 
ATOM     24  C   UNL     1      34.106 -20.554 -20.804  0.00  0.00    +0.140 C 
ATOM     25  C   UNL     1      32.974 -21.019 -20.147  0.00  0.00    +0.052 C 
ATOM     26  C   UNL     1      33.125 -21.870 -19.049  0.00  0.00    +0.054 C 
ATOM     27  C   UNL     1      35.379 -20.924 -20.382  0.00  0.00    +0.037 C 
ATOM     28  C   UNL     1      34.398 -22.251 -18.611  0.00  0.00    +0.014 C 
ATOM     29  C   UNL     1      35.528 -21.775 -19.283  0.00  0.00    +0.004 C 
ATOM     30  C   UNL     1      34.513 -23.142 -17.459  0.00  0.00    +0.006 C 
ATOM     31  C   UNL     1      32.056 -23.193 -17.281  0.00  0.00    +0.250 C 
ATOM     32  C   UNL     1      33.418 -23.587 -16.830  0.00  0.00    +0.058 C 
ATOM     33  H   UNL     1      31.101 -22.070 -18.694  0.00  0.00    +0.155 HD
ENDBRANCH  21  24
ENDBRANCH  20  21
ENDBRANCH  19  20
ENDBRANCH  18  19
ENDBRANCH   1  18
TORSDOF 7
ENDMDL
MODEL 4
REMARK VINA RESULT:     -11.1      1.812      2.406
REMARK  Name = 11978813
REMARK  7 active torsions:
REMARK  status: ('A' for Active; 'I' for Inactive)
REMARK    1  A    between atoms: C_1  and  N_2
REMARK    2  A    between atoms: C_1  and  C_18
REMARK    3  A    between atoms: N_3  and  C_10
REMARK    4  A    between atoms: C_18  and  C_19
REMARK    5  A    between atoms: C_19  and  C_20
REMARK    6  A    between atoms: C_20  and  O_21
REMARK    7  A    between atoms: O_21  and  C_24
REMARK                            x       y       z     vdW  Elec       q    Type
REMARK                         _______ _______ _______ _____ _____    ______ ____
ROOT
ATOM      1  C   UNL     1      34.947 -17.489 -24.379  0.00  0.00    -0.077 C 
ENDROOT
BRANCH   1   2
ATOM      2  N   UNL     1      34.705 -16.060 -24.187  0.00  0.00    +0.389 N 
ATOM      3  N   UNL     1      33.279 -13.754 -23.285  0.00  0.00    -0.312 N 
ATOM      4  C   UNL     1      33.455 -15.657 -24.843  0.00  0.00    -0.055 C 
ATOM      5  C   UNL     1      34.646 -15.735 -22.757  0.00  0.00    -0.055 C 
ATOM      6  C   UNL     1      33.220 -14.151 -24.698  0.00  0.00    +0.068 C 
ATOM      7  C   UNL     1      34.449 -14.233 -22.541  0.00  0.00    +0.068 C 
ATOM      8  H   UNL     1      35.479 -15.547 -24.609  0.00  0.00    -0.080 HD
BRANCH   3  10
ATOM      9  S   UNL     1      32.952  -8.744 -23.903  0.00  0.00    -0.086 S 
ATOM     10  C   UNL     1      32.662 -12.555 -22.912  0.00  0.00    +0.048 C 
ATOM     11  C   UNL     1      33.021 -11.296 -23.494  0.00  0.00    +0.020 C 
ATOM     12  C   UNL     1      31.648 -12.572 -21.929  0.00  0.00    +0.015 C 
ATOM     13  C   UNL     1      32.363 -10.136 -23.074  0.00  0.00    +0.031 C 
ATOM     14  C   UNL     1      34.003 -11.001 -24.498  0.00  0.00    +0.009 C 
ATOM     15  C   UNL     1      31.009 -11.407 -21.528  0.00  0.00    +0.002 C 
ATOM     16  C   UNL     1      31.355 -10.176 -22.091  0.00  0.00    +0.007 C 
ATOM     17  C   UNL     1      34.066  -9.664 -24.808  0.00  0.00    +0.035 C 
ENDBRANCH   3  10
ENDBRANCH   1   2
BRANCH   1  18
ATOM     18  C   UNL     1      35.390 -18.134 -23.066  0.00  0.00    -0.019 C 
BRANCH  18  19
ATOM     19  C   UNL     1      34.564 -19.382 -22.758  0.00  0.00    +0.045 C 
BRANCH  19  20
ATOM     20  C   UNL     1      34.553 -19.693 -21.267  0.00  0.00    +0.205 C 
BRANCH  20  21
ATOM     21  O   UNL     1      35.322 -20.861 -21.013  0.00  0.00    -0.475 OA
BRANCH  21  24
ATOM     22  O   UNL     1      37.548 -23.151 -14.656  0.00  0.00    -0.270 OA
ATOM     23  N   UNL     1      36.845 -22.405 -16.717  0.00  0.00    -0.280 N 
ATOM     24  C   UNL     1      35.080 -21.518 -19.834  0.00  0.00    +0.140 C 
ATOM     25  C   UNL     1      36.090 -21.622 -18.886  0.00  0.00    +0.052 C 
ATOM     26  C   UNL     1      35.833 -22.291 -17.687  0.00  0.00    +0.054 C 
ATOM     27  C   UNL     1      33.825 -22.071 -19.603  0.00  0.00    +0.037 C 
ATOM     28  C   UNL     1      34.576 -22.853 -17.440  0.00  0.00    +0.014 C 
ATOM     29  C   UNL     1      33.570 -22.740 -18.403  0.00  0.00    +0.004 C 
ATOM     30  C   UNL     1      34.348 -23.545 -16.173  0.00  0.00    +0.006 C 
ATOM     31  C   UNL     1      36.669 -23.050 -15.509  0.00  0.00    +0.250 C 
ATOM     32  C   UNL     1      35.325 -23.641 -15.264  0.00  0.00    +0.058 C 
ATOM     33  H   UNL     1      37.724 -22.004 -16.909  0.00  0.00    +0.155 HD
ENDBRANCH  21  24
ENDBRANCH  20  21
ENDBRANCH  19  20
ENDBRANCH  18  19
ENDBRANCH   1  18
TORSDOF 7
ENDMDL
MODEL 5
REMARK VINA RESULT:     -10.9      2.219      3.940
REMARK  Name = 11978813
REMARK  7 active torsions:
REMARK  status: ('A' for Active; 'I' for Inactive)
REMARK    1  A    between atoms: C_1  and  N_2
REMARK    2  A    between atoms: C_1  and  C_18
REMARK    3  A    between atoms: N_3  and  C_10
REMARK    4  A    between atoms: C_18  and  C_19
REMARK    5  A    between atoms: C_19  and  C_20
REMARK    6  A    between atoms: C_20  and  O_21
REMARK    7  A    between atoms: O_21  and  C_24
REMARK                            x       y       z     vdW  Elec       q    Type
REMARK                         _______ _______ _______ _____ _____    ______ ____
ROOT
ATOM      1  C   UNL     1      33.442 -14.010 -25.817  0.00  0.00    -0.077 C 
ENDROOT
BRANCH   1   2
ATOM      2  N   UNL     1      33.970 -12.657 -25.650  0.00  0.00    +0.389 N 
ATOM      3  N   UNL     1      33.826  -9.824 -25.314  0.00  0.00    -0.312 N 
ATOM      4  C   UNL     1      33.546 -11.798 -26.762  0.00  0.00    -0.055 C 
ATOM      5  C   UNL     1      33.523 -12.082 -24.376  0.00  0.00    -0.055 C 
ATOM      6  C   UNL     1      34.140 -10.394 -26.629  0.00  0.00    +0.068 C 
ATOM      7  C   UNL     1      34.114 -10.686 -24.163  0.00  0.00    +0.068 C 
ATOM      8  H   UNL     1      34.989 -12.711 -25.646  0.00  0.00    -0.080 HD
BRANCH   3  10
ATOM      9  S   UNL     1      31.489  -5.586 -23.840  0.00  0.00    -0.086 S 
ATOM     10  C   UNL     1      33.880  -8.433 -25.169  0.00  0.00    +0.048 C 
ATOM     11  C   UNL     1      32.790  -7.677 -24.628  0.00  0.00    +0.020 C 
ATOM     12  C   UNL     1      35.044  -7.738 -25.566  0.00  0.00    +0.015 C 
ATOM     13  C   UNL     1      32.913  -6.288 -24.512  0.00  0.00    +0.031 C 
ATOM     14  C   UNL     1      31.513  -8.126 -24.155  0.00  0.00    +0.009 C 
ATOM     15  C   UNL     1      35.142  -6.359 -25.441  0.00  0.00    +0.002 C 
ATOM     16  C   UNL     1      34.083  -5.615 -24.915  0.00  0.00    +0.007 C 
ATOM     17  C   UNL     1      30.718  -7.100 -23.703  0.00  0.00    +0.035 C 
ENDBRANCH   3  10
ENDBRANCH   1   2
BRANCH   1  18
ATOM     18  C   UNL     1      33.834 -14.883 -24.626  0.00  0.00    -0.019 C 
BRANCH  18  19
ATOM     19  C   UNL     1      33.593 -16.362 -24.922  0.00  0.00    +0.045 C 
BRANCH  19  20
ATOM     20  C   UNL     1      34.809 -17.210 -24.576  0.00  0.00    +0.205 C 
BRANCH  20  21
ATOM     21  O   UNL     1      35.227 -16.934 -23.246  0.00  0.00    -0.475 OA
BRANCH  21  24
ATOM     22  O   UNL     1      32.462 -22.261 -19.426  0.00  0.00    -0.270 OA
ATOM     23  N   UNL     1      33.340 -20.531 -20.666  0.00  0.00    -0.280 N 
ATOM     24  C   UNL     1      35.392 -18.010 -22.413  0.00  0.00    +0.140 C 
ATOM     25  C   UNL     1      34.278 -18.712 -21.970  0.00  0.00    +0.052 C 
ATOM     26  C   UNL     1      34.457 -19.809 -21.123  0.00  0.00    +0.054 C 
ATOM     27  C   UNL     1      36.673 -18.386 -22.023  0.00  0.00    +0.037 C 
ATOM     28  C   UNL     1      35.739 -20.199 -20.721  0.00  0.00    +0.014 C 
ATOM     29  C   UNL     1      36.850 -19.482 -21.176  0.00  0.00    +0.004 C 
ATOM     30  C   UNL     1      35.883 -21.351 -19.835  0.00  0.00    +0.006 C 
ATOM     31  C   UNL     1      33.434 -21.625 -19.828  0.00  0.00    +0.250 C 
ATOM     32  C   UNL     1      34.805 -22.024 -19.412  0.00  0.00    +0.058 C 
ATOM     33  H   UNL     1      32.444 -20.242 -20.958  0.00  0.00    +0.155 HD
ENDBRANCH  21  24
ENDBRANCH  20  21
ENDBRANCH  19  20
ENDBRANCH  18  19
ENDBRANCH   1  18
TORSDOF 7
ENDMDL
MODEL 6
REMARK VINA RESULT:     -10.8      3.735      7.039
REMARK  Name = 11978813
REMARK  7 active torsions:
REMARK  status: ('A' for Active; 'I' for Inactive)
REMARK    1  A    between atoms: C_1  and  N_2
REMARK    2  A    between atoms: C_1  and  C_18
REMARK    3  A    between atoms: N_3  and  C_10
REMARK    4  A    between atoms: C_18  and  C_19
REMARK    5  A    between atoms: C_19  and  C_20
REMARK    6  A    between atoms: C_20  and  O_21
REMARK    7  A    between atoms: O_21  and  C_24
REMARK                            x       y       z     vdW  Elec       q    Type
REMARK                         _______ _______ _______ _____ _____    ______ ____
ROOT
ATOM      1  C   UNL     1      31.124  -9.978 -20.525  0.00  0.00    -0.077 C 
ENDROOT
BRANCH   1   2
ATOM      2  N   UNL     1      31.998  -9.293 -21.476  0.00  0.00    +0.389 N 
ATOM      3  N   UNL     1      32.753  -7.240 -23.314  0.00  0.00    -0.312 N 
ATOM      4  C   UNL     1      31.356  -9.202 -22.793  0.00  0.00    -0.055 C 
ATOM      5  C   UNL     1      32.335  -7.949 -20.992  0.00  0.00    -0.055 C 
ATOM      6  C   UNL     1      32.285  -8.539 -23.813  0.00  0.00    +0.068 C 
ATOM      7  C   UNL     1      33.295  -7.242 -21.951  0.00  0.00    +0.068 C 
ATOM      8  H   UNL     1      32.857  -9.835 -21.565  0.00  0.00    -0.080 HD
BRANCH   3  10
ATOM      9  S   UNL     1      31.871  -3.004 -25.934  0.00  0.00    -0.086 S 
ATOM     10  C   UNL     1      33.222  -6.307 -24.245  0.00  0.00    +0.048 C 
ATOM     11  C   UNL     1      32.444  -5.176 -24.654  0.00  0.00    +0.020 C 
ATOM     12  C   UNL     1      34.506  -6.474 -24.810  0.00  0.00    +0.015 C 
ATOM     13  C   UNL     1      32.974  -4.283 -25.591  0.00  0.00    +0.031 C 
ATOM     14  C   UNL     1      31.129  -4.776 -24.244  0.00  0.00    +0.009 C 
ATOM     15  C   UNL     1      35.012  -5.574 -25.738  0.00  0.00    +0.002 C 
ATOM     16  C   UNL     1      34.258  -4.470 -26.141  0.00  0.00    +0.007 C 
ATOM     17  C   UNL     1      30.704  -3.623 -24.858  0.00  0.00    +0.035 C 
ENDBRANCH   3  10
ENDBRANCH   1   2
BRANCH   1  18
ATOM     18  C   UNL     1      30.646 -11.308 -21.106  0.00  0.00    -0.019 C 
BRANCH  18  19
ATOM     19  C   UNL     1      31.761 -12.353 -21.083  0.00  0.00    +0.045 C 
BRANCH  19  20
ATOM     20  C   UNL     1      32.061 -12.885 -22.478  0.00  0.00    +0.205 C 
BRANCH  20  21
ATOM     21  O   UNL     1      33.461 -13.078 -22.629  0.00  0.00    -0.475 OA
BRANCH  21  24
ATOM     22  O   UNL     1      36.098 -19.389 -20.673  0.00  0.00    -0.270 OA
ATOM     23  N   UNL     1      35.247 -17.340 -21.289  0.00  0.00    -0.280 N 
ATOM     24  C   UNL     1      33.880 -14.343 -22.951  0.00  0.00    +0.140 C 
ATOM     25  C   UNL     1      34.348 -15.186 -21.951  0.00  0.00    +0.052 C 
ATOM     26  C   UNL     1      34.771 -16.474 -22.289  0.00  0.00    +0.054 C 
ATOM     27  C   UNL     1      33.830 -14.765 -24.276  0.00  0.00    +0.037 C 
ATOM     28  C   UNL     1      34.727 -16.914 -23.617  0.00  0.00    +0.014 C 
ATOM     29  C   UNL     1      34.253 -16.054 -24.612  0.00  0.00    +0.004 C 
ATOM     30  C   UNL     1      35.179 -18.268 -23.928  0.00  0.00    +0.006 C 
ATOM     31  C   UNL     1      35.682 -18.626 -21.542  0.00  0.00    +0.250 C 
ATOM     32  C   UNL     1      35.628 -19.076 -22.960  0.00  0.00    +0.058 C 
ATOM     33  H   UNL     1      35.272 -17.013 -20.360  0.00  0.00    +0.155 HD
ENDBRANCH  21  24
ENDBRANCH  20  21
ENDBRANCH  19  20
ENDBRANCH  18  19
ENDBRANCH   1  18
TORSDOF 7
ENDMDL
MODEL 7
REMARK VINA RESULT:     -10.8      4.229     11.680
REMARK  Name = 11978813
REMARK  7 active torsions:
REMARK  status: ('A' for Active; 'I' for Inactive)
REMARK    1  A    between atoms: C_1  and  N_2
REMARK    2  A    between atoms: C_1  and  C_18
REMARK    3  A    between atoms: N_3  and  C_10
REMARK    4  A    between atoms: C_18  and  C_19
REMARK    5  A    between atoms: C_19  and  C_20
REMARK    6  A    between atoms: C_20  and  O_21
REMARK    7  A    between atoms: O_21  and  C_24
REMARK                            x       y       z     vdW  Elec       q    Type
REMARK                         _______ _______ _______ _____ _____    ______ ____
ROOT
ATOM      1  C   UNL     1      36.391 -21.685 -18.495  0.00  0.00    -0.077 C 
ENDROOT
BRANCH   1   2
ATOM      2  N   UNL     1      35.498 -22.635 -17.835  0.00  0.00    +0.389 N 
ATOM      3  N   UNL     1      33.252 -23.446 -16.266  0.00  0.00    -0.312 N 
ATOM      4  C   UNL     1      35.484 -22.407 -16.385  0.00  0.00    -0.055 C 
ATOM      5  C   UNL     1      34.136 -22.520 -18.371  0.00  0.00    -0.055 C 
ATOM      6  C   UNL     1      34.596 -23.433 -15.676  0.00  0.00    +0.068 C 
ATOM      7  C   UNL     1      33.202 -23.549 -17.729  0.00  0.00    +0.068 C 
ATOM      8  H   UNL     1      35.845 -23.577 -18.017  0.00  0.00    -0.080 HD
BRANCH   3  10
ATOM      9  S   UNL     1      28.258 -23.755 -15.520  0.00  0.00    -0.086 S 
ATOM     10  C   UNL     1      32.201 -23.961 -15.499  0.00  0.00    +0.048 C 
ATOM     11  C   UNL     1      30.828 -23.677 -15.794  0.00  0.00    +0.020 C 
ATOM     12  C   UNL     1      32.490 -24.789 -14.392  0.00  0.00    +0.015 C 
ATOM     13  C   UNL     1      29.828 -24.225 -14.984  0.00  0.00    +0.031 C 
ATOM     14  C   UNL     1      30.266 -22.878 -16.844  0.00  0.00    +0.009 C 
ATOM     15  C   UNL     1      31.480 -25.321 -13.602  0.00  0.00    +0.002 C 
ATOM     16  C   UNL     1      30.139 -25.049 -13.884  0.00  0.00    +0.007 C 
ATOM     17  C   UNL     1      28.893 -22.837 -16.809  0.00  0.00    +0.035 C 
ENDBRANCH   3  10
ENDBRANCH   1   2
BRANCH   1  18
ATOM     18  C   UNL     1      35.966 -21.477 -19.948  0.00  0.00    -0.019 C 
BRANCH  18  19
ATOM     19  C   UNL     1      36.510 -20.160 -20.499  0.00  0.00    +0.045 C 
BRANCH  19  20
ATOM     20  C   UNL     1      35.492 -19.462 -21.392  0.00  0.00    +0.205 C 
BRANCH  20  21
ATOM     21  O   UNL     1      35.658 -18.053 -21.301  0.00  0.00    -0.475 OA
BRANCH  21  24
ATOM     22  O   UNL     1      33.383 -11.824 -23.880  0.00  0.00    -0.270 OA
ATOM     23  N   UNL     1      34.121 -13.833 -23.029  0.00  0.00    -0.280 N 
ATOM     24  C   UNL     1      35.165 -17.304 -22.339  0.00  0.00    +0.140 C 
ATOM     25  C   UNL     1      34.897 -15.955 -22.145  0.00  0.00    +0.052 C 
ATOM     26  C   UNL     1      34.397 -15.200 -23.209  0.00  0.00    +0.054 C 
ATOM     27  C   UNL     1      34.940 -17.906 -23.572  0.00  0.00    +0.037 C 
ATOM     28  C   UNL     1      34.164 -15.791 -24.455  0.00  0.00    +0.014 C 
ATOM     29  C   UNL     1      34.439 -17.150 -24.635  0.00  0.00    +0.004 C 
ATOM     30  C   UNL     1      33.640 -14.966 -25.542  0.00  0.00    +0.006 C 
ATOM     31  C   UNL     1      33.625 -13.020 -24.030  0.00  0.00    +0.250 C 
ATOM     32  C   UNL     1      33.385 -13.666 -25.348  0.00  0.00    +0.058 C 
ATOM     33  H   UNL     1      34.289 -13.434 -22.144  0.00  0.00    +0.155 HD
ENDBRANCH  21  24
ENDBRANCH  20  21
ENDBRANCH  19  20
ENDBRANCH  18  19
ENDBRANCH   1  18
TORSDOF 7
ENDMDL
MODEL 8
REMARK VINA RESULT:     -10.7      4.886     11.791
REMARK  Name = 11978813
REMARK  7 active torsions:
REMARK  status: ('A' for Active; 'I' for Inactive)
REMARK    1  A    between atoms: C_1  and  N_2
REMARK    2  A    between atoms: C_1  and  C_18
REMARK    3  A    between atoms: N_3  and  C_10
REMARK    4  A    between atoms: C_18  and  C_19
REMARK    5  A    between atoms: C_19  and  C_20
REMARK    6  A    between atoms: C_20  and  O_21
REMARK    7  A    between atoms: O_21  and  C_24
REMARK                            x       y       z     vdW  Elec       q    Type
REMARK                         _______ _______ _______ _____ _____    ______ ____
ROOT
ATOM      1  C   UNL     1      33.780 -15.187 -25.132  0.00  0.00    -0.077 C 
ENDROOT
BRANCH   1   2
ATOM      2  N   UNL     1      34.566 -16.166 -24.383  0.00  0.00    +0.389 N 
ATOM      3  N   UNL     1      35.010 -18.243 -22.472  0.00  0.00    -0.312 N 
ATOM      4  C   UNL     1      34.517 -15.875 -22.945  0.00  0.00    -0.055 C 
ATOM      5  C   UNL     1      34.073 -17.525 -24.634  0.00  0.00    -0.055 C 
ATOM      6  C   UNL     1      35.383 -16.859 -22.155  0.00  0.00    +0.068 C 
ATOM      7  C   UNL     1      34.923 -18.565 -23.900  0.00  0.00    +0.068 C 
ATOM      8  H   UNL     1      35.535 -16.104 -24.698  0.00  0.00    -0.080 HD
BRANCH   3  10
ATOM      9  S   UNL     1      33.443 -21.977 -19.441  0.00  0.00    -0.086 S 
ATOM     10  C   UNL     1      35.352 -19.243 -21.555  0.00  0.00    +0.048 C 
ATOM     11  C   UNL     1      34.371 -20.094 -20.950  0.00  0.00    +0.020 C 
ATOM     12  C   UNL     1      36.707 -19.430 -21.205  0.00  0.00    +0.015 C 
ATOM     13  C   UNL     1      34.783 -21.073 -20.041  0.00  0.00    +0.031 C 
ATOM     14  C   UNL     1      32.948 -20.117 -21.127  0.00  0.00    +0.009 C 
ATOM     15  C   UNL     1      37.092 -20.409 -20.299  0.00  0.00    +0.002 C 
ATOM     16  C   UNL     1      36.141 -21.243 -19.706  0.00  0.00    +0.007 C 
ATOM     17  C   UNL     1      32.330 -21.084 -20.372  0.00  0.00    +0.035 C 
ENDBRANCH   3  10
ENDBRANCH   1   2
BRANCH   1  18
ATOM     18  C   UNL     1      33.245 -14.105 -24.195  0.00  0.00    -0.019 C 
BRANCH  18  19
ATOM     19  C   UNL     1      33.864 -12.745 -24.511  0.00  0.00    +0.045 C 
BRANCH  19  20
ATOM     20  C   UNL     1      33.528 -12.290 -25.926  0.00  0.00    +0.205 C 
BRANCH  20  21
ATOM     21  O   UNL     1      34.451 -11.294 -26.344  0.00  0.00    -0.475 OA
BRANCH  21  24
ATOM     22  O   UNL     1      30.660  -5.498 -24.715  0.00  0.00    -0.270 OA
ATOM     23  N   UNL     1      31.873  -7.380 -25.252  0.00  0.00    -0.280 N 
ATOM     24  C   UNL     1      34.355 -10.068 -25.737  0.00  0.00    +0.140 C 
ATOM     25  C   UNL     1      33.162  -9.358 -25.811  0.00  0.00    +0.052 C 
ATOM     26  C   UNL     1      33.073  -8.111 -25.188  0.00  0.00    +0.054 C 
ATOM     27  C   UNL     1      35.452  -9.551 -25.056  0.00  0.00    +0.037 C 
ATOM     28  C   UNL     1      34.168  -7.577 -24.500  0.00  0.00    +0.014 C 
ATOM     29  C   UNL     1      35.360  -8.303 -24.435  0.00  0.00    +0.004 C 
ATOM     30  C   UNL     1      34.033  -6.269 -23.863  0.00  0.00    +0.006 C 
ATOM     31  C   UNL     1      31.706  -6.142 -24.664  0.00  0.00    +0.250 C 
ATOM     32  C   UNL     1      32.881  -5.591 -23.936  0.00  0.00    +0.058 C 
ATOM     33  H   UNL     1      31.113  -7.771 -25.742  0.00  0.00    +0.155 HD
ENDBRANCH  21  24
ENDBRANCH  20  21
ENDBRANCH  19  20
ENDBRANCH  18  19
ENDBRANCH   1  18
TORSDOF 7
ENDMDL
MODEL 9
REMARK VINA RESULT:     -10.7      4.846     12.228
REMARK  Name = 11978813
REMARK  7 active torsions:
REMARK  status: ('A' for Active; 'I' for Inactive)
REMARK    1  A    between atoms: C_1  and  N_2
REMARK    2  A    between atoms: C_1  and  C_18
REMARK    3  A    between atoms: N_3  and  C_10
REMARK    4  A    between atoms: C_18  and  C_19
REMARK    5  A    between atoms: C_19  and  C_20
REMARK    6  A    between atoms: C_20  and  O_21
REMARK    7  A    between atoms: O_21  and  C_24
REMARK                            x       y       z     vdW  Elec       q    Type
REMARK                         _______ _______ _______ _____ _____    ______ ____
ROOT
ATOM      1  C   UNL     1      33.792 -22.346 -19.645  0.00  0.00    -0.077 C 
ENDROOT
BRANCH   1   2
ATOM      2  N   UNL     1      33.999 -22.442 -18.201  0.00  0.00    +0.389 N 
ATOM      3  N   UNL     1      34.924 -23.625 -15.771  0.00  0.00    -0.312 N 
ATOM      4  C   UNL     1      33.348 -23.643 -17.665  0.00  0.00    -0.055 C 
ATOM      5  C   UNL     1      35.432 -22.468 -17.886  0.00  0.00    -0.055 C 
ATOM      6  C   UNL     1      33.508 -23.724 -16.145  0.00  0.00    +0.068 C 
ATOM      7  C   UNL     1      35.663 -22.511 -16.373  0.00  0.00    +0.068 C 
ATOM      8  H   UNL     1      33.582 -21.619 -17.765  0.00  0.00    -0.080 HD
BRANCH   3  10
ATOM      9  S   UNL     1      38.542 -25.748 -12.943  0.00  0.00    -0.086 S 
ATOM     10  C   UNL     1      35.310 -24.117 -14.519  0.00  0.00    +0.048 C 
ATOM     11  C   UNL     1      36.612 -24.663 -14.279  0.00  0.00    +0.020 C 
ATOM     12  C   UNL     1      34.393 -24.079 -13.445  0.00  0.00    +0.015 C 
ATOM     13  C   UNL     1      36.931 -25.138 -13.003  0.00  0.00    +0.031 C 
ATOM     14  C   UNL     1      37.718 -24.819 -15.181  0.00  0.00    +0.009 C 
ATOM     15  C   UNL     1      34.732 -24.556 -12.186  0.00  0.00    +0.002 C 
ATOM     16  C   UNL     1      36.000 -25.091 -11.946  0.00  0.00    +0.007 C 
ATOM     17  C   UNL     1      38.817 -25.390 -14.587  0.00  0.00    +0.035 C 
ENDBRANCH   3  10
ENDBRANCH   1   2
BRANCH   1  18
ATOM     18  C   UNL     1      32.832 -21.203 -19.970  0.00  0.00    -0.019 C 
BRANCH  18  19
ATOM     19  C   UNL     1      33.519 -20.126 -20.807  0.00  0.00    +0.045 C 
BRANCH  19  20
ATOM     20  C   UNL     1      35.010 -20.398 -20.959  0.00  0.00    +0.205 C 
BRANCH  20  21
ATOM     21  O   UNL     1      35.704 -19.175 -21.166  0.00  0.00    -0.475 OA
BRANCH  21  24
ATOM     22  O   UNL     1      33.969 -12.722 -23.608  0.00  0.00    -0.270 OA
ATOM     23  N   UNL     1      34.533 -14.803 -22.801  0.00  0.00    -0.280 N 
ATOM     24  C   UNL     1      35.250 -18.369 -22.178  0.00  0.00    +0.140 C 
ATOM     25  C   UNL     1      35.126 -17.002 -21.963  0.00  0.00    +0.052 C 
ATOM     26  C   UNL     1      34.663 -16.189 -23.001  0.00  0.00    +0.054 C 
ATOM     27  C   UNL     1      34.918 -18.932 -23.406  0.00  0.00    +0.037 C 
ATOM     28  C   UNL     1      34.325 -16.740 -24.242  0.00  0.00    +0.014 C 
ATOM     29  C   UNL     1      34.455 -18.117 -24.442  0.00  0.00    +0.004 C 
ATOM     30  C   UNL     1      33.845 -15.855 -25.301  0.00  0.00    +0.006 C 
ATOM     31  C   UNL     1      34.084 -13.934 -23.776  0.00  0.00    +0.250 C 
ATOM     32  C   UNL     1      33.729 -14.538 -25.089  0.00  0.00    +0.058 C 
ATOM     33  H   UNL     1      34.775 -14.433 -21.920  0.00  0.00    +0.155 HD
ENDBRANCH  21  24
ENDBRANCH  20  21
ENDBRANCH  19  20
ENDBRANCH  18  19
ENDBRANCH   1  18
TORSDOF 7
ENDMDL
