MODEL 1
REMARK VINA RESULT:     -12.5      0.000      0.000
REMARK  Name = 10157080
REMARK  5 active torsions:
REMARK  status: ('A' for Active; 'I' for Inactive)
REMARK    1  A    between atoms: C_3  and  O_8
REMARK    2  A    between atoms: C_6  and  O_18
REMARK    3  A    between atoms: O_8  and  C_13
REMARK    4  A    between atoms: O_18  and  C_20
REMARK    5  A    between atoms: C_19  and  N_25
REMARK                            x       y       z     vdW  Elec       q    Type
REMARK                         _______ _______ _______ _____ _____    ______ ____
ROOT
ATOM      1  N   UNL     1      34.340 -23.386 -16.688  0.00  0.00    -0.277 NA
ATOM      2  N   UNL     1      31.976 -23.354 -17.155  0.00  0.00    -0.319 NA
ATOM      3  C   UNL     1      34.035 -23.235 -15.389  0.00  0.00    +0.278 C 
ATOM      4  C   UNL     1      32.759 -23.134 -14.890  0.00  0.00    +0.156 C 
ATOM      5  C   UNL     1      31.754 -23.202 -15.833  0.00  0.00    +0.113 C 
ATOM      6  C   UNL     1      33.273 -23.438 -17.508  0.00  0.00    +0.317 C 
ATOM      7  C   UNL     1      30.330 -23.105 -15.398  0.00  0.00    +0.063 C 
ENDROOT
BRANCH   3   8
ATOM      8  O   UNL     1      35.100 -23.179 -14.507  0.00  0.00    -0.429 OA
BRANCH   8  13
ATOM      9  O   UNL     1      39.689 -24.627 -14.815  0.00  0.00    -0.435 OA
ATOM     10  O   UNL     1      39.040 -26.945 -14.924  0.00  0.00    -0.435 OA
ATOM     11  C   UNL     1      38.339 -24.789 -14.760  0.00  0.00    +0.179 C 
ATOM     12  C   UNL     1      37.969 -26.112 -14.821  0.00  0.00    +0.177 C 
ATOM     13  C   UNL     1      36.058 -24.142 -14.612  0.00  0.00    +0.151 C 
ATOM     14  C   UNL     1      37.406 -23.778 -14.654  0.00  0.00    +0.078 C 
ATOM     15  C   UNL     1      36.644 -26.499 -14.782  0.00  0.00    +0.043 C 
ATOM     16  C   UNL     1      35.679 -25.495 -14.674  0.00  0.00    +0.041 C 
ATOM     17  C   UNL     1      40.127 -25.997 -14.918  0.00  0.00    +0.429 C 
ENDBRANCH   8  13
ENDBRANCH   3   8
BRANCH   6  18
ATOM     18  O   UNL     1      33.537 -23.590 -18.849  0.00  0.00    -0.375 OA
BRANCH  18  20
ATOM     19  C   UNL     1      34.395 -20.153 -21.012  0.00  0.00    +0.057 C 
ATOM     20  C   UNL     1      33.822 -22.448 -19.567  0.00  0.00    +0.161 C 
ATOM     21  C   UNL     1      33.070 -20.487 -20.731  0.00  0.00    +0.018 C 
ATOM     22  C   UNL     1      35.431 -20.973 -20.566  0.00  0.00    +0.018 C 
ATOM     23  C   UNL     1      32.781 -21.642 -20.003  0.00  0.00    +0.040 C 
ATOM     24  C   UNL     1      35.143 -22.127 -19.839  0.00  0.00    +0.040 C 
BRANCH  19  25
ATOM     25  N   UNL     1      34.680 -19.008 -21.734  0.00  0.00    -0.246 N 
ATOM     26  N   UNL     1      34.854 -17.621 -23.471  0.00  0.00    -0.224 NA
ATOM     27  C   UNL     1      35.212 -17.842 -21.243  0.00  0.00    +0.092 C 
ATOM     28  C   UNL     1      34.484 -18.821 -23.080  0.00  0.00    +0.172 C 
ATOM     29  C   UNL     1      35.309 -17.007 -22.331  0.00  0.00    +0.117 C 
ENDBRANCH  19  25
ENDBRANCH  18  20
ENDBRANCH   6  18
TORSDOF 5
ENDMDL
MODEL 2
REMARK VINA RESULT:     -12.0      2.507      5.543
REMARK  Name = 10157080
REMARK  5 active torsions:
REMARK  status: ('A' for Active; 'I' for Inactive)
REMARK    1  A    between atoms: C_3  and  O_8
REMARK    2  A    between atoms: C_6  and  O_18
REMARK    3  A    between atoms: O_8  and  C_13
REMARK    4  A    between atoms: O_18  and  C_20
REMARK    5  A    between atoms: C_19  and  N_25
REMARK                            x       y       z     vdW  Elec       q    Type
REMARK                         _______ _______ _______ _____ _____    ______ ____
ROOT
ATOM      1  N   UNL     1      33.088 -23.505 -16.525  0.00  0.00    -0.277 NA
ATOM      2  N   UNL     1      35.423 -23.090 -16.955  0.00  0.00    -0.319 NA
ATOM      3  C   UNL     1      33.358 -23.379 -15.215  0.00  0.00    +0.278 C 
ATOM      4  C   UNL     1      34.601 -23.117 -14.693  0.00  0.00    +0.156 C 
ATOM      5  C   UNL     1      35.611 -22.979 -15.624  0.00  0.00    +0.113 C 
ATOM      6  C   UNL     1      34.156 -23.350 -17.331  0.00  0.00    +0.317 C 
ATOM      7  C   UNL     1      37.000 -22.692 -15.164  0.00  0.00    +0.063 C 
ENDROOT
BRANCH   3   8
ATOM      8  O   UNL     1      32.291 -23.528 -14.347  0.00  0.00    -0.429 OA
BRANCH   8  13
ATOM      9  O   UNL     1      28.562 -22.179 -17.092  0.00  0.00    -0.435 OA
ATOM     10  O   UNL     1      27.353 -24.203 -16.593  0.00  0.00    -0.435 OA
ATOM     11  C   UNL     1      29.254 -23.003 -16.259  0.00  0.00    +0.179 C 
ATOM     12  C   UNL     1      28.564 -24.159 -15.974  0.00  0.00    +0.177 C 
ATOM     13  C   UNL     1      31.057 -23.726 -14.891  0.00  0.00    +0.151 C 
ATOM     14  C   UNL     1      30.505 -22.757 -15.732  0.00  0.00    +0.078 C 
ATOM     15  C   UNL     1      29.086 -25.132 -15.147  0.00  0.00    +0.043 C 
ATOM     16  C   UNL     1      30.352 -24.907 -14.600  0.00  0.00    +0.041 C 
ATOM     17  C   UNL     1      27.358 -22.947 -17.300  0.00  0.00    +0.429 C 
ENDBRANCH   8  13
ENDBRANCH   3   8
BRANCH   6  18
ATOM     18  O   UNL     1      33.928 -23.473 -18.682  0.00  0.00    -0.375 OA
BRANCH  18  20
ATOM     19  C   UNL     1      34.508 -20.091 -21.017  0.00  0.00    +0.057 C 
ATOM     20  C   UNL     1      34.121 -22.350 -19.457  0.00  0.00    +0.161 C 
ATOM     21  C   UNL     1      33.216 -20.480 -20.663  0.00  0.00    +0.018 C 
ATOM     22  C   UNL     1      35.604 -20.838 -20.586  0.00  0.00    +0.018 C 
ATOM     23  C   UNL     1      33.021 -21.617 -19.877  0.00  0.00    +0.040 C 
ATOM     24  C   UNL     1      35.410 -21.973 -19.801  0.00  0.00    +0.040 C 
BRANCH  19  25
ATOM     25  N   UNL     1      34.701 -18.965 -21.796  0.00  0.00    -0.246 N 
ATOM     26  N   UNL     1      34.708 -17.639 -23.589  0.00  0.00    -0.224 NA
ATOM     27  C   UNL     1      35.216 -17.762 -21.383  0.00  0.00    +0.092 C 
ATOM     28  C   UNL     1      34.412 -18.836 -23.132  0.00  0.00    +0.172 C 
ATOM     29  C   UNL     1      35.209 -16.966 -22.504  0.00  0.00    +0.117 C 
ENDBRANCH  19  25
ENDBRANCH  18  20
ENDBRANCH   6  18
TORSDOF 5
ENDMDL
MODEL 3
REMARK VINA RESULT:     -11.2      0.916      1.537
REMARK  Name = 10157080
REMARK  5 active torsions:
REMARK  status: ('A' for Active; 'I' for Inactive)
REMARK    1  A    between atoms: C_3  and  O_8
REMARK    2  A    between atoms: C_6  and  O_18
REMARK    3  A    between atoms: O_8  and  C_13
REMARK    4  A    between atoms: O_18  and  C_20
REMARK    5  A    between atoms: C_19  and  N_25
REMARK                            x       y       z     vdW  Elec       q    Type
REMARK                         _______ _______ _______ _____ _____    ______ ____
ROOT
ATOM      1  N   UNL     1      33.874 -23.683 -16.393  0.00  0.00    -0.277 NA
ATOM      2  N   UNL     1      31.949 -23.131 -17.735  0.00  0.00    -0.319 NA
ATOM      3  C   UNL     1      33.090 -23.566 -15.309  0.00  0.00    +0.278 C 
ATOM      4  C   UNL     1      31.756 -23.241 -15.338  0.00  0.00    +0.156 C 
ATOM      5  C   UNL     1      31.230 -23.032 -16.597  0.00  0.00    +0.113 C 
ATOM      6  C   UNL     1      33.245 -23.455 -17.562  0.00  0.00    +0.317 C 
ATOM      7  C   UNL     1      29.789 -22.674 -16.742  0.00  0.00    +0.063 C 
ENDROOT
BRANCH   3   8
ATOM      8  O   UNL     1      33.692 -23.795 -14.084  0.00  0.00    -0.429 OA
BRANCH   8  13
ATOM      9  O   UNL     1      37.548 -26.414 -15.316  0.00  0.00    -0.435 OA
ATOM     10  O   UNL     1      39.037 -24.937 -14.128  0.00  0.00    -0.435 OA
ATOM     11  C   UNL     1      36.888 -25.386 -14.718  0.00  0.00    +0.179 C 
ATOM     12  C   UNL     1      37.738 -24.542 -14.040  0.00  0.00    +0.177 C 
ATOM     13  C   UNL     1      35.029 -24.052 -14.076  0.00  0.00    +0.151 C 
ATOM     14  C   UNL     1      35.526 -25.167 -14.754  0.00  0.00    +0.078 C 
ATOM     15  C   UNL     1      37.274 -23.434 -13.361  0.00  0.00    +0.043 C 
ATOM     16  C   UNL     1      35.898 -23.190 -13.383  0.00  0.00    +0.041 C 
ATOM     17  C   UNL     1      38.910 -26.123 -14.939  0.00  0.00    +0.429 C 
ENDBRANCH   8  13
ENDBRANCH   3   8
BRANCH   6  18
ATOM     18  O   UNL     1      34.009 -23.560 -18.701  0.00  0.00    -0.375 OA
BRANCH  18  20
ATOM     19  C   UNL     1      34.526 -20.119 -20.962  0.00  0.00    +0.057 C 
ATOM     20  C   UNL     1      34.181 -22.418 -19.451  0.00  0.00    +0.161 C 
ATOM     21  C   UNL     1      33.240 -20.568 -20.660  0.00  0.00    +0.018 C 
ATOM     22  C   UNL     1      35.638 -20.826 -20.503  0.00  0.00    +0.018 C 
ATOM     23  C   UNL     1      33.066 -21.725 -19.899  0.00  0.00    +0.040 C 
ATOM     24  C   UNL     1      35.464 -21.982 -19.743  0.00  0.00    +0.040 C 
BRANCH  19  25
ATOM     25  N   UNL     1      34.698 -18.972 -21.716  0.00  0.00    -0.246 N 
ATOM     26  N   UNL     1      35.210 -16.863 -22.226  0.00  0.00    -0.224 NA
ATOM     27  C   UNL     1      34.445 -18.828 -23.057  0.00  0.00    +0.092 C 
ATOM     28  C   UNL     1      35.156 -17.759 -21.265  0.00  0.00    +0.172 C 
ATOM     29  C   UNL     1      34.768 -17.523 -23.344  0.00  0.00    +0.117 C 
ENDBRANCH  19  25
ENDBRANCH  18  20
ENDBRANCH   6  18
TORSDOF 5
ENDMDL
MODEL 4
REMARK VINA RESULT:     -11.1      4.288      8.434
REMARK  Name = 10157080
REMARK  5 active torsions:
REMARK  status: ('A' for Active; 'I' for Inactive)
REMARK    1  A    between atoms: C_3  and  O_8
REMARK    2  A    between atoms: C_6  and  O_18
REMARK    3  A    between atoms: O_8  and  C_13
REMARK    4  A    between atoms: O_18  and  C_20
REMARK    5  A    between atoms: C_19  and  N_25
REMARK                            x       y       z     vdW  Elec       q    Type
REMARK                         _______ _______ _______ _____ _____    ______ ____
ROOT
ATOM      1  N   UNL     1      35.577 -17.628 -22.691  0.00  0.00    -0.277 NA
ATOM      2  N   UNL     1      34.137 -17.334 -24.601  0.00  0.00    -0.319 NA
ATOM      3  C   UNL     1      35.160 -18.903 -22.635  0.00  0.00    +0.278 C 
ATOM      4  C   UNL     1      34.254 -19.470 -23.498  0.00  0.00    +0.156 C 
ATOM      5  C   UNL     1      33.769 -18.626 -24.476  0.00  0.00    +0.113 C 
ATOM      6  C   UNL     1      35.031 -16.907 -23.688  0.00  0.00    +0.317 C 
ATOM      7  C   UNL     1      32.779 -19.141 -25.466  0.00  0.00    +0.063 C 
ENDROOT
BRANCH   3   8
ATOM      8  O   UNL     1      35.697 -19.685 -21.628  0.00  0.00    -0.429 OA
BRANCH   8  13
ATOM      9  O   UNL     1      34.701 -23.043 -18.312  0.00  0.00    -0.435 OA
ATOM     10  O   UNL     1      32.333 -22.618 -18.470  0.00  0.00    -0.435 OA
ATOM     11  C   UNL     1      34.409 -22.067 -19.215  0.00  0.00    +0.179 C 
ATOM     12  C   UNL     1      33.058 -21.824 -19.304  0.00  0.00    +0.177 C 
ATOM     13  C   UNL     1      34.832 -20.400 -20.854  0.00  0.00    +0.151 C 
ATOM     14  C   UNL     1      35.323 -21.370 -19.978  0.00  0.00    +0.078 C 
ATOM     15  C   UNL     1      32.546 -20.872 -20.162  0.00  0.00    +0.043 C 
ATOM     16  C   UNL     1      33.451 -20.152 -20.946  0.00  0.00    +0.041 C 
ATOM     17  C   UNL     1      33.380 -23.386 -17.844  0.00  0.00    +0.429 C 
ENDBRANCH   8  13
ENDBRANCH   3   8
BRANCH   6  18
ATOM     18  O   UNL     1      35.426 -15.593 -23.783  0.00  0.00    -0.375 OA
BRANCH  18  20
ATOM     19  C   UNL     1      32.807 -12.719 -22.332  0.00  0.00    +0.057 C 
ATOM     20  C   UNL     1      34.557 -14.638 -23.302  0.00  0.00    +0.161 C 
ATOM     21  C   UNL     1      33.238 -13.752 -21.501  0.00  0.00    +0.018 C 
ATOM     22  C   UNL     1      33.256 -12.651 -23.651  0.00  0.00    +0.018 C 
ATOM     23  C   UNL     1      34.119 -14.718 -21.988  0.00  0.00    +0.040 C 
ATOM     24  C   UNL     1      34.136 -13.616 -24.139  0.00  0.00    +0.040 C 
BRANCH  19  25
ATOM     25  N   UNL     1      31.933 -11.762 -21.849  0.00  0.00    -0.246 N 
ATOM     26  N   UNL     1      30.814  -9.840 -21.697  0.00  0.00    -0.224 NA
ATOM     27  C   UNL     1      31.129 -11.871 -20.742  0.00  0.00    +0.092 C 
ATOM     28  C   UNL     1      31.704 -10.519 -22.385  0.00  0.00    +0.172 C 
ATOM     29  C   UNL     1      30.452 -10.677 -20.672  0.00  0.00    +0.117 C 
ENDBRANCH  19  25
ENDBRANCH  18  20
ENDBRANCH   6  18
TORSDOF 5
ENDMDL
MODEL 5
REMARK VINA RESULT:     -10.6      6.406     12.692
REMARK  Name = 10157080
REMARK  5 active torsions:
REMARK  status: ('A' for Active; 'I' for Inactive)
REMARK    1  A    between atoms: C_3  and  O_8
REMARK    2  A    between atoms: C_6  and  O_18
REMARK    3  A    between atoms: O_8  and  C_13
REMARK    4  A    between atoms: O_18  and  C_20
REMARK    5  A    between atoms: C_19  and  N_25
REMARK                            x       y       z     vdW  Elec       q    Type
REMARK                         _______ _______ _______ _____ _____    ______ ____
ROOT
ATOM      1  N   UNL     1      34.265 -15.784 -24.953  0.00  0.00    -0.277 NA
ATOM      2  N   UNL     1      34.688 -15.989 -22.589  0.00  0.00    -0.319 NA
ATOM      3  C   UNL     1      33.705 -14.590 -24.699  0.00  0.00    +0.278 C 
ATOM      4  C   UNL     1      33.592 -14.027 -23.451  0.00  0.00    +0.156 C 
ATOM      5  C   UNL     1      34.109 -14.782 -22.418  0.00  0.00    +0.113 C 
ATOM      6  C   UNL     1      34.731 -16.423 -23.863  0.00  0.00    +0.317 C 
ATOM      7  C   UNL     1      34.038 -14.263 -21.021  0.00  0.00    +0.063 C 
ENDROOT
BRANCH   3   8
ATOM      8  O   UNL     1      33.214 -13.894 -25.789  0.00  0.00    -0.429 OA
BRANCH   8  13
ATOM      9  O   UNL     1      34.587  -9.451 -24.513  0.00  0.00    -0.435 OA
ATOM     10  O   UNL     1      35.379  -8.964 -26.736  0.00  0.00    -0.435 OA
ATOM     11  C   UNL     1      34.413 -10.498 -25.364  0.00  0.00    +0.179 C 
ATOM     12  C   UNL     1      34.865 -10.220 -26.634  0.00  0.00    +0.177 C 
ATOM     13  C   UNL     1      33.758 -12.674 -26.057  0.00  0.00    +0.151 C 
ATOM     14  C   UNL     1      33.853 -11.718 -25.044  0.00  0.00    +0.078 C 
ATOM     15  C   UNL     1      34.782 -11.147 -27.653  0.00  0.00    +0.043 C 
ATOM     16  C   UNL     1      34.220 -12.390 -27.355  0.00  0.00    +0.041 C 
ATOM     17  C   UNL     1      35.200  -8.483 -25.389  0.00  0.00    +0.429 C 
ENDBRANCH   8  13
ENDBRANCH   3   8
BRANCH   6  18
ATOM     18  O   UNL     1      35.312 -17.652 -24.074  0.00  0.00    -0.375 OA
BRANCH  18  20
ATOM     19  C   UNL     1      35.452 -20.260 -20.848  0.00  0.00    +0.057 C 
ATOM     20  C   UNL     1      35.358 -18.518 -23.003  0.00  0.00    +0.161 C 
ATOM     21  C   UNL     1      36.582 -19.518 -21.195  0.00  0.00    +0.018 C 
ATOM     22  C   UNL     1      34.276 -20.125 -21.585  0.00  0.00    +0.018 C 
ATOM     23  C   UNL     1      36.535 -18.641 -22.279  0.00  0.00    +0.040 C 
ATOM     24  C   UNL     1      34.228 -19.248 -22.669  0.00  0.00    +0.040 C 
BRANCH  19  25
ATOM     25  N   UNL     1      35.500 -21.129 -19.774  0.00  0.00    -0.246 N 
ATOM     26  N   UNL     1      34.873 -22.720 -18.343  0.00  0.00    -0.224 NA
ATOM     27  C   UNL     1      36.521 -21.254 -18.866  0.00  0.00    +0.092 C 
ATOM     28  C   UNL     1      34.533 -22.035 -19.412  0.00  0.00    +0.172 C 
ATOM     29  C   UNL     1      36.110 -22.238 -17.998  0.00  0.00    +0.117 C 
ENDBRANCH  19  25
ENDBRANCH  18  20
ENDBRANCH   6  18
TORSDOF 5
ENDMDL
MODEL 6
REMARK VINA RESULT:     -10.6      3.816     10.062
REMARK  Name = 10157080
REMARK  5 active torsions:
REMARK  status: ('A' for Active; 'I' for Inactive)
REMARK    1  A    between atoms: C_3  and  O_8
REMARK    2  A    between atoms: C_6  and  O_18
REMARK    3  A    between atoms: O_8  and  C_13
REMARK    4  A    between atoms: O_18  and  C_20
REMARK    5  A    between atoms: C_19  and  N_25
REMARK                            x       y       z     vdW  Elec       q    Type
REMARK                         _______ _______ _______ _____ _____    ______ ____
ROOT
ATOM      1  N   UNL     1      36.475 -19.834 -21.152  0.00  0.00    -0.277 NA
ATOM      2  N   UNL     1      34.635 -20.898 -20.015  0.00  0.00    -0.319 NA
ATOM      3  C   UNL     1      35.572 -19.228 -21.941  0.00  0.00    +0.278 C 
ATOM      4  C   UNL     1      34.212 -19.393 -21.845  0.00  0.00    +0.156 C 
ATOM      5  C   UNL     1      33.794 -20.252 -20.848  0.00  0.00    +0.113 C 
ATOM      6  C   UNL     1      35.943 -20.647 -20.220  0.00  0.00    +0.317 C 
ATOM      7  C   UNL     1      32.336 -20.501 -20.657  0.00  0.00    +0.063 C 
ENDROOT
BRANCH   3   8
ATOM      8  O   UNL     1      36.072 -18.380 -22.913  0.00  0.00    -0.429 OA
BRANCH   8  13
ATOM      9  O   UNL     1      33.703 -15.451 -25.923  0.00  0.00    -0.435 OA
ATOM     10  O   UNL     1      33.219 -13.885 -24.155  0.00  0.00    -0.435 OA
ATOM     11  C   UNL     1      34.209 -15.851 -24.725  0.00  0.00    +0.179 C 
ATOM     12  C   UNL     1      33.932 -14.958 -23.716  0.00  0.00    +0.177 C 
ATOM     13  C   UNL     1      35.363 -17.250 -23.191  0.00  0.00    +0.151 C 
ATOM     14  C   UNL     1      34.923 -17.009 -24.494  0.00  0.00    +0.078 C 
ATOM     15  C   UNL     1      34.355 -15.172 -22.420  0.00  0.00    +0.043 C 
ATOM     16  C   UNL     1      35.080 -16.337 -22.159  0.00  0.00    +0.041 C 
ATOM     17  C   UNL     1      33.076 -14.205 -25.554  0.00  0.00    +0.429 C 
ENDBRANCH   8  13
ENDBRANCH   3   8
BRANCH   6  18
ATOM     18  O   UNL     1      36.830 -21.292 -19.390  0.00  0.00    -0.375 OA
BRANCH  18  20
ATOM     19  C   UNL     1      35.304 -22.945 -15.902  0.00  0.00    +0.057 C 
ATOM     20  C   UNL     1      36.323 -21.841 -18.232  0.00  0.00    +0.161 C 
ATOM     21  C   UNL     1      36.547 -22.313 -15.888  0.00  0.00    +0.018 C 
ATOM     22  C   UNL     1      34.573 -23.021 -17.088  0.00  0.00    +0.018 C 
ATOM     23  C   UNL     1      37.060 -21.757 -17.060  0.00  0.00    +0.040 C 
ATOM     24  C   UNL     1      35.085 -22.465 -18.260  0.00  0.00    +0.040 C 
BRANCH  19  25
ATOM     25  N   UNL     1      34.795 -23.497 -14.740  0.00  0.00    -0.246 N 
ATOM     26  N   UNL     1      33.331 -24.394 -13.319  0.00  0.00    -0.224 NA
ATOM     27  C   UNL     1      35.485 -23.736 -13.578  0.00  0.00    +0.092 C 
ATOM     28  C   UNL     1      33.504 -23.911 -14.529  0.00  0.00    +0.172 C 
ATOM     29  C   UNL     1      34.561 -24.287 -12.721  0.00  0.00    +0.117 C 
ENDBRANCH  19  25
ENDBRANCH  18  20
ENDBRANCH   6  18
TORSDOF 5
ENDMDL
MODEL 7
REMARK VINA RESULT:     -10.3      6.918     13.068
REMARK  Name = 10157080
REMARK  5 active torsions:
REMARK  status: ('A' for Active; 'I' for Inactive)
REMARK    1  A    between atoms: C_3  and  O_8
REMARK    2  A    between atoms: C_6  and  O_18
REMARK    3  A    between atoms: O_8  and  C_13
REMARK    4  A    between atoms: O_18  and  C_20
REMARK    5  A    between atoms: C_19  and  N_25
REMARK                            x       y       z     vdW  Elec       q    Type
REMARK                         _______ _______ _______ _____ _____    ______ ____
ROOT
ATOM      1  N   UNL     1      34.386 -14.469 -24.917  0.00  0.00    -0.277 NA
ATOM      2  N   UNL     1      34.044 -15.206 -22.647  0.00  0.00    -0.319 NA
ATOM      3  C   UNL     1      33.695 -13.360 -24.608  0.00  0.00    +0.278 C 
ATOM      4  C   UNL     1      33.153 -13.092 -23.375  0.00  0.00    +0.156 C 
ATOM      5  C   UNL     1      33.362 -14.064 -22.419  0.00  0.00    +0.113 C 
ATOM      6  C   UNL     1      34.521 -15.341 -23.900  0.00  0.00    +0.317 C 
ATOM      7  C   UNL     1      32.815 -13.873 -21.044  0.00  0.00    +0.063 C 
ENDROOT
BRANCH   3   8
ATOM      8  O   UNL     1      33.533 -12.432 -25.622  0.00  0.00    -0.429 OA
BRANCH   8  13
ATOM      9  O   UNL     1      33.736  -8.279 -23.180  0.00  0.00    -0.435 OA
ATOM     10  O   UNL     1      35.401  -7.383 -24.674  0.00  0.00    -0.435 OA
ATOM     11  C   UNL     1      34.071  -9.155 -24.166  0.00  0.00    +0.179 C 
ATOM     12  C   UNL     1      35.022  -8.643 -25.019  0.00  0.00    +0.177 C 
ATOM     13  C   UNL     1      34.018 -11.176 -25.413  0.00  0.00    +0.151 C 
ATOM     14  C   UNL     1      33.549 -10.420 -24.336  0.00  0.00    +0.078 C 
ATOM     15  C   UNL     1      35.502  -9.369 -26.090  0.00  0.00    +0.043 C 
ATOM     16  C   UNL     1      34.990 -10.653 -26.285  0.00  0.00    +0.041 C 
ATOM     17  C   UNL     1      34.584  -7.159 -23.508  0.00  0.00    +0.429 C 
ENDBRANCH   8  13
ENDBRANCH   3   8
BRANCH   6  18
ATOM     18  O   UNL     1      35.219 -16.496 -24.169  0.00  0.00    -0.375 OA
BRANCH  18  20
ATOM     19  C   UNL     1      34.771 -19.646 -21.505  0.00  0.00    +0.057 C 
ATOM     20  C   UNL     1      35.071 -17.542 -23.285  0.00  0.00    +0.161 C 
ATOM     21  C   UNL     1      34.024 -19.618 -22.683  0.00  0.00    +0.018 C 
ATOM     22  C   UNL     1      35.668 -18.616 -21.223  0.00  0.00    +0.018 C 
ATOM     23  C   UNL     1      34.175 -18.559 -23.579  0.00  0.00    +0.040 C 
ATOM     24  C   UNL     1      35.819 -17.558 -22.118  0.00  0.00    +0.040 C 
BRANCH  19  25
ATOM     25  N   UNL     1      34.620 -20.696 -20.617  0.00  0.00    -0.246 N 
ATOM     26  N   UNL     1      35.164 -22.364 -19.241  0.00  0.00    -0.224 NA
ATOM     27  C   UNL     1      33.438 -21.199 -20.136  0.00  0.00    +0.092 C 
ATOM     28  C   UNL     1      35.628 -21.434 -20.046  0.00  0.00    +0.172 C 
ATOM     29  C   UNL     1      33.801 -22.223 -19.294  0.00  0.00    +0.117 C 
ENDBRANCH  19  25
ENDBRANCH  18  20
ENDBRANCH   6  18
TORSDOF 5
ENDMDL
MODEL 8
REMARK VINA RESULT:     -10.2      9.755     16.098
REMARK  Name = 10157080
REMARK  5 active torsions:
REMARK  status: ('A' for Active; 'I' for Inactive)
REMARK    1  A    between atoms: C_3  and  O_8
REMARK    2  A    between atoms: C_6  and  O_18
REMARK    3  A    between atoms: O_8  and  C_13
REMARK    4  A    between atoms: O_18  and  C_20
REMARK    5  A    between atoms: C_19  and  N_25
REMARK                            x       y       z     vdW  Elec       q    Type
REMARK                         _______ _______ _______ _____ _____    ______ ____
ROOT
ATOM      1  N   UNL     1      34.330 -10.057 -23.931  0.00  0.00    -0.277 NA
ATOM      2  N   UNL     1      34.235 -11.572 -25.803  0.00  0.00    -0.319 NA
ATOM      3  C   UNL     1      35.106  -9.257 -24.681  0.00  0.00    +0.278 C 
ATOM      4  C   UNL     1      35.492  -9.526 -25.971  0.00  0.00    +0.156 C 
ATOM      5  C   UNL     1      35.020 -10.715 -26.489  0.00  0.00    +0.113 C 
ATOM      6  C   UNL     1      33.934 -11.186 -24.548  0.00  0.00    +0.317 C 
ATOM      7  C   UNL     1      35.379 -11.103 -27.884  0.00  0.00    +0.063 C 
ENDROOT
BRANCH   3   8
ATOM      8  O   UNL     1      35.536  -8.082 -24.089  0.00  0.00    -0.429 OA
BRANCH   8  13
ATOM      9  O   UNL     1      33.899  -4.037 -26.141  0.00  0.00    -0.435 OA
ATOM     10  O   UNL     1      32.246  -3.729 -24.414  0.00  0.00    -0.435 OA
ATOM     11  C   UNL     1      33.941  -5.022 -25.203  0.00  0.00    +0.179 C 
ATOM     12  C   UNL     1      32.997  -4.846 -24.217  0.00  0.00    +0.177 C 
ATOM     13  C   UNL     1      34.701  -7.007 -24.141  0.00  0.00    +0.151 C 
ATOM     14  C   UNL     1      34.809  -6.094 -25.193  0.00  0.00    +0.078 C 
ATOM     15  C   UNL     1      32.869  -5.733 -23.167  0.00  0.00    +0.043 C 
ATOM     16  C   UNL     1      33.736  -6.827 -23.134  0.00  0.00    +0.041 C 
ATOM     17  C   UNL     1      32.822  -3.222 -25.635  0.00  0.00    +0.429 C 
ENDBRANCH   8  13
ENDBRANCH   3   8
BRANCH   6  18
ATOM     18  O   UNL     1      33.138 -12.038 -23.818  0.00  0.00    -0.375 OA
BRANCH  18  20
ATOM     19  C   UNL     1      34.200 -16.050 -23.776  0.00  0.00    +0.057 C 
ATOM     20  C   UNL     1      33.490 -13.370 -23.804  0.00  0.00    +0.161 C 
ATOM     21  C   UNL     1      34.567 -15.221 -22.716  0.00  0.00    +0.018 C 
ATOM     22  C   UNL     1      33.477 -15.531 -24.850  0.00  0.00    +0.018 C 
ATOM     23  C   UNL     1      34.209 -13.872 -22.729  0.00  0.00    +0.040 C 
ATOM     24  C   UNL     1      33.119 -14.184 -24.864  0.00  0.00    +0.040 C 
BRANCH  19  25
ATOM     25  N   UNL     1      34.555 -17.387 -23.762  0.00  0.00    -0.246 N 
ATOM     26  N   UNL     1      34.657 -19.528 -24.373  0.00  0.00    -0.224 NA
ATOM     27  C   UNL     1      35.383 -18.005 -22.860  0.00  0.00    +0.092 C 
ATOM     28  C   UNL     1      34.146 -18.350 -24.651  0.00  0.00    +0.172 C 
ATOM     29  C   UNL     1      35.429 -19.320 -23.258  0.00  0.00    +0.117 C 
ENDBRANCH  19  25
ENDBRANCH  18  20
ENDBRANCH   6  18
TORSDOF 5
ENDMDL
MODEL 9
REMARK VINA RESULT:     -10.2      4.366     10.679
REMARK  Name = 10157080
REMARK  5 active torsions:
REMARK  status: ('A' for Active; 'I' for Inactive)
REMARK    1  A    between atoms: C_3  and  O_8
REMARK    2  A    between atoms: C_6  and  O_18
REMARK    3  A    between atoms: O_8  and  C_13
REMARK    4  A    between atoms: O_18  and  C_20
REMARK    5  A    between atoms: C_19  and  N_25
REMARK                            x       y       z     vdW  Elec       q    Type
REMARK                         _______ _______ _______ _____ _____    ______ ____
ROOT
ATOM      1  N   UNL     1      35.739 -17.588 -22.734  0.00  0.00    -0.277 NA
ATOM      2  N   UNL     1      34.450 -19.435 -23.594  0.00  0.00    -0.319 NA
ATOM      3  C   UNL     1      35.086 -16.794 -23.599  0.00  0.00    +0.278 C 
ATOM      4  C   UNL     1      34.123 -17.220 -24.480  0.00  0.00    +0.156 C 
ATOM      5  C   UNL     1      33.841 -18.571 -24.433  0.00  0.00    +0.113 C 
ATOM      6  C   UNL     1      35.375 -18.884 -22.785  0.00  0.00    +0.317 C 
ATOM      7  C   UNL     1      32.810 -19.139 -25.349  0.00  0.00    +0.063 C 
ENDROOT
BRANCH   3   8
ATOM      8  O   UNL     1      35.424 -15.453 -23.581  0.00  0.00    -0.429 OA
BRANCH   8  13
ATOM      9  O   UNL     1      32.220 -13.598 -20.492  0.00  0.00    -0.435 OA
ATOM     10  O   UNL     1      31.521 -11.930 -22.085  0.00  0.00    -0.435 OA
ATOM     11  C   UNL     1      32.894 -13.694 -21.670  0.00  0.00    +0.179 C 
ATOM     12  C   UNL     1      32.495 -12.741 -22.579  0.00  0.00    +0.177 C 
ATOM     13  C   UNL     1      34.453 -14.561 -23.239  0.00  0.00    +0.151 C 
ATOM     14  C   UNL     1      33.873 -14.619 -21.970  0.00  0.00    +0.078 C 
ATOM     15  C   UNL     1      33.052 -12.662 -23.840  0.00  0.00    +0.043 C 
ATOM     16  C   UNL     1      34.046 -13.587 -24.169  0.00  0.00    +0.041 C 
ATOM     17  C   UNL     1      31.352 -12.478 -20.762  0.00  0.00    +0.429 C 
ENDBRANCH   8  13
ENDBRANCH   3   8
BRANCH   6  18
ATOM     18  O   UNL     1      36.019 -19.736 -21.918  0.00  0.00    -0.375 OA
BRANCH  18  20
ATOM     19  C   UNL     1      33.669 -21.793 -19.185  0.00  0.00    +0.057 C 
ATOM     20  C   UNL     1      35.239 -20.419 -21.011  0.00  0.00    +0.161 C 
ATOM     21  C   UNL     1      35.046 -22.014 -19.226  0.00  0.00    +0.018 C 
ATOM     22  C   UNL     1      33.082 -20.881 -20.062  0.00  0.00    +0.018 C 
ATOM     23  C   UNL     1      35.836 -21.322 -20.144  0.00  0.00    +0.040 C 
ATOM     24  C   UNL     1      33.872 -20.189 -20.980  0.00  0.00    +0.040 C 
BRANCH  19  25
ATOM     25  N   UNL     1      32.886 -22.479 -18.275  0.00  0.00    -0.246 N 
ATOM     26  N   UNL     1      31.083 -23.105 -17.123  0.00  0.00    -0.224 NA
ATOM     27  C   UNL     1      33.300 -23.470 -17.421  0.00  0.00    +0.092 C 
ATOM     28  C   UNL     1      31.543 -22.299 -18.053  0.00  0.00    +0.172 C 
ATOM     29  C   UNL     1      32.173 -23.837 -16.724  0.00  0.00    +0.117 C 
ENDBRANCH  19  25
ENDBRANCH  18  20
ENDBRANCH   6  18
TORSDOF 5
ENDMDL
