MODEL 1
REMARK VINA RESULT:     -12.3      0.000      0.000
REMARK  Name = 25243853
REMARK  6 active torsions:
REMARK  status: ('A' for Active; 'I' for Inactive)
REMARK    1  A    between atoms: N_1  and  C_6
REMARK    2  A    between atoms: N_1  and  C_21
REMARK    3  A    between atoms: C_3  and  C_16
REMARK    4  A    between atoms: C_11  and  C_18
REMARK    5  A    between atoms: C_18  and  O_19
REMARK    6  A    between atoms: C_21  and  C_28
REMARK                            x       y       z     vdW  Elec       q    Type
REMARK                         _______ _______ _______ _____ _____    ______ ____
ROOT
ATOM      1  N   UNL     1      34.971 -19.702 -21.963  0.00  0.00    -0.327 N 
ATOM      2  H   UNL     1      34.894 -20.058 -22.878  0.00  0.00    +0.147 HD
ENDROOT
BRANCH   1   6
ATOM      3  C   UNL     1      33.983 -22.209 -18.741  0.00  0.00    +0.054 C 
ATOM      4  C   UNL     1      32.975 -21.556 -19.452  0.00  0.00    +0.006 C 
ATOM      5  C   UNL     1      35.318 -22.029 -19.102  0.00  0.00    +0.006 C 
ATOM      6  C   UNL     1      34.639 -20.545 -20.881  0.00  0.00    +0.045 C 
ATOM      7  C   UNL     1      33.304 -20.724 -20.522  0.00  0.00    +0.014 C 
ATOM      8  C   UNL     1      35.647 -21.197 -20.171  0.00  0.00    +0.014 C 
BRANCH   3  16
ATOM      9  O   UNL     1      32.465 -23.450 -17.551  0.00  0.00    -0.270 OA
ATOM     10  N   UNL     1      34.650 -23.435 -16.718  0.00  0.00    -0.276 N 
ATOM     11  C   UNL     1      36.119 -23.048 -14.243  0.00  0.00    +0.102 C 
ATOM     12  C   UNL     1      34.682 -23.580 -14.262  0.00  0.00    +0.033 C 
ATOM     13  C   UNL     1      36.462 -22.269 -15.516  0.00  0.00    +0.033 C 
ATOM     14  C   UNL     1      34.339 -24.285 -15.573  0.00  0.00    +0.094 C 
ATOM     15  C   UNL     1      36.049 -22.997 -16.796  0.00  0.00    +0.094 C 
ATOM     16  C   UNL     1      33.637 -23.085 -17.615  0.00  0.00    +0.249 C 
BRANCH  11  18
ATOM     17  O   UNL     1      38.220 -24.203 -14.481  0.00  0.00    -0.250 OA
ATOM     18  C   UNL     1      37.088 -24.173 -14.018  0.00  0.00    +0.317 C 
BRANCH  18  19
ATOM     19  O   UNL     1      36.507 -25.126 -13.235  0.00  0.00    -0.444 OA
ATOM     20  C   UNL     1      37.073 -26.436 -13.340  0.00  0.00    +0.256 C 
ENDBRANCH  18  19
ENDBRANCH  11  18
ENDBRANCH   3  16
ENDBRANCH   1   6
BRANCH   1  21
ATOM     21  C   UNL     1      35.417 -18.355 -21.789  0.00  0.00    +0.145 C 
BRANCH  21  28
ATOM     22  N   UNL     1      34.809 -16.173 -22.695  0.00  0.00    -0.392 NA
ATOM     23  N   UNL     1      34.204 -17.267 -25.165  0.00  0.00    -0.200 NA
ATOM     24  N   UNL     1      33.640 -15.171 -25.970  0.00  0.00    -0.271 NA
ATOM     25  N   UNL     1      33.784 -13.230 -24.569  0.00  0.00    -0.310 NA
ATOM     26  N   UNL     1      34.511 -13.457 -22.332  0.00  0.00    -0.329 N 
ATOM     27  N   UNL     1      33.066 -13.048 -26.790  0.00  0.00    -0.283 N 
ATOM     28  C   UNL     1      34.936 -17.490 -22.921  0.00  0.00    +0.133 C 
ATOM     29  C   UNL     1      34.638 -18.030 -24.143  0.00  0.00    +0.193 C 
ATOM     30  C   UNL     1      34.376 -15.412 -23.718  0.00  0.00    +0.248 C 
ATOM     31  C   UNL     1      34.068 -15.950 -24.970  0.00  0.00    +0.131 C 
ATOM     32  C   UNL     1      34.212 -14.046 -23.588  0.00  0.00    +0.231 C 
ATOM     33  C   UNL     1      33.519 -13.853 -25.723  0.00  0.00    +0.207 C 
ATOM     34  H   UNL     1      34.404 -12.487 -22.206  0.00  0.00    +0.145 HD
ATOM     35  H   UNL     1      34.825 -14.018 -21.587  0.00  0.00    +0.145 HD
ATOM     36  H   UNL     1      32.856 -13.457 -27.661  0.00  0.00    +0.156 HD
ATOM     37  H   UNL     1      32.959 -12.077 -26.664  0.00  0.00    +0.156 HD
ENDBRANCH  21  28
ENDBRANCH   1  21
TORSDOF 6
ENDMDL
MODEL 2
REMARK VINA RESULT:     -11.4      5.890     12.423
REMARK  Name = 25243853
REMARK  6 active torsions:
REMARK  status: ('A' for Active; 'I' for Inactive)
REMARK    1  A    between atoms: N_1  and  C_6
REMARK    2  A    between atoms: N_1  and  C_21
REMARK    3  A    between atoms: C_3  and  C_16
REMARK    4  A    between atoms: C_11  and  C_18
REMARK    5  A    between atoms: C_18  and  O_19
REMARK    6  A    between atoms: C_21  and  C_28
REMARK                            x       y       z     vdW  Elec       q    Type
REMARK                         _______ _______ _______ _____ _____    ______ ____
ROOT
ATOM      1  N   UNL     1      34.860 -16.794 -24.440  0.00  0.00    -0.327 N 
ATOM      2  H   UNL     1      35.739 -16.770 -24.881  0.00  0.00    +0.147 HD
ENDROOT
BRANCH   1   6
ATOM      3  C   UNL     1      33.091 -13.161 -23.291  0.00  0.00    +0.054 C 
ATOM      4  C   UNL     1      32.859 -13.678 -24.566  0.00  0.00    +0.006 C 
ATOM      5  C   UNL     1      33.910 -13.852 -22.398  0.00  0.00    +0.006 C 
ATOM      6  C   UNL     1      34.265 -15.574 -24.054  0.00  0.00    +0.045 C 
ATOM      7  C   UNL     1      33.445 -14.885 -24.947  0.00  0.00    +0.014 C 
ATOM      8  C   UNL     1      34.498 -15.058 -22.779  0.00  0.00    +0.014 C 
BRANCH   3  16
ATOM      9  O   UNL     1      31.508 -11.974 -22.132  0.00  0.00    -0.270 OA
ATOM     10  N   UNL     1      33.022 -10.706 -23.387  0.00  0.00    -0.276 N 
ATOM     11  C   UNL     1      33.094  -8.533 -25.311  0.00  0.00    +0.102 C 
ATOM     12  C   UNL     1      31.974  -8.665 -24.274  0.00  0.00    +0.033 C 
ATOM     13  C   UNL     1      33.797  -9.868 -25.574  0.00  0.00    +0.033 C 
ATOM     14  C   UNL     1      32.420  -9.425 -23.027  0.00  0.00    +0.094 C 
ATOM     15  C   UNL     1      34.174 -10.611 -24.291  0.00  0.00    +0.094 C 
ATOM     16  C   UNL     1      32.474 -11.891 -22.890  0.00  0.00    +0.249 C 
BRANCH  11  18
ATOM     17  O   UNL     1      35.287  -7.644 -24.854  0.00  0.00    -0.250 OA
ATOM     18  C   UNL     1      34.075  -7.478 -24.885  0.00  0.00    +0.317 C 
BRANCH  18  19
ATOM     19  O   UNL     1      33.404  -6.340 -24.550  0.00  0.00    -0.444 OA
ATOM     20  C   UNL     1      33.914  -5.134 -25.127  0.00  0.00    +0.256 C 
ENDBRANCH  18  19
ENDBRANCH  11  18
ENDBRANCH   3  16
ENDBRANCH   1   6
BRANCH   1  21
ATOM     21  C   UNL     1      34.240 -18.064 -24.219  0.00  0.00    +0.145 C 
BRANCH  21  28
ATOM     22  N   UNL     1      34.079 -19.522 -22.271  0.00  0.00    -0.392 NA
ATOM     23  N   UNL     1      36.777 -19.234 -21.721  0.00  0.00    -0.200 NA
ATOM     24  N   UNL     1      36.565 -20.626 -19.883  0.00  0.00    -0.271 NA
ATOM     25  N   UNL     1      34.447 -21.588 -19.301  0.00  0.00    -0.310 NA
ATOM     26  N   UNL     1      32.546 -21.110 -20.620  0.00  0.00    -0.329 N 
ATOM     27  N   UNL     1      36.354 -22.035 -18.018  0.00  0.00    -0.283 N 
ATOM     28  C   UNL     1      34.868 -18.759 -23.043  0.00  0.00    +0.133 C 
ATOM     29  C   UNL     1      36.202 -18.618 -22.771  0.00  0.00    +0.193 C 
ATOM     30  C   UNL     1      34.656 -20.138 -21.221  0.00  0.00    +0.248 C 
ATOM     31  C   UNL     1      36.016 -20.002 -20.932  0.00  0.00    +0.131 C 
ATOM     32  C   UNL     1      33.932 -20.945 -20.365  0.00  0.00    +0.231 C 
ATOM     33  C   UNL     1      35.757 -21.386 -19.120  0.00  0.00    +0.207 C 
ATOM     34  H   UNL     1      32.001 -21.678 -20.029  0.00  0.00    +0.145 HD
ATOM     35  H   UNL     1      32.129 -20.655 -21.387  0.00  0.00    +0.145 HD
ATOM     36  H   UNL     1      37.315 -21.919 -17.840  0.00  0.00    +0.156 HD
ATOM     37  H   UNL     1      35.809 -22.604 -17.427  0.00  0.00    +0.156 HD
ENDBRANCH  21  28
ENDBRANCH   1  21
TORSDOF 6
ENDMDL
MODEL 3
REMARK VINA RESULT:     -11.4      4.412     11.208
REMARK  Name = 25243853
REMARK  6 active torsions:
REMARK  status: ('A' for Active; 'I' for Inactive)
REMARK    1  A    between atoms: N_1  and  C_6
REMARK    2  A    between atoms: N_1  and  C_21
REMARK    3  A    between atoms: C_3  and  C_16
REMARK    4  A    between atoms: C_11  and  C_18
REMARK    5  A    between atoms: C_18  and  O_19
REMARK    6  A    between atoms: C_21  and  C_28
REMARK                            x       y       z     vdW  Elec       q    Type
REMARK                         _______ _______ _______ _____ _____    ______ ____
ROOT
ATOM      1  N   UNL     1      35.909 -20.434 -20.238  0.00  0.00    -0.327 N 
ATOM      2  H   UNL     1      36.370 -20.066 -19.450  0.00  0.00    +0.147 HD
ENDROOT
BRANCH   1   6
ATOM      3  C   UNL     1      34.769 -17.801 -23.305  0.00  0.00    +0.054 C 
ATOM      4  C   UNL     1      34.122 -19.028 -23.164  0.00  0.00    +0.006 C 
ATOM      5  C   UNL     1      35.794 -17.448 -22.427  0.00  0.00    +0.006 C 
ATOM      6  C   UNL     1      35.525 -19.549 -21.268  0.00  0.00    +0.045 C 
ATOM      7  C   UNL     1      34.500 -19.902 -22.145  0.00  0.00    +0.014 C 
ATOM      8  C   UNL     1      36.173 -18.322 -21.409  0.00  0.00    +0.014 C 
BRANCH   3  16
ATOM      9  O   UNL     1      34.536 -17.284 -25.527  0.00  0.00    -0.270 OA
ATOM     10  N   UNL     1      33.843 -15.638 -24.016  0.00  0.00    -0.276 N 
ATOM     11  C   UNL     1      34.123 -12.795 -23.492  0.00  0.00    +0.102 C 
ATOM     12  C   UNL     1      34.227 -13.376 -24.906  0.00  0.00    +0.033 C 
ATOM     13  C   UNL     1      34.404 -13.847 -22.415  0.00  0.00    +0.033 C 
ATOM     14  C   UNL     1      33.458 -14.687 -25.056  0.00  0.00    +0.094 C 
ATOM     15  C   UNL     1      33.649 -15.158 -22.643  0.00  0.00    +0.094 C 
ATOM     16  C   UNL     1      34.372 -16.880 -24.377  0.00  0.00    +0.249 C 
BRANCH  11  18
ATOM     17  O   UNL     1      31.783 -12.764 -22.918  0.00  0.00    -0.250 OA
ATOM     18  C   UNL     1      32.779 -12.158 -23.289  0.00  0.00    +0.317 C 
BRANCH  18  19
ATOM     19  O   UNL     1      32.856 -10.828 -23.580  0.00  0.00    -0.444 OA
ATOM     20  C   UNL     1      32.061  -9.971 -22.755  0.00  0.00    +0.256 C 
ENDBRANCH  18  19
ENDBRANCH  11  18
ENDBRANCH   3  16
ENDBRANCH   1   6
BRANCH   1  21
ATOM     21  C   UNL     1      35.658 -21.841 -20.289  0.00  0.00    +0.145 C 
BRANCH  21  28
ATOM     22  N   UNL     1      34.987 -22.749 -18.127  0.00  0.00    -0.392 NA
ATOM     23  N   UNL     1      32.305 -22.382 -18.706  0.00  0.00    -0.200 NA
ATOM     24  N   UNL     1      31.726 -23.252 -16.640  0.00  0.00    -0.271 NA
ATOM     25  N   UNL     1      33.407 -23.994 -15.098  0.00  0.00    -0.310 NA
ATOM     26  N   UNL     1      35.688 -23.837 -15.694  0.00  0.00    -0.329 N 
ATOM     27  N   UNL     1      31.136 -24.135 -14.546  0.00  0.00    -0.283 N 
ATOM     28  C   UNL     1      34.594 -22.224 -19.298  0.00  0.00    +0.133 C 
ATOM     29  C   UNL     1      33.268 -22.042 -19.583  0.00  0.00    +0.193 C 
ATOM     30  C   UNL     1      34.022 -23.087 -17.250  0.00  0.00    +0.248 C 
ATOM     31  C   UNL     1      32.665 -22.908 -17.528  0.00  0.00    +0.131 C 
ATOM     32  C   UNL     1      34.321 -23.634 -16.018  0.00  0.00    +0.231 C 
ATOM     33  C   UNL     1      32.140 -23.777 -15.471  0.00  0.00    +0.207 C 
ATOM     34  H   UNL     1      35.935 -24.225 -14.824  0.00  0.00    +0.145 HD
ATOM     35  H   UNL     1      36.389 -23.590 -16.339  0.00  0.00    +0.145 HD
ATOM     36  H   UNL     1      30.188 -23.997 -14.772  0.00  0.00    +0.156 HD
ATOM     37  H   UNL     1      31.383 -24.523 -13.676  0.00  0.00    +0.156 HD
ENDBRANCH  21  28
ENDBRANCH   1  21
TORSDOF 6
ENDMDL
MODEL 4
REMARK VINA RESULT:     -11.0      1.449      2.714
REMARK  Name = 25243853
REMARK  6 active torsions:
REMARK  status: ('A' for Active; 'I' for Inactive)
REMARK    1  A    between atoms: N_1  and  C_6
REMARK    2  A    between atoms: N_1  and  C_21
REMARK    3  A    between atoms: C_3  and  C_16
REMARK    4  A    between atoms: C_11  and  C_18
REMARK    5  A    between atoms: C_18  and  O_19
REMARK    6  A    between atoms: C_21  and  C_28
REMARK                            x       y       z     vdW  Elec       q    Type
REMARK                         _______ _______ _______ _____ _____    ______ ____
ROOT
ATOM      1  N   UNL     1      34.559 -21.156 -20.613  0.00  0.00    -0.327 N 
ATOM      2  H   UNL     1      33.842 -21.206 -21.286  0.00  0.00    +0.147 HD
ENDROOT
BRANCH   1   6
ATOM      3  C   UNL     1      34.024 -23.160 -16.960  0.00  0.00    +0.054 C 
ATOM      4  C   UNL     1      32.944 -22.989 -17.826  0.00  0.00    +0.006 C 
ATOM      5  C   UNL     1      35.281 -22.666 -17.308  0.00  0.00    +0.006 C 
ATOM      6  C   UNL     1      34.379 -21.830 -19.386  0.00  0.00    +0.045 C 
ATOM      7  C   UNL     1      33.122 -22.324 -19.040  0.00  0.00    +0.014 C 
ATOM      8  C   UNL     1      35.459 -22.001 -18.520  0.00  0.00    +0.014 C 
BRANCH   3  16
ATOM      9  O   UNL     1      32.675 -24.098 -15.360  0.00  0.00    -0.270 OA
ATOM     10  N   UNL     1      34.976 -24.200 -14.947  0.00  0.00    -0.276 N 
ATOM     11  C   UNL     1      36.918 -23.673 -12.853  0.00  0.00    +0.102 C 
ATOM     12  C   UNL     1      35.469 -24.060 -12.540  0.00  0.00    +0.033 C 
ATOM     13  C   UNL     1      37.066 -23.086 -14.259  0.00  0.00    +0.033 C 
ATOM     14  C   UNL     1      34.828 -24.876 -13.661  0.00  0.00    +0.094 C 
ATOM     15  C   UNL     1      36.362 -23.915 -15.335  0.00  0.00    +0.094 C 
ATOM     16  C   UNL     1      33.838 -23.860 -15.683  0.00  0.00    +0.249 C 
BRANCH  11  18
ATOM     17  O   UNL     1      37.508 -25.869 -12.053  0.00  0.00    -0.250 OA
ATOM     18  C   UNL     1      37.825 -24.855 -12.660  0.00  0.00    +0.317 C 
BRANCH  18  19
ATOM     19  O   UNL     1      39.025 -24.610 -13.259  0.00  0.00    -0.444 OA
ATOM     20  C   UNL     1      39.538 -25.676 -14.064  0.00  0.00    +0.256 C 
ENDBRANCH  18  19
ENDBRANCH  11  18
ENDBRANCH   3  16
ENDBRANCH   1   6
BRANCH   1  21
ATOM     21  C   UNL     1      35.736 -20.405 -20.921  0.00  0.00    +0.145 C 
BRANCH  21  28
ATOM     22  N   UNL     1      34.783 -19.289 -22.869  0.00  0.00    -0.392 NA
ATOM     23  N   UNL     1      35.348 -16.788 -21.824  0.00  0.00    -0.200 NA
ATOM     24  N   UNL     1      34.431 -15.783 -23.697  0.00  0.00    -0.271 NA
ATOM     25  N   UNL     1      33.518 -17.099 -25.482  0.00  0.00    -0.310 NA
ATOM     26  N   UNL     1      33.555 -19.456 -25.331  0.00  0.00    -0.329 N 
ATOM     27  N   UNL     1      33.503 -14.760 -25.595  0.00  0.00    -0.283 N 
ATOM     28  C   UNL     1      35.380 -19.154 -21.675  0.00  0.00    +0.133 C 
ATOM     29  C   UNL     1      35.659 -17.917 -21.159  0.00  0.00    +0.193 C 
ATOM     30  C   UNL     1      34.472 -18.158 -23.533  0.00  0.00    +0.248 C 
ATOM     31  C   UNL     1      34.751 -16.890 -23.017  0.00  0.00    +0.131 C 
ATOM     32  C   UNL     1      33.855 -18.188 -24.768  0.00  0.00    +0.231 C 
ATOM     33  C   UNL     1      33.832 -15.939 -24.893  0.00  0.00    +0.207 C 
ATOM     34  H   UNL     1      33.116 -19.513 -26.210  0.00  0.00    +0.145 HD
ATOM     35  H   UNL     1      33.787 -20.279 -24.843  0.00  0.00    +0.145 HD
ATOM     36  H   UNL     1      33.713 -13.881 -25.205  0.00  0.00    +0.156 HD
ATOM     37  H   UNL     1      33.063 -14.816 -26.474  0.00  0.00    +0.156 HD
ENDBRANCH  21  28
ENDBRANCH   1  21
TORSDOF 6
ENDMDL
MODEL 5
REMARK VINA RESULT:     -11.0      4.306     11.473
REMARK  Name = 25243853
REMARK  6 active torsions:
REMARK  status: ('A' for Active; 'I' for Inactive)
REMARK    1  A    between atoms: N_1  and  C_6
REMARK    2  A    between atoms: N_1  and  C_21
REMARK    3  A    between atoms: C_3  and  C_16
REMARK    4  A    between atoms: C_11  and  C_18
REMARK    5  A    between atoms: C_18  and  O_19
REMARK    6  A    between atoms: C_21  and  C_28
REMARK                            x       y       z     vdW  Elec       q    Type
REMARK                         _______ _______ _______ _____ _____    ______ ____
ROOT
ATOM      1  N   UNL     1      36.143 -20.510 -20.125  0.00  0.00    -0.327 N 
ATOM      2  H   UNL     1      36.856 -20.194 -19.524  0.00  0.00    +0.147 HD
ENDROOT
BRANCH   1   6
ATOM      3  C   UNL     1      34.879 -17.984 -23.234  0.00  0.00    +0.054 C 
ATOM      4  C   UNL     1      36.142 -17.813 -22.667  0.00  0.00    +0.006 C 
ATOM      5  C   UNL     1      34.036 -18.994 -22.769  0.00  0.00    +0.006 C 
ATOM      6  C   UNL     1      35.719 -19.661 -21.170  0.00  0.00    +0.045 C 
ATOM      7  C   UNL     1      36.562 -18.653 -21.635  0.00  0.00    +0.014 C 
ATOM      8  C   UNL     1      34.456 -19.832 -21.737  0.00  0.00    +0.014 C 
BRANCH   3  16
ATOM      9  O   UNL     1      34.556 -17.544 -25.461  0.00  0.00    -0.270 OA
ATOM     10  N   UNL     1      33.918 -15.849 -23.981  0.00  0.00    -0.276 N 
ATOM     11  C   UNL     1      34.209 -12.989 -23.565  0.00  0.00    +0.102 C 
ATOM     12  C   UNL     1      34.259 -13.617 -24.961  0.00  0.00    +0.033 C 
ATOM     13  C   UNL     1      34.536 -14.003 -22.465  0.00  0.00    +0.033 C 
ATOM     14  C   UNL     1      33.489 -14.934 -25.036  0.00  0.00    +0.094 C 
ATOM     15  C   UNL     1      33.777 -15.322 -22.618  0.00  0.00    +0.094 C 
ATOM     16  C   UNL     1      34.436 -17.101 -24.320  0.00  0.00    +0.249 C 
BRANCH  11  18
ATOM     17  O   UNL     1      31.997 -12.828 -22.622  0.00  0.00    -0.250 OA
ATOM     18  C   UNL     1      32.872 -12.347 -23.330  0.00  0.00    +0.317 C 
BRANCH  18  19
ATOM     19  O   UNL     1      32.802 -11.174 -24.021  0.00  0.00    -0.444 OA
ATOM     20  C   UNL     1      32.642  -9.999 -23.221  0.00  0.00    +0.256 C 
ENDBRANCH  18  19
ENDBRANCH  11  18
ENDBRANCH   3  16
ENDBRANCH   1   6
BRANCH   1  21
ATOM     21  C   UNL     1      35.585 -21.807 -19.903  0.00  0.00    +0.145 C 
BRANCH  21  28
ATOM     22  N   UNL     1      34.533 -22.698 -17.892  0.00  0.00    -0.392 NA
ATOM     23  N   UNL     1      36.812 -22.242 -16.389  0.00  0.00    -0.200 NA
ATOM     24  N   UNL     1      35.763 -23.099 -14.511  0.00  0.00    -0.271 NA
ATOM     25  N   UNL     1      33.504 -23.898 -14.617  0.00  0.00    -0.310 NA
ATOM     26  N   UNL     1      32.329 -23.810 -16.664  0.00  0.00    -0.329 N 
ATOM     27  N   UNL     1      34.702 -23.966 -12.606  0.00  0.00    -0.283 N 
ATOM     28  C   UNL     1      35.631 -22.159 -18.442  0.00  0.00    +0.133 C 
ATOM     29  C   UNL     1      36.758 -21.934 -17.699  0.00  0.00    +0.193 C 
ATOM     30  C   UNL     1      34.589 -23.007 -16.582  0.00  0.00    +0.248 C 
ATOM     31  C   UNL     1      35.732 -22.783 -15.811  0.00  0.00    +0.131 C 
ATOM     32  C   UNL     1      33.513 -23.567 -15.921  0.00  0.00    +0.231 C 
ATOM     33  C   UNL     1      34.651 -23.640 -13.978  0.00  0.00    +0.207 C 
ATOM     34  H   UNL     1      31.544 -24.207 -16.224  0.00  0.00    +0.145 HD
ATOM     35  H   UNL     1      32.292 -23.580 -17.621  0.00  0.00    +0.145 HD
ATOM     36  H   UNL     1      35.522 -23.795 -12.089  0.00  0.00    +0.156 HD
ATOM     37  H   UNL     1      33.916 -24.364 -12.164  0.00  0.00    +0.156 HD
ENDBRANCH  21  28
ENDBRANCH   1  21
TORSDOF 6
ENDMDL
MODEL 6
REMARK VINA RESULT:     -10.9      1.140      2.216
REMARK  Name = 25243853
REMARK  6 active torsions:
REMARK  status: ('A' for Active; 'I' for Inactive)
REMARK    1  A    between atoms: N_1  and  C_6
REMARK    2  A    between atoms: N_1  and  C_21
REMARK    3  A    between atoms: C_3  and  C_16
REMARK    4  A    between atoms: C_11  and  C_18
REMARK    5  A    between atoms: C_18  and  O_19
REMARK    6  A    between atoms: C_21  and  C_28
REMARK                            x       y       z     vdW  Elec       q    Type
REMARK                         _______ _______ _______ _____ _____    ______ ____
ROOT
ATOM      1  N   UNL     1      36.036 -18.918 -22.150  0.00  0.00    -0.327 N 
ATOM      2  H   UNL     1      36.964 -18.632 -21.992  0.00  0.00    +0.147 HD
ENDROOT
BRANCH   1   6
ATOM      3  C   UNL     1      34.279 -21.616 -19.452  0.00  0.00    +0.054 C 
ATOM      4  C   UNL     1      35.669 -21.527 -19.544  0.00  0.00    +0.006 C 
ATOM      5  C   UNL     1      33.474 -20.809 -20.255  0.00  0.00    +0.006 C 
ATOM      6  C   UNL     1      35.446 -19.824 -21.243  0.00  0.00    +0.045 C 
ATOM      7  C   UNL     1      36.252 -20.630 -20.440  0.00  0.00    +0.014 C 
ATOM      8  C   UNL     1      34.057 -19.914 -21.151  0.00  0.00    +0.014 C 
BRANCH   3  16
ATOM      9  O   UNL     1      32.485 -22.838 -18.713  0.00  0.00    -0.270 OA
ATOM     10  N   UNL     1      34.456 -23.063 -17.473  0.00  0.00    -0.276 N 
ATOM     11  C   UNL     1      35.416 -23.010 -14.733  0.00  0.00    +0.102 C 
ATOM     12  C   UNL     1      33.984 -23.428 -15.085  0.00  0.00    +0.033 C 
ATOM     13  C   UNL     1      36.051 -22.150 -15.829  0.00  0.00    +0.033 C 
ATOM     14  C   UNL     1      33.872 -23.986 -16.502  0.00  0.00    +0.094 C 
ATOM     15  C   UNL     1      35.864 -22.729 -17.232  0.00  0.00    +0.094 C 
ATOM     16  C   UNL     1      33.665 -22.559 -18.509  0.00  0.00    +0.249 C 
BRANCH  11  18
ATOM     17  O   UNL     1      35.794 -25.328 -14.190  0.00  0.00    -0.250 OA
ATOM     18  C   UNL     1      36.254 -24.222 -14.440  0.00  0.00    +0.317 C 
BRANCH  18  19
ATOM     19  O   UNL     1      37.574 -23.887 -14.497  0.00  0.00    -0.444 OA
ATOM     20  C   UNL     1      38.469 -24.967 -14.781  0.00  0.00    +0.256 C 
ENDBRANCH  18  19
ENDBRANCH  11  18
ENDBRANCH   3  16
ENDBRANCH   1   6
BRANCH   1  21
ATOM     21  C   UNL     1      35.343 -18.397 -23.287  0.00  0.00    +0.145 C 
BRANCH  21  28
ATOM     22  N   UNL     1      34.465 -16.260 -24.069  0.00  0.00    -0.392 NA
ATOM     23  N   UNL     1      34.472 -15.217 -21.506  0.00  0.00    -0.200 NA
ATOM     24  N   UNL     1      33.638 -13.210 -22.305  0.00  0.00    -0.271 NA
ATOM     25  N   UNL     1      33.185 -12.905 -24.640  0.00  0.00    -0.310 NA
ATOM     26  N   UNL     1      33.596 -14.675 -26.150  0.00  0.00    -0.329 N 
ATOM     27  N   UNL     1      32.793 -11.175 -23.112  0.00  0.00    -0.283 N 
ATOM     28  C   UNL     1      34.880 -16.991 -23.023  0.00  0.00    +0.133 C 
ATOM     29  C   UNL     1      34.882 -16.475 -21.756  0.00  0.00    +0.193 C 
ATOM     30  C   UNL     1      34.054 -15.002 -23.817  0.00  0.00    +0.248 C 
ATOM     31  C   UNL     1      34.051 -14.463 -22.529  0.00  0.00    +0.131 C 
ATOM     32  C   UNL     1      33.608 -14.169 -24.824  0.00  0.00    +0.231 C 
ATOM     33  C   UNL     1      33.225 -12.494 -23.368  0.00  0.00    +0.207 C 
ATOM     34  H   UNL     1      33.285 -14.107 -26.891  0.00  0.00    +0.145 HD
ATOM     35  H   UNL     1      33.900 -15.594 -26.329  0.00  0.00    +0.145 HD
ATOM     36  H   UNL     1      32.803 -10.823 -22.193  0.00  0.00    +0.156 HD
ATOM     37  H   UNL     1      32.481 -10.606 -23.853  0.00  0.00    +0.156 HD
ENDBRANCH  21  28
ENDBRANCH   1  21
TORSDOF 6
ENDMDL
MODEL 7
REMARK VINA RESULT:     -10.9      7.506     14.158
REMARK  Name = 25243853
REMARK  6 active torsions:
REMARK  status: ('A' for Active; 'I' for Inactive)
REMARK    1  A    between atoms: N_1  and  C_6
REMARK    2  A    between atoms: N_1  and  C_21
REMARK    3  A    between atoms: C_3  and  C_16
REMARK    4  A    between atoms: C_11  and  C_18
REMARK    5  A    between atoms: C_18  and  O_19
REMARK    6  A    between atoms: C_21  and  C_28
REMARK                            x       y       z     vdW  Elec       q    Type
REMARK                         _______ _______ _______ _____ _____    ______ ____
ROOT
ATOM      1  N   UNL     1      32.894 -13.968 -25.103  0.00  0.00    -0.327 N 
ATOM      2  H   UNL     1      31.958 -14.200 -24.906  0.00  0.00    +0.147 HD
ENDROOT
BRANCH   1   6
ATOM      3  C   UNL     1      34.110  -9.973 -24.649  0.00  0.00    +0.054 C 
ATOM      4  C   UNL     1      34.363 -10.647 -25.844  0.00  0.00    +0.006 C 
ATOM      5  C   UNL     1      33.453 -10.625 -23.606  0.00  0.00    +0.006 C 
ATOM      6  C   UNL     1      33.302 -12.626 -24.951  0.00  0.00    +0.045 C 
ATOM      7  C   UNL     1      33.958 -11.974 -25.994  0.00  0.00    +0.014 C 
ATOM      8  C   UNL     1      33.049 -11.951 -23.756  0.00  0.00    +0.014 C 
BRANCH   3  16
ATOM      9  O   UNL     1      35.699  -8.401 -24.133  0.00  0.00    -0.270 OA
ATOM     10  N   UNL     1      33.602  -7.570 -24.754  0.00  0.00    -0.276 N 
ATOM     11  C   UNL     1      31.587  -5.663 -23.897  0.00  0.00    +0.102 C 
ATOM     12  C   UNL     1      33.072  -5.479 -23.571  0.00  0.00    +0.033 C 
ATOM     13  C   UNL     1      31.240  -7.124 -24.199  0.00  0.00    +0.033 C 
ATOM     14  C   UNL     1      33.982  -6.170 -24.584  0.00  0.00    +0.094 C 
ATOM     15  C   UNL     1      32.213  -7.782 -25.179  0.00  0.00    +0.094 C 
ATOM     16  C   UNL     1      34.534  -8.577 -24.490  0.00  0.00    +0.249 C 
BRANCH  11  18
ATOM     17  O   UNL     1      31.707  -4.790 -26.140  0.00  0.00    -0.250 OA
ATOM     18  C   UNL     1      31.188  -4.765 -25.032  0.00  0.00    +0.317 C 
BRANCH  18  19
ATOM     19  O   UNL     1      30.179  -3.942 -24.629  0.00  0.00    -0.444 OA
ATOM     20  C   UNL     1      30.579  -2.621 -24.248  0.00  0.00    +0.256 C 
ENDBRANCH  18  19
ENDBRANCH  11  18
ENDBRANCH   3  16
ENDBRANCH   1   6
BRANCH   1  21
ATOM     21  C   UNL     1      33.782 -15.005 -25.528  0.00  0.00    +0.145 C 
BRANCH  21  28
ATOM     22  N   UNL     1      34.288 -17.170 -24.525  0.00  0.00    -0.392 NA
ATOM     23  N   UNL     1      34.916 -15.999 -22.097  0.00  0.00    -0.200 NA
ATOM     24  N   UNL     1      35.383 -18.080 -21.197  0.00  0.00    -0.271 NA
ATOM     25  N   UNL     1      35.167 -20.072 -22.517  0.00  0.00    -0.310 NA
ATOM     26  N   UNL     1      34.467 -19.910 -24.767  0.00  0.00    -0.329 N 
ATOM     27  N   UNL     1      35.857 -20.190 -20.283  0.00  0.00    -0.283 N 
ATOM     28  C   UNL     1      34.216 -15.841 -24.356  0.00  0.00    +0.133 C 
ATOM     29  C   UNL     1      34.527 -15.262 -23.155  0.00  0.00    +0.193 C 
ATOM     30  C   UNL     1      34.678 -17.905 -23.465  0.00  0.00    +0.248 C 
ATOM     31  C   UNL     1      34.998 -17.328 -22.235  0.00  0.00    +0.131 C 
ATOM     32  C   UNL     1      34.785 -19.280 -23.536  0.00  0.00    +0.231 C 
ATOM     33  C   UNL     1      35.449 -19.412 -21.388  0.00  0.00    +0.207 C 
ATOM     34  H   UNL     1      34.532 -20.889 -24.852  0.00  0.00    +0.145 HD
ATOM     35  H   UNL     1      34.180 -19.368 -25.538  0.00  0.00    +0.145 HD
ATOM     36  H   UNL     1      36.075 -19.753 -19.427  0.00  0.00    +0.156 HD
ATOM     37  H   UNL     1      35.922 -21.169 -20.366  0.00  0.00    +0.156 HD
ENDBRANCH  21  28
ENDBRANCH   1  21
TORSDOF 6
ENDMDL
MODEL 8
REMARK VINA RESULT:     -10.8      2.152      3.482
REMARK  Name = 25243853
REMARK  6 active torsions:
REMARK  status: ('A' for Active; 'I' for Inactive)
REMARK    1  A    between atoms: N_1  and  C_6
REMARK    2  A    between atoms: N_1  and  C_21
REMARK    3  A    between atoms: C_3  and  C_16
REMARK    4  A    between atoms: C_11  and  C_18
REMARK    5  A    between atoms: C_18  and  O_19
REMARK    6  A    between atoms: C_21  and  C_28
REMARK                            x       y       z     vdW  Elec       q    Type
REMARK                         _______ _______ _______ _____ _____    ______ ____
ROOT
ATOM      1  N   UNL     1      34.967 -20.336 -21.481  0.00  0.00    -0.327 N 
ATOM      2  H   UNL     1      34.363 -20.606 -22.209  0.00  0.00    +0.147 HD
ENDROOT
BRANCH   1   6
ATOM      3  C   UNL     1      34.854 -22.497 -17.880  0.00  0.00    +0.054 C 
ATOM      4  C   UNL     1      36.037 -21.879 -18.285  0.00  0.00    +0.006 C 
ATOM      5  C   UNL     1      33.709 -22.396 -18.670  0.00  0.00    +0.006 C 
ATOM      6  C   UNL     1      34.929 -21.062 -20.270  0.00  0.00    +0.045 C 
ATOM      7  C   UNL     1      36.074 -21.161 -19.481  0.00  0.00    +0.014 C 
ATOM      8  C   UNL     1      33.746 -21.680 -19.865  0.00  0.00    +0.014 C 
BRANCH   3  16
ATOM      9  O   UNL     1      35.872 -23.767 -16.265  0.00  0.00    -0.270 OA
ATOM     10  N   UNL     1      33.600 -23.324 -15.935  0.00  0.00    -0.276 N 
ATOM     11  C   UNL     1      31.111 -24.668 -15.276  0.00  0.00    +0.102 C 
ATOM     12  C   UNL     1      32.469 -25.192 -14.801  0.00  0.00    +0.033 C 
ATOM     13  C   UNL     1      31.241 -23.764 -16.506  0.00  0.00    +0.033 C 
ATOM     14  C   UNL     1      33.516 -24.086 -14.692  0.00  0.00    +0.094 C 
ATOM     15  C   UNL     1      32.338 -22.708 -16.363  0.00  0.00    +0.094 C 
ATOM     16  C   UNL     1      34.814 -23.252 -16.622  0.00  0.00    +0.249 C 
BRANCH  11  18
ATOM     17  O   UNL     1      30.556 -24.231 -12.972  0.00  0.00    -0.250 OA
ATOM     18  C   UNL     1      30.405 -23.960 -14.155  0.00  0.00    +0.317 C 
BRANCH  18  19
ATOM     19  O   UNL     1      29.593 -22.993 -14.668  0.00  0.00    -0.444 OA
ATOM     20  C   UNL     1      28.413 -23.467 -15.325  0.00  0.00    +0.256 C 
ENDBRANCH  18  19
ENDBRANCH  11  18
ENDBRANCH   3  16
ENDBRANCH   1   6
BRANCH   1  21
ATOM     21  C   UNL     1      35.846 -19.229 -21.694  0.00  0.00    +0.145 C 
BRANCH  21  28
ATOM     22  N   UNL     1      35.089 -17.020 -22.399  0.00  0.00    -0.392 NA
ATOM     23  N   UNL     1      34.475 -17.942 -24.937  0.00  0.00    -0.200 NA
ATOM     24  N   UNL     1      33.770 -15.824 -25.551  0.00  0.00    -0.271 NA
ATOM     25  N   UNL     1      33.845 -13.999 -23.996  0.00  0.00    -0.310 NA
ATOM     26  N   UNL     1      34.649 -14.365 -21.805  0.00  0.00    -0.329 N 
ATOM     27  N   UNL     1      33.054 -13.678 -26.176  0.00  0.00    -0.283 N 
ATOM     28  C   UNL     1      35.284 -18.304 -22.738  0.00  0.00    +0.133 C 
ATOM     29  C   UNL     1      34.981 -18.759 -23.993  0.00  0.00    +0.193 C 
ATOM     30  C   UNL     1      34.584 -16.204 -23.345  0.00  0.00    +0.248 C 
ATOM     31  C   UNL     1      34.270 -16.655 -24.629  0.00  0.00    +0.131 C 
ATOM     32  C   UNL     1      34.347 -14.866 -23.098  0.00  0.00    +0.231 C 
ATOM     33  C   UNL     1      33.582 -14.540 -25.192  0.00  0.00    +0.207 C 
ATOM     34  H   UNL     1      34.491 -13.416 -21.595  0.00  0.00    +0.145 HD
ATOM     35  H   UNL     1      35.015 -14.966 -21.117  0.00  0.00    +0.145 HD
ATOM     36  H   UNL     1      32.842 -14.026 -27.073  0.00  0.00    +0.156 HD
ATOM     37  H   UNL     1      32.896 -12.729 -25.967  0.00  0.00    +0.156 HD
ENDBRANCH  21  28
ENDBRANCH   1  21
TORSDOF 6
ENDMDL
MODEL 9
REMARK VINA RESULT:     -10.7      5.423     12.270
REMARK  Name = 25243853
REMARK  6 active torsions:
REMARK  status: ('A' for Active; 'I' for Inactive)
REMARK    1  A    between atoms: N_1  and  C_6
REMARK    2  A    between atoms: N_1  and  C_21
REMARK    3  A    between atoms: C_3  and  C_16
REMARK    4  A    between atoms: C_11  and  C_18
REMARK    5  A    between atoms: C_18  and  O_19
REMARK    6  A    between atoms: C_21  and  C_28
REMARK                            x       y       z     vdW  Elec       q    Type
REMARK                         _______ _______ _______ _____ _____    ______ ____
ROOT
ATOM      1  N   UNL     1      35.274 -17.596 -21.758  0.00  0.00    -0.327 N 
ATOM      2  H   UNL     1      35.332 -17.269 -20.831  0.00  0.00    +0.147 HD
ENDROOT
BRANCH   1   6
ATOM      3  C   UNL     1      34.091 -14.911 -24.763  0.00  0.00    +0.054 C 
ATOM      4  C   UNL     1      34.166 -14.484 -23.438  0.00  0.00    +0.006 C 
ATOM      5  C   UNL     1      34.408 -16.229 -25.091  0.00  0.00    +0.006 C 
ATOM      6  C   UNL     1      34.877 -16.694 -22.768  0.00  0.00    +0.045 C 
ATOM      7  C   UNL     1      34.560 -15.376 -22.440  0.00  0.00    +0.014 C 
ATOM      8  C   UNL     1      34.801 -17.121 -24.093  0.00  0.00    +0.014 C 
BRANCH   3  16
ATOM      9  O   UNL     1      33.650 -14.420 -26.960  0.00  0.00    -0.270 OA
ATOM     10  N   UNL     1      33.346 -12.668 -25.439  0.00  0.00    -0.276 N 
ATOM     11  C   UNL     1      34.022  -9.870 -25.056  0.00  0.00    +0.102 C 
ATOM     12  C   UNL     1      33.883 -10.490 -26.450  0.00  0.00    +0.033 C 
ATOM     13  C   UNL     1      34.306 -10.924 -23.982  0.00  0.00    +0.033 C 
ATOM     14  C   UNL     1      32.953 -11.701 -26.460  0.00  0.00    +0.094 C 
ATOM     15  C   UNL     1      33.379 -12.138 -24.071  0.00  0.00    +0.094 C 
ATOM     16  C   UNL     1      33.677 -13.973 -25.814  0.00  0.00    +0.249 C 
BRANCH  11  18
ATOM     17  O   UNL     1      32.210  -9.135 -23.648  0.00  0.00    -0.250 OA
ATOM     18  C   UNL     1      32.797  -9.069 -24.719  0.00  0.00    +0.317 C 
BRANCH  18  19
ATOM     19  O   UNL     1      32.462  -8.280 -25.779  0.00  0.00    -0.444 OA
ATOM     20  C   UNL     1      32.133  -6.925 -25.457  0.00  0.00    +0.256 C 
ENDBRANCH  18  19
ENDBRANCH  11  18
ENDBRANCH   3  16
ENDBRANCH   1   6
BRANCH   1  21
ATOM     21  C   UNL     1      35.597 -18.964 -22.022  0.00  0.00    +0.145 C 
BRANCH  21  28
ATOM     22  N   UNL     1      35.385 -20.595 -20.223  0.00  0.00    -0.392 NA
ATOM     23  N   UNL     1      32.649 -20.789 -20.601  0.00  0.00    -0.200 NA
ATOM     24  N   UNL     1      32.507 -22.335 -18.883  0.00  0.00    -0.271 NA
ATOM     25  N   UNL     1      34.463 -23.024 -17.677  0.00  0.00    -0.310 NA
ATOM     26  N   UNL     1      36.567 -22.115 -18.250  0.00  0.00    -0.329 N 
ATOM     27  N   UNL     1      32.360 -23.903 -17.142  0.00  0.00    -0.283 N 
ATOM     28  C   UNL     1      34.762 -19.878 -21.170  0.00  0.00    +0.133 C 
ATOM     29  C   UNL     1      33.409 -19.974 -21.356  0.00  0.00    +0.193 C 
ATOM     30  C   UNL     1      34.623 -21.410 -19.468  0.00  0.00    +0.248 C 
ATOM     31  C   UNL     1      33.242 -21.518 -19.647  0.00  0.00    +0.131 C 
ATOM     32  C   UNL     1      35.166 -22.191 -18.466  0.00  0.00    +0.231 C 
ATOM     33  C   UNL     1      33.151 -23.046 -17.938  0.00  0.00    +0.207 C 
ATOM     34  H   UNL     1      36.987 -22.658 -17.545  0.00  0.00    +0.145 HD
ATOM     35  H   UNL     1      37.119 -21.520 -18.806  0.00  0.00    +0.145 HD
ATOM     36  H   UNL     1      31.388 -23.957 -17.293  0.00  0.00    +0.156 HD
ATOM     37  H   UNL     1      32.779 -24.446 -16.436  0.00  0.00    +0.156 HD
ENDBRANCH  21  28
ENDBRANCH   1  21
TORSDOF 6
ENDMDL
