MODEL 1
REMARK VINA RESULT:     -12.4      0.000      0.000
REMARK  Name = 25174099
REMARK  5 active torsions:
REMARK  status: ('A' for Active; 'I' for Inactive)
REMARK    1  A    between atoms: C_5  and  C_33
REMARK    2  A    between atoms: C_14  and  C_18
REMARK    3  A    between atoms: N_17  and  C_20
REMARK    4  A    between atoms: C_20  and  C_24
REMARK    5  A    between atoms: C_33  and  C_36
REMARK                            x       y       z     vdW  Elec       q    Type
REMARK                         _______ _______ _______ _____ _____    ______ ____
ROOT
ATOM      1  S   UNL     1      31.849 -12.433 -21.279  0.00  0.00    -0.064 S 
ATOM      2  O   UNL     1      33.583 -10.589 -25.523  0.00  0.00    -0.274 OA
ATOM      3  N   UNL     1      32.891 -13.953 -23.221  0.00  0.00    -0.379 NA
ATOM      4  N   UNL     1      33.684 -12.876 -25.204  0.00  0.00    -0.255 N 
ATOM      5  C   UNL     1      32.427  -8.910 -23.139  0.00  0.00    +0.028 C 
ATOM      6  C   UNL     1      31.437  -8.055 -22.309  0.00  0.00    +0.005 C 
ATOM      7  C   UNL     1      32.343 -10.363 -22.737  0.00  0.00    -0.027 C 
ATOM      8  C   UNL     1      31.508  -8.370 -20.808  0.00  0.00    +0.006 C 
ATOM      9  C   UNL     1      31.169  -9.838 -20.517  0.00  0.00    +0.032 C 
ATOM     10  C   UNL     1      31.798 -10.750 -21.525  0.00  0.00    +0.002 C 
ATOM     11  C   UNL     1      32.778 -11.505 -23.488  0.00  0.00    +0.154 C 
ATOM     12  C   UNL     1      32.578 -12.694 -22.799  0.00  0.00    +0.152 C 
ATOM     13  C   UNL     1      33.378 -11.572 -24.818  0.00  0.00    +0.239 C 
ATOM     14  C   UNL     1      33.430 -13.978 -24.401  0.00  0.00    +0.240 C 
ATOM     15  H   UNL     1      34.099 -13.021 -26.085  0.00  0.00    +0.157 HD
ENDROOT
BRANCH  14  18
ATOM     16  O   UNL     1      33.609 -15.463 -26.176  0.00  0.00    -0.266 OA
ATOM     17  N   UNL     1      34.391 -16.142 -24.072  0.00  0.00    -0.294 N 
ATOM     18  C   UNL     1      33.821 -15.281 -24.984  0.00  0.00    +0.290 C 
ATOM     19  H   UNL     1      34.491 -15.838 -23.141  0.00  0.00    +0.150 HD
BRANCH  17  20
ATOM     20  C   UNL     1      34.850 -17.468 -24.416  0.00  0.00    +0.117 C 
BRANCH  20  24
ATOM     21  O   UNL     1      35.802 -20.593 -19.799  0.00  0.00    -0.464 OA
ATOM     22  O   UNL     1      32.515 -22.014 -19.309  0.00  0.00    -0.271 OA
ATOM     23  N   UNL     1      33.218 -20.563 -20.950  0.00  0.00    -0.279 N 
ATOM     24  C   UNL     1      35.089 -18.313 -23.198  0.00  0.00    -0.001 C 
ATOM     25  C   UNL     1      34.272 -19.845 -21.523  0.00  0.00    +0.085 C 
ATOM     26  C   UNL     1      34.043 -19.056 -22.651  0.00  0.00    +0.015 C 
ATOM     27  C   UNL     1      35.537 -19.885 -20.937  0.00  0.00    +0.153 C 
ATOM     28  C   UNL     1      36.354 -18.348 -22.612  0.00  0.00    +0.001 C 
ATOM     29  C   UNL     1      36.577 -19.128 -21.477  0.00  0.00    +0.038 C 
ATOM     30  C   UNL     1      34.880 -21.635 -19.538  0.00  0.00    +0.290 C 
ATOM     31  C   UNL     1      33.419 -21.415 -19.888  0.00  0.00    +0.271 C 
ATOM     32  H   UNL     1      32.310 -20.458 -21.316  0.00  0.00    +0.155 HD
ENDBRANCH  20  24
ENDBRANCH  17  20
ENDBRANCH  14  18
BRANCH   5  33
ATOM     33  C   UNL     1      33.856  -8.377 -22.994  0.00  0.00    +0.089 C 
BRANCH  33  36
ATOM     34  O   UNL     1      33.991  -6.107 -23.838  0.00  0.00    -0.275 OA
ATOM     35  N   UNL     1      34.679  -7.845 -25.177  0.00  0.00    -0.329 N 
ATOM     36  C   UNL     1      34.168  -7.309 -24.014  0.00  0.00    +0.220 C 
ATOM     37  H   UNL     1      34.925  -7.254 -25.925  0.00  0.00    +0.145 HD
ATOM     38  H   UNL     1      34.798  -8.819 -25.259  0.00  0.00    +0.145 HD
ENDBRANCH  33  36
ENDBRANCH   5  33
TORSDOF 5
ENDMDL
MODEL 2
REMARK VINA RESULT:     -11.9      4.867     12.057
REMARK  Name = 25174099
REMARK  5 active torsions:
REMARK  status: ('A' for Active; 'I' for Inactive)
REMARK    1  A    between atoms: C_5  and  C_33
REMARK    2  A    between atoms: C_14  and  C_18
REMARK    3  A    between atoms: N_17  and  C_20
REMARK    4  A    between atoms: C_20  and  C_24
REMARK    5  A    between atoms: C_33  and  C_36
REMARK                            x       y       z     vdW  Elec       q    Type
REMARK                         _______ _______ _______ _____ _____    ______ ____
ROOT
ATOM      1  S   UNL     1      34.464 -24.066 -15.060  0.00  0.00    -0.064 S 
ATOM      2  O   UNL     1      31.493 -22.509 -18.689  0.00  0.00    -0.274 OA
ATOM      3  N   UNL     1      35.345 -22.723 -17.202  0.00  0.00    -0.379 NA
ATOM      4  N   UNL     1      33.752 -22.047 -18.853  0.00  0.00    -0.255 N 
ATOM      5  C   UNL     1      30.573 -24.007 -16.092  0.00  0.00    +0.028 C 
ATOM      6  C   UNL     1      30.081 -25.151 -15.171  0.00  0.00    +0.005 C 
ATOM      7  C   UNL     1      32.074 -23.866 -16.012  0.00  0.00    -0.027 C 
ATOM      8  C   UNL     1      30.702 -25.082 -13.769  0.00  0.00    +0.006 C 
ATOM      9  C   UNL     1      32.232 -25.187 -13.818  0.00  0.00    +0.032 C 
ATOM     10  C   UNL     1      32.795 -24.382 -14.949  0.00  0.00    +0.002 C 
ATOM     11  C   UNL     1      32.944 -23.224 -16.954  0.00  0.00    +0.154 C 
ATOM     12  C   UNL     1      34.271 -23.251 -16.547  0.00  0.00    +0.152 C 
ATOM     13  C   UNL     1      32.626 -22.575 -18.223  0.00  0.00    +0.239 C 
ATOM     14  C   UNL     1      35.029 -22.146 -18.320  0.00  0.00    +0.240 C 
ATOM     15  H   UNL     1      33.636 -21.583 -19.714  0.00  0.00    +0.157 HD
ENDROOT
BRANCH  14  18
ATOM     16  O   UNL     1      37.248 -21.904 -18.955  0.00  0.00    -0.266 OA
ATOM     17  N   UNL     1      35.634 -20.576 -20.019  0.00  0.00    -0.294 N 
ATOM     18  C   UNL     1      36.098 -21.527 -19.136  0.00  0.00    +0.290 C 
ATOM     19  H   UNL     1      34.667 -20.389 -20.040  0.00  0.00    +0.150 HD
BRANCH  17  20
ATOM     20  C   UNL     1      36.497 -19.844 -20.917  0.00  0.00    +0.117 C 
BRANCH  20  24
ATOM     21  O   UNL     1      33.511 -17.216 -24.938  0.00  0.00    -0.464 OA
ATOM     22  O   UNL     1      34.016 -13.775 -23.954  0.00  0.00    -0.271 OA
ATOM     23  N   UNL     1      34.823 -15.684 -22.955  0.00  0.00    -0.279 N 
ATOM     24  C   UNL     1      35.719 -19.130 -21.984  0.00  0.00    -0.001 C 
ATOM     25  C   UNL     1      34.928 -17.078 -22.977  0.00  0.00    +0.085 C 
ATOM     26  C   UNL     1      35.646 -17.736 -21.978  0.00  0.00    +0.015 C 
ATOM     27  C   UNL     1      34.276 -17.806 -23.972  0.00  0.00    +0.153 C 
ATOM     28  C   UNL     1      35.065 -19.860 -22.976  0.00  0.00    +0.001 C 
ATOM     29  C   UNL     1      34.337 -19.200 -23.966  0.00  0.00    +0.038 C 
ATOM     30  C   UNL     1      33.807 -15.850 -25.156  0.00  0.00    +0.290 C 
ATOM     31  C   UNL     1      34.193 -14.992 -23.963  0.00  0.00    +0.271 C 
ATOM     32  H   UNL     1      35.210 -15.185 -22.200  0.00  0.00    +0.155 HD
ENDBRANCH  20  24
ENDBRANCH  17  20
ENDBRANCH  14  18
BRANCH   5  33
ATOM     33  C   UNL     1      29.873 -22.689 -15.739  0.00  0.00    +0.089 C 
BRANCH  33  36
ATOM     34  O   UNL     1      27.514 -22.125 -15.705  0.00  0.00    -0.275 OA
ATOM     35  N   UNL     1      28.384 -23.208 -17.538  0.00  0.00    -0.329 N 
ATOM     36  C   UNL     1      28.470 -22.629 -16.291  0.00  0.00    +0.220 C 
ATOM     37  H   UNL     1      27.521 -23.235 -18.011  0.00  0.00    +0.145 HD
ATOM     38  H   UNL     1      29.187 -23.595 -17.957  0.00  0.00    +0.145 HD
ENDBRANCH  33  36
ENDBRANCH   5  33
TORSDOF 5
ENDMDL
MODEL 3
REMARK VINA RESULT:     -11.6      3.846     11.742
REMARK  Name = 25174099
REMARK  5 active torsions:
REMARK  status: ('A' for Active; 'I' for Inactive)
REMARK    1  A    between atoms: C_5  and  C_33
REMARK    2  A    between atoms: C_14  and  C_18
REMARK    3  A    between atoms: N_17  and  C_20
REMARK    4  A    between atoms: C_20  and  C_24
REMARK    5  A    between atoms: C_33  and  C_36
REMARK                            x       y       z     vdW  Elec       q    Type
REMARK                         _______ _______ _______ _____ _____    ______ ____
ROOT
ATOM      1  S   UNL     1      37.184 -22.007 -16.514  0.00  0.00    -0.064 S 
ATOM      2  O   UNL     1      32.993 -22.844 -18.995  0.00  0.00    -0.274 OA
ATOM      3  N   UNL     1      36.678 -20.969 -18.929  0.00  0.00    -0.379 NA
ATOM      4  N   UNL     1      34.588 -21.485 -19.971  0.00  0.00    -0.255 N 
ATOM      5  C   UNL     1      33.665 -23.923 -16.127  0.00  0.00    +0.028 C 
ATOM      6  C   UNL     1      34.071 -24.909 -15.004  0.00  0.00    +0.005 C 
ATOM      7  C   UNL     1      34.858 -23.119 -16.587  0.00  0.00    -0.027 C 
ATOM      8  C   UNL     1      34.922 -24.239 -13.917  0.00  0.00    +0.006 C 
ATOM      9  C   UNL     1      36.226 -23.665 -14.486  0.00  0.00    +0.032 C 
ATOM     10  C   UNL     1      35.992 -22.991 -15.804  0.00  0.00    +0.002 C 
ATOM     11  C   UNL     1      35.008 -22.405 -17.822  0.00  0.00    +0.154 C 
ATOM     12  C   UNL     1      36.227 -21.744 -17.901  0.00  0.00    +0.152 C 
ATOM     13  C   UNL     1      34.087 -22.288 -18.949  0.00  0.00    +0.239 C 
ATOM     14  C   UNL     1      35.834 -20.878 -19.910  0.00  0.00    +0.240 C 
ATOM     15  H   UNL     1      34.034 -21.341 -20.772  0.00  0.00    +0.157 HD
ENDROOT
BRANCH  14  18
ATOM     16  O   UNL     1      37.317 -19.582 -21.137  0.00  0.00    -0.266 OA
ATOM     17  N   UNL     1      35.177 -19.963 -22.019  0.00  0.00    -0.294 N 
ATOM     18  C   UNL     1      36.194 -20.065 -21.094  0.00  0.00    +0.290 C 
ATOM     19  H   UNL     1      34.325 -20.418 -21.830  0.00  0.00    +0.150 HD
BRANCH  17  20
ATOM     20  C   UNL     1      35.303 -19.221 -23.252  0.00  0.00    +0.117 C 
BRANCH  20  24
ATOM     21  O   UNL     1      34.040 -13.756 -22.517  0.00  0.00    -0.464 OA
ATOM     22  O   UNL     1      33.291 -12.817 -25.925  0.00  0.00    -0.271 OA
ATOM     23  N   UNL     1      33.933 -14.872 -25.114  0.00  0.00    -0.279 N 
ATOM     24  C   UNL     1      34.953 -17.772 -23.073  0.00  0.00    -0.001 C 
ATOM     25  C   UNL     1      34.260 -15.656 -24.005  0.00  0.00    +0.085 C 
ATOM     26  C   UNL     1      34.592 -17.001 -24.179  0.00  0.00    +0.015 C 
ATOM     27  C   UNL     1      34.297 -15.081 -22.735  0.00  0.00    +0.153 C 
ATOM     28  C   UNL     1      34.994 -17.197 -21.802  0.00  0.00    +0.001 C 
ATOM     29  C   UNL     1      34.673 -15.850 -21.634  0.00  0.00    +0.038 C 
ATOM     30  C   UNL     1      33.283 -13.138 -23.540  0.00  0.00    +0.290 C 
ATOM     31  C   UNL     1      33.523 -13.565 -24.978  0.00  0.00    +0.271 C 
ATOM     32  H   UNL     1      33.997 -15.262 -26.015  0.00  0.00    +0.155 HD
ENDBRANCH  20  24
ENDBRANCH  17  20
ENDBRANCH  14  18
BRANCH   5  33
ATOM     33  C   UNL     1      32.527 -23.009 -15.661  0.00  0.00    +0.089 C 
BRANCH  33  36
ATOM     34  O   UNL     1      30.611 -24.497 -15.629  0.00  0.00    -0.275 OA
ATOM     35  N   UNL     1      30.646 -22.742 -17.115  0.00  0.00    -0.329 N 
ATOM     36  C   UNL     1      31.176 -23.515 -16.105  0.00  0.00    +0.220 C 
ATOM     37  H   UNL     1      29.767 -22.965 -17.496  0.00  0.00    +0.145 HD
ATOM     38  H   UNL     1      31.148 -21.966 -17.456  0.00  0.00    +0.145 HD
ENDBRANCH  33  36
ENDBRANCH   5  33
TORSDOF 5
ENDMDL
MODEL 4
REMARK VINA RESULT:     -11.6      2.027      2.841
REMARK  Name = 25174099
REMARK  5 active torsions:
REMARK  status: ('A' for Active; 'I' for Inactive)
REMARK    1  A    between atoms: C_5  and  C_33
REMARK    2  A    between atoms: C_14  and  C_18
REMARK    3  A    between atoms: N_17  and  C_20
REMARK    4  A    between atoms: C_20  and  C_24
REMARK    5  A    between atoms: C_33  and  C_36
REMARK                            x       y       z     vdW  Elec       q    Type
REMARK                         _______ _______ _______ _____ _____    ______ ____
ROOT
ATOM      1  S   UNL     1      33.929 -10.376 -25.806  0.00  0.00    -0.064 S 
ATOM      2  O   UNL     1      32.517 -12.625 -21.639  0.00  0.00    -0.274 OA
ATOM      3  N   UNL     1      33.891 -13.037 -25.517  0.00  0.00    -0.379 NA
ATOM      4  N   UNL     1      33.171 -13.942 -23.423  0.00  0.00    -0.255 N 
ATOM      5  C   UNL     1      32.518  -9.528 -22.132  0.00  0.00    +0.028 C 
ATOM      6  C   UNL     1      32.960  -8.045 -22.061  0.00  0.00    +0.005 C 
ATOM      7  C   UNL     1      33.030 -10.177 -23.396  0.00  0.00    -0.027 C 
ATOM      8  C   UNL     1      32.715  -7.297 -23.379  0.00  0.00    +0.006 C 
ATOM      9  C   UNL     1      33.487  -7.929 -24.545  0.00  0.00    +0.032 C 
ATOM     10  C   UNL     1      33.429  -9.424 -24.487  0.00  0.00    +0.002 C 
ATOM     11  C   UNL     1      33.181 -11.578 -23.661  0.00  0.00    +0.154 C 
ATOM     12  C   UNL     1      33.651 -11.823 -24.945  0.00  0.00    +0.152 C 
ATOM     13  C   UNL     1      32.915 -12.724 -22.795  0.00  0.00    +0.239 C 
ATOM     14  C   UNL     1      33.636 -14.034 -24.726  0.00  0.00    +0.240 C 
ATOM     15  H   UNL     1      33.013 -14.773 -22.920  0.00  0.00    +0.157 HD
ENDROOT
BRANCH  14  18
ATOM     16  O   UNL     1      33.422 -15.701 -26.327  0.00  0.00    -0.266 OA
ATOM     17  N   UNL     1      34.534 -16.214 -24.327  0.00  0.00    -0.294 N 
ATOM     18  C   UNL     1      33.852 -15.414 -25.218  0.00  0.00    +0.290 C 
ATOM     19  H   UNL     1      34.813 -15.824 -23.467  0.00  0.00    +0.150 HD
BRANCH  17  20
ATOM     20  C   UNL     1      34.858 -17.596 -24.594  0.00  0.00    +0.117 C 
BRANCH  20  24
ATOM     21  O   UNL     1      35.766 -20.464 -19.804  0.00  0.00    -0.464 OA
ATOM     22  O   UNL     1      32.499 -21.931 -19.317  0.00  0.00    -0.271 OA
ATOM     23  N   UNL     1      33.210 -20.550 -21.013  0.00  0.00    -0.279 N 
ATOM     24  C   UNL     1      35.086 -18.373 -23.330  0.00  0.00    -0.001 C 
ATOM     25  C   UNL     1      34.262 -19.838 -21.598  0.00  0.00    +0.085 C 
ATOM     26  C   UNL     1      34.043 -19.112 -22.769  0.00  0.00    +0.015 C 
ATOM     27  C   UNL     1      35.513 -19.820 -20.983  0.00  0.00    +0.153 C 
ATOM     28  C   UNL     1      36.337 -18.352 -22.714  0.00  0.00    +0.001 C 
ATOM     29  C   UNL     1      36.550 -19.069 -21.536  0.00  0.00    +0.038 C 
ATOM     30  C   UNL     1      34.861 -21.512 -19.512  0.00  0.00    +0.290 C 
ATOM     31  C   UNL     1      33.404 -21.342 -19.905  0.00  0.00    +0.271 C 
ATOM     32  H   UNL     1      32.309 -20.483 -21.404  0.00  0.00    +0.155 HD
ENDBRANCH  20  24
ENDBRANCH  17  20
ENDBRANCH  14  18
BRANCH   5  33
ATOM     33  C   UNL     1      30.993  -9.644 -22.029  0.00  0.00    +0.089 C 
BRANCH  33  36
ATOM     34  O   UNL     1      30.747  -9.988 -19.640  0.00  0.00    -0.275 OA
ATOM     35  N   UNL     1      29.943 -11.579 -21.093  0.00  0.00    -0.329 N 
ATOM     36  C   UNL     1      30.566 -10.388 -20.787  0.00  0.00    +0.220 C 
ATOM     37  H   UNL     1      29.615 -12.163 -20.371  0.00  0.00    +0.145 HD
ATOM     38  H   UNL     1      29.827 -11.847 -22.033  0.00  0.00    +0.145 HD
ENDBRANCH  33  36
ENDBRANCH   5  33
TORSDOF 5
ENDMDL
MODEL 5
REMARK VINA RESULT:     -11.3      6.390     10.277
REMARK  Name = 25174099
REMARK  5 active torsions:
REMARK  status: ('A' for Active; 'I' for Inactive)
REMARK    1  A    between atoms: C_5  and  C_33
REMARK    2  A    between atoms: C_14  and  C_18
REMARK    3  A    between atoms: N_17  and  C_20
REMARK    4  A    between atoms: C_20  and  C_24
REMARK    5  A    between atoms: C_33  and  C_36
REMARK                            x       y       z     vdW  Elec       q    Type
REMARK                         _______ _______ _______ _____ _____    ______ ____
ROOT
ATOM      1  S   UNL     1      36.809 -20.673 -20.081  0.00  0.00    -0.064 S 
ATOM      2  O   UNL     1      31.988 -20.417 -21.138  0.00  0.00    -0.274 OA
ATOM      3  N   UNL     1      34.968 -22.233 -18.921  0.00  0.00    -0.379 NA
ATOM      4  N   UNL     1      32.682 -21.965 -19.568  0.00  0.00    -0.255 N 
ATOM      5  C   UNL     1      34.248 -18.714 -22.492  0.00  0.00    +0.028 C 
ATOM      6  C   UNL     1      35.146 -17.498 -22.830  0.00  0.00    +0.005 C 
ATOM      7  C   UNL     1      34.917 -19.603 -21.471  0.00  0.00    -0.027 C 
ATOM      8  C   UNL     1      36.601 -17.904 -23.104  0.00  0.00    +0.006 C 
ATOM      9  C   UNL     1      37.238 -18.595 -21.892  0.00  0.00    +0.032 C 
ATOM     10  C   UNL     1      36.282 -19.550 -21.247  0.00  0.00    +0.002 C 
ATOM     11  C   UNL     1      34.298 -20.580 -20.622  0.00  0.00    +0.154 C 
ATOM     12  C   UNL     1      35.221 -21.244 -19.825  0.00  0.00    +0.152 C 
ATOM     13  C   UNL     1      32.890 -20.949 -20.499  0.00  0.00    +0.239 C 
ATOM     14  C   UNL     1      33.711 -22.543 -18.841  0.00  0.00    +0.240 C 
ATOM     15  H   UNL     1      31.763 -22.286 -19.420  0.00  0.00    +0.157 HD
ENDROOT
BRANCH  14  18
ATOM     16  O   UNL     1      33.070 -24.720 -18.351  0.00  0.00    -0.266 OA
ATOM     17  N   UNL     1      33.208 -23.175 -16.591  0.00  0.00    -0.294 N 
ATOM     18  C   UNL     1      33.293 -23.605 -17.897  0.00  0.00    +0.290 C 
ATOM     19  H   UNL     1      33.424 -22.236 -16.392  0.00  0.00    +0.150 HD
BRANCH  17  20
ATOM     20  C   UNL     1      32.821 -24.039 -15.499  0.00  0.00    +0.117 C 
BRANCH  20  24
ATOM     21  O   UNL     1      37.204 -25.602 -12.284  0.00  0.00    -0.464 OA
ATOM     22  O   UNL     1      39.523 -26.656 -14.847  0.00  0.00    -0.271 OA
ATOM     23  N   UNL     1      37.391 -25.830 -15.097  0.00  0.00    -0.279 N 
ATOM     24  C   UNL     1      33.998 -24.446 -14.661  0.00  0.00    -0.001 C 
ATOM     25  C   UNL     1      36.246 -25.306 -14.490  0.00  0.00    +0.085 C 
ATOM     26  C   UNL     1      35.152 -24.935 -15.274  0.00  0.00    +0.015 C 
ATOM     27  C   UNL     1      36.186 -25.199 -13.101  0.00  0.00    +0.153 C 
ATOM     28  C   UNL     1      33.934 -24.341 -13.272  0.00  0.00    +0.001 C 
ATOM     29  C   UNL     1      35.024 -24.725 -12.490  0.00  0.00    +0.038 C 
ATOM     30  C   UNL     1      38.465 -25.673 -12.923  0.00  0.00    +0.290 C 
ATOM     31  C   UNL     1      38.519 -26.132 -14.370  0.00  0.00    +0.271 C 
ATOM     32  H   UNL     1      37.391 -25.986 -16.069  0.00  0.00    +0.155 HD
ENDBRANCH  20  24
ENDBRANCH  17  20
ENDBRANCH  14  18
BRANCH   5  33
ATOM     33  C   UNL     1      33.894 -19.496 -23.761  0.00  0.00    +0.089 C 
BRANCH  33  36
ATOM     34  O   UNL     1      34.070 -17.625 -25.296  0.00  0.00    -0.275 OA
ATOM     35  N   UNL     1      32.203 -18.967 -25.370  0.00  0.00    -0.329 N 
ATOM     36  C   UNL     1      33.433 -18.588 -24.875  0.00  0.00    +0.220 C 
ATOM     37  H   UNL     1      31.788 -18.456 -26.101  0.00  0.00    +0.145 HD
ATOM     38  H   UNL     1      31.741 -19.749 -24.991  0.00  0.00    +0.145 HD
ENDBRANCH  33  36
ENDBRANCH   5  33
TORSDOF 5
ENDMDL
MODEL 6
REMARK VINA RESULT:     -11.0      1.364      1.854
REMARK  Name = 25174099
REMARK  5 active torsions:
REMARK  status: ('A' for Active; 'I' for Inactive)
REMARK    1  A    between atoms: C_5  and  C_33
REMARK    2  A    between atoms: C_14  and  C_18
REMARK    3  A    between atoms: N_17  and  C_20
REMARK    4  A    between atoms: C_20  and  C_24
REMARK    5  A    between atoms: C_33  and  C_36
REMARK                            x       y       z     vdW  Elec       q    Type
REMARK                         _______ _______ _______ _____ _____    ______ ____
ROOT
ATOM      1  S   UNL     1      32.177 -13.030 -21.085  0.00  0.00    -0.064 S 
ATOM      2  O   UNL     1      33.832 -11.680 -25.541  0.00  0.00    -0.274 OA
ATOM      3  N   UNL     1      33.531 -14.675 -22.707  0.00  0.00    -0.379 NA
ATOM      4  N   UNL     1      34.255 -13.837 -24.827  0.00  0.00    -0.255 N 
ATOM      5  C   UNL     1      32.319  -9.824 -23.516  0.00  0.00    +0.028 C 
ATOM      6  C   UNL     1      31.172  -9.006 -22.872  0.00  0.00    +0.005 C 
ATOM      7  C   UNL     1      32.431 -11.184 -22.870  0.00  0.00    -0.027 C 
ATOM      8  C   UNL     1      31.212  -9.049 -21.338  0.00  0.00    +0.006 C 
ATOM      9  C   UNL     1      31.081 -10.482 -20.804  0.00  0.00    +0.032 C 
ATOM     10  C   UNL     1      31.889 -11.442 -21.622  0.00  0.00    +0.002 C 
ATOM     11  C   UNL     1      33.069 -12.355 -23.399  0.00  0.00    +0.154 C 
ATOM     12  C   UNL     1      33.013 -13.427 -22.519  0.00  0.00    +0.152 C 
ATOM     13  C   UNL     1      33.740 -12.551 -24.681  0.00  0.00    +0.239 C 
ATOM     14  C   UNL     1      34.127 -14.814 -23.851  0.00  0.00    +0.240 C 
ATOM     15  H   UNL     1      34.732 -14.063 -25.658  0.00  0.00    +0.157 HD
ENDROOT
BRANCH  14  18
ATOM     16  O   UNL     1      34.670 -16.502 -25.349  0.00  0.00    -0.266 OA
ATOM     17  N   UNL     1      35.318 -16.750 -23.109  0.00  0.00    -0.294 N 
ATOM     18  C   UNL     1      34.737 -16.121 -24.188  0.00  0.00    +0.290 C 
ATOM     19  H   UNL     1      35.284 -16.303 -22.232  0.00  0.00    +0.150 HD
BRANCH  17  20
ATOM     20  C   UNL     1      35.974 -18.034 -23.202  0.00  0.00    +0.117 C 
BRANCH  20  24
ATOM     21  O   UNL     1      33.803 -21.793 -19.576  0.00  0.00    -0.464 OA
ATOM     22  O   UNL     1      36.745 -22.561 -17.624  0.00  0.00    -0.271 OA
ATOM     23  N   UNL     1      36.542 -21.112 -19.399  0.00  0.00    -0.279 N 
ATOM     24  C   UNL     1      35.411 -19.024 -22.224  0.00  0.00    -0.001 C 
ATOM     25  C   UNL     1      35.708 -20.510 -20.346  0.00  0.00    +0.085 C 
ATOM     26  C   UNL     1      36.239 -19.596 -21.257  0.00  0.00    +0.015 C 
ATOM     27  C   UNL     1      34.360 -20.860 -20.404  0.00  0.00    +0.153 C 
ATOM     28  C   UNL     1      34.062 -19.376 -22.286  0.00  0.00    +0.001 C 
ATOM     29  C   UNL     1      33.538 -20.300 -21.382  0.00  0.00    +0.038 C 
ATOM     30  C   UNL     1      34.528 -22.013 -18.381  0.00  0.00    +0.290 C 
ATOM     31  C   UNL     1      36.045 -21.956 -18.433  0.00  0.00    +0.271 C 
ATOM     32  H   UNL     1      37.509 -20.928 -19.423  0.00  0.00    +0.155 HD
ENDBRANCH  20  24
ENDBRANCH  17  20
ENDBRANCH  14  18
BRANCH   5  33
ATOM     33  C   UNL     1      33.644  -9.059 -23.431  0.00  0.00    +0.089 C 
BRANCH  33  36
ATOM     34  O   UNL     1      33.395  -7.222 -24.995  0.00  0.00    -0.275 OA
ATOM     35  N   UNL     1      34.876  -8.915 -25.477  0.00  0.00    -0.329 N 
ATOM     36  C   UNL     1      33.932  -8.285 -24.694  0.00  0.00    +0.220 C 
ATOM     37  H   UNL     1      35.155  -8.513 -26.331  0.00  0.00    +0.145 HD
ATOM     38  H   UNL     1      35.271  -9.766 -25.181  0.00  0.00    +0.145 HD
ENDBRANCH  33  36
ENDBRANCH   5  33
TORSDOF 5
ENDMDL
MODEL 7
REMARK VINA RESULT:     -10.7      2.597      3.752
REMARK  Name = 25174099
REMARK  5 active torsions:
REMARK  status: ('A' for Active; 'I' for Inactive)
REMARK    1  A    between atoms: C_5  and  C_33
REMARK    2  A    between atoms: C_14  and  C_18
REMARK    3  A    between atoms: N_17  and  C_20
REMARK    4  A    between atoms: C_20  and  C_24
REMARK    5  A    between atoms: C_33  and  C_36
REMARK                            x       y       z     vdW  Elec       q    Type
REMARK                         _______ _______ _______ _____ _____    ______ ____
ROOT
ATOM      1  S   UNL     1      33.950 -13.138 -26.282  0.00  0.00    -0.064 S 
ATOM      2  O   UNL     1      33.696 -13.570 -21.365  0.00  0.00    -0.274 OA
ATOM      3  N   UNL     1      34.397 -15.438 -24.987  0.00  0.00    -0.379 NA
ATOM      4  N   UNL     1      34.222 -15.451 -22.602  0.00  0.00    -0.255 N 
ATOM      5  C   UNL     1      33.105 -10.960 -23.002  0.00  0.00    +0.028 C 
ATOM      6  C   UNL     1      33.306  -9.551 -23.613  0.00  0.00    +0.005 C 
ATOM      7  C   UNL     1      33.480 -12.031 -23.999  0.00  0.00    -0.027 C 
ATOM      8  C   UNL     1      32.709  -9.434 -25.022  0.00  0.00    +0.006 C 
ATOM      9  C   UNL     1      33.350 -10.429 -25.998  0.00  0.00    +0.032 C 
ATOM     10  C   UNL     1      33.548 -11.767 -25.356  0.00  0.00    +0.002 C 
ATOM     11  C   UNL     1      33.806 -13.402 -23.729  0.00  0.00    +0.154 C 
ATOM     12  C   UNL     1      34.069 -14.117 -24.890  0.00  0.00    +0.152 C 
ATOM     13  C   UNL     1      33.890 -14.106 -22.452  0.00  0.00    +0.239 C 
ATOM     14  C   UNL     1      34.454 -16.036 -23.837  0.00  0.00    +0.240 C 
ATOM     15  H   UNL     1      34.296 -16.010 -21.795  0.00  0.00    +0.157 HD
ENDROOT
BRANCH  14  18
ATOM     16  O   UNL     1      34.488 -18.169 -24.753  0.00  0.00    -0.266 OA
ATOM     17  N   UNL     1      35.447 -17.850 -22.637  0.00  0.00    -0.294 N 
ATOM     18  C   UNL     1      34.799 -17.476 -23.794  0.00  0.00    +0.290 C 
ATOM     19  H   UNL     1      35.624 -17.161 -21.956  0.00  0.00    +0.150 HD
BRANCH  17  20
ATOM     20  C   UNL     1      35.880 -19.203 -22.376  0.00  0.00    +0.117 C 
BRANCH  20  24
ATOM     21  O   UNL     1      32.195 -21.986 -19.109  0.00  0.00    -0.464 OA
ATOM     22  O   UNL     1      34.482 -23.861 -17.033  0.00  0.00    -0.271 OA
ATOM     23  N   UNL     1      34.969 -22.387 -18.730  0.00  0.00    -0.279 N 
ATOM     24  C   UNL     1      34.916 -19.940 -21.492  0.00  0.00    -0.001 C 
ATOM     25  C   UNL     1      34.495 -21.488 -19.689  0.00  0.00    +0.085 C 
ATOM     26  C   UNL     1      35.395 -20.811 -20.513  0.00  0.00    +0.015 C 
ATOM     27  C   UNL     1      33.122 -21.305 -19.848  0.00  0.00    +0.153 C 
ATOM     28  C   UNL     1      33.543 -19.758 -21.655  0.00  0.00    +0.001 C 
ATOM     29  C   UNL     1      32.644 -20.446 -20.839  0.00  0.00    +0.038 C 
ATOM     30  C   UNL     1      32.692 -22.499 -17.888  0.00  0.00    +0.290 C 
ATOM     31  C   UNL     1      34.121 -23.013 -17.846  0.00  0.00    +0.271 C 
ATOM     32  H   UNL     1      35.934 -22.578 -18.686  0.00  0.00    +0.155 HD
ENDBRANCH  20  24
ENDBRANCH  17  20
ENDBRANCH  14  18
BRANCH   5  33
ATOM     33  C   UNL     1      31.664 -11.138 -22.513  0.00  0.00    +0.089 C 
BRANCH  33  36
ATOM     34  O   UNL     1      31.306  -9.576 -20.693  0.00  0.00    -0.275 OA
ATOM     35  N   UNL     1      31.599 -11.807 -20.217  0.00  0.00    -0.329 N 
ATOM     36  C   UNL     1      31.502 -10.728 -21.070  0.00  0.00    +0.220 C 
ATOM     37  H   UNL     1      31.511 -11.676 -19.245  0.00  0.00    +0.145 HD
ATOM     38  H   UNL     1      31.756 -12.708 -20.579  0.00  0.00    +0.145 HD
ENDBRANCH  33  36
ENDBRANCH   5  33
TORSDOF 5
ENDMDL
MODEL 8
REMARK VINA RESULT:     -10.6      3.918     11.311
REMARK  Name = 25174099
REMARK  5 active torsions:
REMARK  status: ('A' for Active; 'I' for Inactive)
REMARK    1  A    between atoms: C_5  and  C_33
REMARK    2  A    between atoms: C_14  and  C_18
REMARK    3  A    between atoms: N_17  and  C_20
REMARK    4  A    between atoms: C_20  and  C_24
REMARK    5  A    between atoms: C_33  and  C_36
REMARK                            x       y       z     vdW  Elec       q    Type
REMARK                         _______ _______ _______ _____ _____    ______ ____
ROOT
ATOM      1  S   UNL     1      36.912 -21.674 -17.650  0.00  0.00    -0.064 S 
ATOM      2  O   UNL     1      32.341 -22.570 -19.298  0.00  0.00    -0.274 OA
ATOM      3  N   UNL     1      35.947 -20.648 -19.927  0.00  0.00    -0.379 NA
ATOM      4  N   UNL     1      33.705 -21.193 -20.557  0.00  0.00    -0.255 N 
ATOM      5  C   UNL     1      33.554 -23.635 -16.610  0.00  0.00    +0.028 C 
ATOM      6  C   UNL     1      34.177 -24.614 -15.583  0.00  0.00    +0.005 C 
ATOM      7  C   UNL     1      34.628 -22.816 -17.285  0.00  0.00    -0.027 C 
ATOM      8  C   UNL     1      35.209 -23.931 -14.675  0.00  0.00    +0.006 C 
ATOM      9  C   UNL     1      36.374 -23.341 -15.480  0.00  0.00    +0.032 C 
ATOM     10  C   UNL     1      35.888 -22.673 -16.729  0.00  0.00    +0.002 C 
ATOM     11  C   UNL     1      34.534 -22.103 -18.526  0.00  0.00    +0.154 C 
ATOM     12  C   UNL     1      35.708 -21.426 -18.833  0.00  0.00    +0.152 C 
ATOM     13  C   UNL     1      33.416 -22.000 -19.459  0.00  0.00    +0.239 C 
ATOM     14  C   UNL     1      34.932 -20.570 -20.731  0.00  0.00    +0.240 C 
ATOM     15  H   UNL     1      33.008 -21.058 -21.239  0.00  0.00    +0.157 HD
ENDROOT
BRANCH  14  18
ATOM     16  O   UNL     1      34.179 -19.869 -22.812  0.00  0.00    -0.266 OA
ATOM     17  N   UNL     1      36.171 -18.951 -21.980  0.00  0.00    -0.294 N 
ATOM     18  C   UNL     1      35.052 -19.755 -21.962  0.00  0.00    +0.290 C 
ATOM     19  H   UNL     1      36.780 -18.978 -21.207  0.00  0.00    +0.150 HD
BRANCH  17  20
ATOM     20  C   UNL     1      36.492 -18.070 -23.079  0.00  0.00    +0.117 C 
BRANCH  20  24
ATOM     21  O   UNL     1      32.602 -14.020 -23.757  0.00  0.00    -0.464 OA
ATOM     22  O   UNL     1      32.278 -12.877 -20.344  0.00  0.00    -0.271 OA
ATOM     23  N   UNL     1      33.633 -14.540 -21.175  0.00  0.00    -0.279 N 
ATOM     24  C   UNL     1      35.470 -16.983 -23.243  0.00  0.00    -0.001 C 
ATOM     25  C   UNL     1      34.093 -15.244 -22.291  0.00  0.00    +0.085 C 
ATOM     26  C   UNL     1      35.039 -16.258 -22.132  0.00  0.00    +0.015 C 
ATOM     27  C   UNL     1      33.572 -14.960 -23.553  0.00  0.00    +0.153 C 
ATOM     28  C   UNL     1      34.947 -16.703 -24.506  0.00  0.00    +0.001 C 
ATOM     29  C   UNL     1      33.993 -15.697 -24.661  0.00  0.00    +0.038 C 
ATOM     30  C   UNL     1      32.514 -13.048 -22.733  0.00  0.00    +0.290 C 
ATOM     31  C   UNL     1      32.763 -13.481 -21.298  0.00  0.00    +0.271 C 
ATOM     32  H   UNL     1      33.938 -14.807 -20.278  0.00  0.00    +0.155 HD
ENDBRANCH  20  24
ENDBRANCH  17  20
ENDBRANCH  14  18
BRANCH   5  33
ATOM     33  C   UNL     1      32.512 -22.735 -15.936  0.00  0.00    +0.089 C 
BRANCH  33  36
ATOM     34  O   UNL     1      30.638 -24.137 -15.301  0.00  0.00    -0.275 OA
ATOM     35  N   UNL     1      30.436 -22.751 -17.125  0.00  0.00    -0.329 N 
ATOM     36  C   UNL     1      31.117 -23.296 -16.058  0.00  0.00    +0.220 C 
ATOM     37  H   UNL     1      29.512 -23.033 -17.316  0.00  0.00    +0.145 HD
ATOM     38  H   UNL     1      30.874 -22.080 -17.696  0.00  0.00    +0.145 HD
ENDBRANCH  33  36
ENDBRANCH   5  33
TORSDOF 5
ENDMDL
MODEL 9
REMARK VINA RESULT:     -10.6      3.473      5.930
REMARK  Name = 25174099
REMARK  5 active torsions:
REMARK  status: ('A' for Active; 'I' for Inactive)
REMARK    1  A    between atoms: C_5  and  C_33
REMARK    2  A    between atoms: C_14  and  C_18
REMARK    3  A    between atoms: N_17  and  C_20
REMARK    4  A    between atoms: C_20  and  C_24
REMARK    5  A    between atoms: C_33  and  C_36
REMARK                            x       y       z     vdW  Elec       q    Type
REMARK                         _______ _______ _______ _____ _____    ______ ____
ROOT
ATOM      1  S   UNL     1      34.724 -16.803 -25.193  0.00  0.00    -0.064 S 
ATOM      2  O   UNL     1      34.362 -14.878 -20.657  0.00  0.00    -0.274 OA
ATOM      3  N   UNL     1      35.441 -18.125 -22.978  0.00  0.00    -0.379 NA
ATOM      4  N   UNL     1      35.187 -17.027 -20.868  0.00  0.00    -0.255 N 
ATOM      5  C   UNL     1      33.473 -13.470 -23.314  0.00  0.00    +0.028 C 
ATOM      6  C   UNL     1      33.498 -12.507 -24.528  0.00  0.00    +0.005 C 
ATOM      7  C   UNL     1      34.026 -14.822 -23.695  0.00  0.00    -0.027 C 
ATOM      8  C   UNL     1      32.939 -13.158 -25.802  0.00  0.00    +0.006 C 
ATOM      9  C   UNL     1      33.746 -14.398 -26.210  0.00  0.00    +0.032 C 
ATOM     10  C   UNL     1      34.105 -15.228 -25.016  0.00  0.00    +0.002 C 
ATOM     11  C   UNL     1      34.530 -15.840 -22.818  0.00  0.00    +0.154 C 
ATOM     12  C   UNL     1      34.930 -16.977 -23.508  0.00  0.00    +0.152 C 
ATOM     13  C   UNL     1      34.666 -15.833 -21.364  0.00  0.00    +0.239 C 
ATOM     14  C   UNL     1      35.540 -18.091 -21.685  0.00  0.00    +0.240 C 
ATOM     15  H   UNL     1      35.309 -17.119 -19.896  0.00  0.00    +0.157 HD
ENDROOT
BRANCH  14  18
ATOM     16  O   UNL     1      37.221 -19.207 -20.537  0.00  0.00    -0.266 OA
ATOM     17  N   UNL     1      35.189 -20.322 -20.902  0.00  0.00    -0.294 N 
ATOM     18  C   UNL     1      36.079 -19.273 -20.975  0.00  0.00    +0.290 C 
ATOM     19  H   UNL     1      34.300 -20.211 -21.309  0.00  0.00    +0.150 HD
BRANCH  17  20
ATOM     20  C   UNL     1      35.498 -21.576 -20.254  0.00  0.00    +0.117 C 
BRANCH  20  24
ATOM     21  O   UNL     1      31.363 -23.181 -16.744  0.00  0.00    -0.464 OA
ATOM     22  O   UNL     1      33.303 -24.894 -14.222  0.00  0.00    -0.271 OA
ATOM     23  N   UNL     1      34.042 -23.851 -16.135  0.00  0.00    -0.279 N 
ATOM     24  C   UNL     1      34.414 -21.999 -19.305  0.00  0.00    -0.001 C 
ATOM     25  C   UNL     1      33.726 -23.101 -17.271  0.00  0.00    +0.085 C 
ATOM     26  C   UNL     1      34.738 -22.717 -18.153  0.00  0.00    +0.015 C 
ATOM     27  C   UNL     1      32.397 -22.779 -17.542  0.00  0.00    +0.153 C 
ATOM     28  C   UNL     1      33.084 -21.679 -19.579  0.00  0.00    +0.001 C 
ATOM     29  C   UNL     1      32.074 -22.075 -18.702  0.00  0.00    +0.038 C 
ATOM     30  C   UNL     1      31.745 -23.506 -15.421  0.00  0.00    +0.290 C 
ATOM     31  C   UNL     1      33.088 -24.181 -15.200  0.00  0.00    +0.271 C 
ATOM     32  H   UNL     1      34.970 -24.151 -15.999  0.00  0.00    +0.155 HD
ENDBRANCH  20  24
ENDBRANCH  17  20
ENDBRANCH  14  18
BRANCH   5  33
ATOM     33  C   UNL     1      32.054 -13.591 -22.749  0.00  0.00    +0.089 C 
BRANCH  33  36
ATOM     34  O   UNL     1      31.659 -11.443 -21.694  0.00  0.00    -0.275 OA
ATOM     35  N   UNL     1      31.826 -13.325 -20.382  0.00  0.00    -0.329 N 
ATOM     36  C   UNL     1      31.826 -12.655 -21.587  0.00  0.00    +0.220 C 
ATOM     37  H   UNL     1      31.688 -12.829 -19.543  0.00  0.00    +0.145 HD
ATOM     38  H   UNL     1      31.965 -14.299 -20.360  0.00  0.00    +0.145 HD
ENDBRANCH  33  36
ENDBRANCH   5  33
TORSDOF 5
ENDMDL
