MODEL 1
REMARK VINA RESULT:     -11.8      0.000      0.000
REMARK  Name = 3822
REMARK  5 active torsions:
REMARK  status: ('A' for Active; 'I' for Inactive)
REMARK    1  A    between atoms: N_1  and  C_17
REMARK    2  A    between atoms: C_2  and  C_9
REMARK    3  A    between atoms: C_9  and  C_11
REMARK    4  A    between atoms: C_17  and  C_18
REMARK    5  A    between atoms: C_18  and  N_21
REMARK                            x       y       z     vdW  Elec       q    Type
REMARK                         _______ _______ _______ _____ _____    ______ ____
ROOT
ATOM      1  N   UNL     1      35.762 -20.372 -20.811  0.00  0.00    +0.388 N 
ATOM      2  C   UNL     1      35.526 -18.277 -22.856  0.00  0.00    +0.058 C 
ATOM      3  C   UNL     1      36.867 -18.679 -22.243  0.00  0.00    -0.015 C 
ATOM      4  C   UNL     1      34.476 -19.372 -22.673  0.00  0.00    -0.015 C 
ATOM      5  C   UNL     1      36.729 -19.266 -20.836  0.00  0.00    -0.077 C 
ATOM      6  C   UNL     1      34.435 -19.917 -21.243  0.00  0.00    -0.077 C 
ATOM      7  H   UNL     1      36.080 -21.087 -21.465  0.00  0.00    -0.080 HD
ENDROOT
BRANCH   2   9
ATOM      8  O   UNL     1      35.027 -16.792 -21.067  0.00  0.00    -0.291 OA
ATOM      9  C   UNL     1      35.031 -16.982 -22.281  0.00  0.00    +0.172 C 
BRANCH   9  11
ATOM     10  F   UNL     1      33.195 -13.001 -25.738  0.00  0.00    -0.204 F 
ATOM     11  C   UNL     1      34.542 -15.919 -23.204  0.00  0.00    +0.035 C 
ATOM     12  C   UNL     1      34.271 -16.252 -24.512  0.00  0.00    +0.005 C 
ATOM     13  C   UNL     1      34.376 -14.643 -22.713  0.00  0.00    +0.005 C 
ATOM     14  C   UNL     1      33.812 -15.258 -25.376  0.00  0.00    +0.030 C 
ATOM     15  C   UNL     1      33.917 -13.648 -23.577  0.00  0.00    +0.030 C 
ATOM     16  C   UNL     1      33.635 -13.955 -24.908  0.00  0.00    +0.140 C 
ENDBRANCH   9  11
ENDBRANCH   2   9
BRANCH   1  17
ATOM     17  C   UNL     1      35.690 -20.958 -19.472  0.00  0.00    -0.052 C 
BRANCH  17  18
ATOM     18  C   UNL     1      35.175 -22.388 -19.549  0.00  0.00    +0.091 C 
BRANCH  18  21
ATOM     19  O   UNL     1      35.755 -23.175 -16.955  0.00  0.00    -0.267 OA
ATOM     20  O   UNL     1      32.429 -22.087 -20.054  0.00  0.00    -0.246 OA
ATOM     21  N   UNL     1      34.153 -22.626 -18.567  0.00  0.00    -0.251 N 
ATOM     22  N   UNL     1      31.856 -22.691 -17.936  0.00  0.00    -0.306 N 
ATOM     23  C   UNL     1      34.578 -23.026 -17.275  0.00  0.00    +0.265 A 
ATOM     24  C   UNL     1      32.790 -22.444 -18.929  0.00  0.00    +0.330 A 
ATOM     25  C   UNL     1      33.519 -23.269 -16.276  0.00  0.00    +0.072 A 
ATOM     26  C   UNL     1      32.187 -23.094 -16.639  0.00  0.00    +0.065 A 
ATOM     27  C   UNL     1      33.843 -23.672 -14.977  0.00  0.00    +0.006 C 
ATOM     28  C   UNL     1      31.170 -23.319 -15.708  0.00  0.00    +0.017 C 
ATOM     29  C   UNL     1      32.827 -23.898 -14.047  0.00  0.00    +0.000 C 
ATOM     30  C   UNL     1      31.493 -23.721 -14.412  0.00  0.00    +0.001 C 
ATOM     31  H   UNL     1      30.903 -22.575 -18.156  0.00  0.00    +0.170 HD
ENDBRANCH  18  21
ENDBRANCH  17  18
ENDBRANCH   1  17
TORSDOF 5
ENDMDL
MODEL 2
REMARK VINA RESULT:     -11.6      0.679      1.818
REMARK  Name = 3822
REMARK  5 active torsions:
REMARK  status: ('A' for Active; 'I' for Inactive)
REMARK    1  A    between atoms: N_1  and  C_17
REMARK    2  A    between atoms: C_2  and  C_9
REMARK    3  A    between atoms: C_9  and  C_11
REMARK    4  A    between atoms: C_17  and  C_18
REMARK    5  A    between atoms: C_18  and  N_21
REMARK                            x       y       z     vdW  Elec       q    Type
REMARK                         _______ _______ _______ _____ _____    ______ ____
ROOT
ATOM      1  N   UNL     1      35.827 -20.379 -20.832  0.00  0.00    +0.388 N 
ATOM      2  C   UNL     1      35.508 -18.283 -22.865  0.00  0.00    +0.058 C 
ATOM      3  C   UNL     1      36.872 -18.676 -22.298  0.00  0.00    -0.015 C 
ATOM      4  C   UNL     1      34.472 -19.385 -22.648  0.00  0.00    -0.015 C 
ATOM      5  C   UNL     1      36.786 -19.267 -20.888  0.00  0.00    -0.077 C 
ATOM      6  C   UNL     1      34.484 -19.932 -21.218  0.00  0.00    -0.077 C 
ATOM      7  H   UNL     1      36.128 -21.091 -21.498  0.00  0.00    -0.080 HD
ENDROOT
BRANCH   2   9
ATOM      8  O   UNL     1      35.036 -16.814 -21.055  0.00  0.00    -0.291 OA
ATOM      9  C   UNL     1      35.025 -16.992 -22.270  0.00  0.00    +0.172 C 
BRANCH   9  11
ATOM     10  F   UNL     1      33.156 -12.971 -25.665  0.00  0.00    -0.204 F 
ATOM     11  C   UNL     1      34.526 -15.919 -23.177  0.00  0.00    +0.035 C 
ATOM     12  C   UNL     1      34.299 -16.223 -24.500  0.00  0.00    +0.005 C 
ATOM     13  C   UNL     1      34.310 -14.662 -22.656  0.00  0.00    +0.005 C 
ATOM     14  C   UNL     1      33.832 -15.219 -25.348  0.00  0.00    +0.030 C 
ATOM     15  C   UNL     1      33.843 -13.657 -23.504  0.00  0.00    +0.030 C 
ATOM     16  C   UNL     1      33.605 -13.935 -24.850  0.00  0.00    +0.140 C 
ENDBRANCH   9  11
ENDBRANCH   2   9
BRANCH   1  17
ATOM     17  C   UNL     1      35.806 -20.968 -19.493  0.00  0.00    -0.052 C 
BRANCH  17  18
ATOM     18  C   UNL     1      35.138 -22.334 -19.527  0.00  0.00    +0.091 C 
BRANCH  18  21
ATOM     19  O   UNL     1      32.379 -22.501 -19.308  0.00  0.00    -0.267 OA
ATOM     20  O   UNL     1      36.497 -22.797 -17.113  0.00  0.00    -0.246 OA
ATOM     21  N   UNL     1      34.478 -22.622 -18.284  0.00  0.00    -0.251 N 
ATOM     22  N   UNL     1      34.564 -23.112 -15.953  0.00  0.00    -0.306 N 
ATOM     23  C   UNL     1      33.062 -22.679 -18.301  0.00  0.00    +0.265 A 
ATOM     24  C   UNL     1      35.263 -22.840 -17.118  0.00  0.00    +0.330 A 
ATOM     25  C   UNL     1      32.396 -22.974 -17.018  0.00  0.00    +0.072 A 
ATOM     26  C   UNL     1      33.171 -23.182 -15.881  0.00  0.00    +0.065 A 
ATOM     27  C   UNL     1      31.002 -23.045 -16.938  0.00  0.00    +0.006 C 
ATOM     28  C   UNL     1      32.559 -23.461 -14.656  0.00  0.00    +0.017 C 
ATOM     29  C   UNL     1      30.390 -23.324 -15.714  0.00  0.00    +0.000 C 
ATOM     30  C   UNL     1      31.168 -23.533 -14.575  0.00  0.00    +0.001 C 
ATOM     31  H   UNL     1      35.080 -23.266 -15.129  0.00  0.00    +0.170 HD
ENDBRANCH  18  21
ENDBRANCH  17  18
ENDBRANCH   1  17
TORSDOF 5
ENDMDL
MODEL 3
REMARK VINA RESULT:     -11.2      6.322      9.907
REMARK  Name = 3822
REMARK  5 active torsions:
REMARK  status: ('A' for Active; 'I' for Inactive)
REMARK    1  A    between atoms: N_1  and  C_17
REMARK    2  A    between atoms: C_2  and  C_9
REMARK    3  A    between atoms: C_9  and  C_11
REMARK    4  A    between atoms: C_17  and  C_18
REMARK    5  A    between atoms: C_18  and  N_21
REMARK                            x       y       z     vdW  Elec       q    Type
REMARK                         _______ _______ _______ _____ _____    ______ ____
ROOT
ATOM      1  N   UNL     1      31.531 -11.114 -21.880  0.00  0.00    +0.388 N 
ATOM      2  C   UNL     1      31.396  -8.195 -21.581  0.00  0.00    +0.058 C 
ATOM      3  C   UNL     1      31.235  -8.891 -22.933  0.00  0.00    -0.015 C 
ATOM      4  C   UNL     1      31.132  -9.155 -20.423  0.00  0.00    -0.015 C 
ATOM      5  C   UNL     1      31.940 -10.249 -22.994  0.00  0.00    -0.077 C 
ATOM      6  C   UNL     1      31.854 -10.495 -20.589  0.00  0.00    -0.077 C 
ATOM      7  H   UNL     1      30.519 -11.237 -21.929  0.00  0.00    -0.080 HD
ENDROOT
BRANCH   2   9
ATOM      8  O   UNL     1      33.334  -7.556 -20.361  0.00  0.00    -0.291 OA
ATOM      9  C   UNL     1      32.759  -7.580 -21.446  0.00  0.00    +0.172 C 
BRANCH   9  11
ATOM     10  F   UNL     1      35.204  -5.389 -25.962  0.00  0.00    -0.204 F 
ATOM     11  C   UNL     1      33.412  -6.995 -22.651  0.00  0.00    +0.035 C 
ATOM     12  C   UNL     1      34.542  -7.603 -23.152  0.00  0.00    +0.005 C 
ATOM     13  C   UNL     1      32.861  -5.869 -23.220  0.00  0.00    +0.005 C 
ATOM     14  C   UNL     1      35.152  -7.055 -24.280  0.00  0.00    +0.030 C 
ATOM     15  C   UNL     1      33.472  -5.321 -24.348  0.00  0.00    +0.030 C 
ATOM     16  C   UNL     1      34.617  -5.914 -24.878  0.00  0.00    +0.140 C 
ENDBRANCH   9  11
ENDBRANCH   2   9
BRANCH   1  17
ATOM     17  C   UNL     1      32.168 -12.427 -21.991  0.00  0.00    -0.052 C 
BRANCH  17  18
ATOM     18  C   UNL     1      33.192 -12.423 -23.117  0.00  0.00    +0.091 C 
BRANCH  18  21
ATOM     19  O   UNL     1      34.319 -14.166 -21.279  0.00  0.00    -0.267 OA
ATOM     20  O   UNL     1      32.891 -13.522 -25.684  0.00  0.00    -0.246 OA
ATOM     21  N   UNL     1      33.589 -13.760 -23.463  0.00  0.00    -0.251 N 
ATOM     22  N   UNL     1      33.799 -15.514 -25.062  0.00  0.00    -0.306 N 
ATOM     23  C   UNL     1      34.156 -14.553 -22.434  0.00  0.00    +0.265 A 
ATOM     24  C   UNL     1      33.392 -14.217 -24.796  0.00  0.00    +0.330 A 
ATOM     25  C   UNL     1      34.562 -15.924 -22.803  0.00  0.00    +0.072 A 
ATOM     26  C   UNL     1      34.370 -16.362 -24.110  0.00  0.00    +0.065 A 
ATOM     27  C   UNL     1      35.133 -16.777 -21.855  0.00  0.00    +0.006 C 
ATOM     28  C   UNL     1      34.748 -17.656 -24.479  0.00  0.00    +0.017 C 
ATOM     29  C   UNL     1      35.512 -18.070 -22.224  0.00  0.00    +0.000 C 
ATOM     30  C   UNL     1      35.319 -18.508 -23.534  0.00  0.00    +0.001 C 
ATOM     31  H   UNL     1      33.676 -15.859 -25.977  0.00  0.00    +0.170 HD
ENDBRANCH  18  21
ENDBRANCH  17  18
ENDBRANCH   1  17
TORSDOF 5
ENDMDL
MODEL 4
REMARK VINA RESULT:     -11.0      4.850     10.690
REMARK  Name = 3822
REMARK  5 active torsions:
REMARK  status: ('A' for Active; 'I' for Inactive)
REMARK    1  A    between atoms: N_1  and  C_17
REMARK    2  A    between atoms: C_2  and  C_9
REMARK    3  A    between atoms: C_9  and  C_11
REMARK    4  A    between atoms: C_17  and  C_18
REMARK    5  A    between atoms: C_18  and  N_21
REMARK                            x       y       z     vdW  Elec       q    Type
REMARK                         _______ _______ _______ _____ _____    ______ ____
ROOT
ATOM      1  N   UNL     1      34.498 -15.195 -22.490  0.00  0.00    +0.388 N 
ATOM      2  C   UNL     1      35.399 -17.915 -23.135  0.00  0.00    +0.058 C 
ATOM      3  C   UNL     1      35.085 -16.877 -24.212  0.00  0.00    -0.015 C 
ATOM      4  C   UNL     1      35.671 -17.256 -21.784  0.00  0.00    -0.015 C 
ATOM      5  C   UNL     1      34.076 -15.822 -23.749  0.00  0.00    -0.077 C 
ATOM      6  C   UNL     1      34.627 -16.195 -21.423  0.00  0.00    -0.077 C 
ATOM      7  H   UNL     1      35.414 -14.770 -22.638  0.00  0.00    -0.080 HD
ENDROOT
BRANCH   2   9
ATOM      8  O   UNL     1      33.415 -19.004 -23.866  0.00  0.00    -0.291 OA
ATOM      9  C   UNL     1      34.290 -18.920 -23.008  0.00  0.00    +0.172 C 
BRANCH   9  11
ATOM     10  F   UNL     1      34.186 -22.298 -18.564  0.00  0.00    -0.204 F 
ATOM     11  C   UNL     1      34.262 -19.821 -21.822  0.00  0.00    +0.035 C 
ATOM     12  C   UNL     1      33.045 -20.142 -21.263  0.00  0.00    +0.005 C 
ATOM     13  C   UNL     1      35.455 -20.301 -21.329  0.00  0.00    +0.005 C 
ATOM     14  C   UNL     1      33.019 -20.986 -20.153  0.00  0.00    +0.030 C 
ATOM     15  C   UNL     1      35.429 -21.145 -20.218  0.00  0.00    +0.030 C 
ATOM     16  C   UNL     1      34.211 -21.488 -19.630  0.00  0.00    +0.140 C 
ENDBRANCH   9  11
ENDBRANCH   2   9
BRANCH   1  17
ATOM     17  C   UNL     1      33.553 -14.149 -22.098  0.00  0.00    -0.052 C 
BRANCH  17  18
ATOM     18  C   UNL     1      32.831 -13.604 -23.321  0.00  0.00    +0.091 C 
BRANCH  18  21
ATOM     19  O   UNL     1      31.356 -11.998 -21.610  0.00  0.00    -0.267 OA
ATOM     20  O   UNL     1      34.448 -12.167 -25.112  0.00  0.00    -0.246 OA
ATOM     21  N   UNL     1      32.891 -12.169 -23.365  0.00  0.00    -0.251 N 
ATOM     22  N   UNL     1      33.754 -10.155 -24.303  0.00  0.00    -0.306 N 
ATOM     23  C   UNL     1      32.087 -11.459 -22.438  0.00  0.00    +0.265 A 
ATOM     24  C   UNL     1      33.745 -11.541 -24.314  0.00  0.00    +0.330 A 
ATOM     25  C   UNL     1      32.156  -9.986 -22.494  0.00  0.00    +0.072 A 
ATOM     26  C   UNL     1      32.990  -9.379 -23.429  0.00  0.00    +0.065 A 
ATOM     27  C   UNL     1      31.395  -9.203 -21.622  0.00  0.00    +0.006 C 
ATOM     28  C   UNL     1      33.069  -7.985 -23.498  0.00  0.00    +0.017 C 
ATOM     29  C   UNL     1      31.473  -7.811 -21.692  0.00  0.00    +0.000 C 
ATOM     30  C   UNL     1      32.309  -7.203 -22.628  0.00  0.00    +0.001 C 
ATOM     31  H   UNL     1      34.334  -9.692 -24.950  0.00  0.00    +0.170 HD
ENDBRANCH  18  21
ENDBRANCH  17  18
ENDBRANCH   1  17
TORSDOF 5
ENDMDL
MODEL 5
REMARK VINA RESULT:     -11.0      4.757     10.919
REMARK  Name = 3822
REMARK  5 active torsions:
REMARK  status: ('A' for Active; 'I' for Inactive)
REMARK    1  A    between atoms: N_1  and  C_17
REMARK    2  A    between atoms: C_2  and  C_9
REMARK    3  A    between atoms: C_9  and  C_11
REMARK    4  A    between atoms: C_17  and  C_18
REMARK    5  A    between atoms: C_18  and  N_21
REMARK                            x       y       z     vdW  Elec       q    Type
REMARK                         _______ _______ _______ _____ _____    ______ ____
ROOT
ATOM      1  N   UNL     1      34.472 -15.139 -22.436  0.00  0.00    +0.388 N 
ATOM      2  C   UNL     1      35.399 -17.836 -23.138  0.00  0.00    +0.058 C 
ATOM      3  C   UNL     1      35.093 -16.772 -24.192  0.00  0.00    -0.015 C 
ATOM      4  C   UNL     1      35.648 -17.210 -21.767  0.00  0.00    -0.015 C 
ATOM      5  C   UNL     1      34.071 -15.736 -23.716  0.00  0.00    -0.077 C 
ATOM      6  C   UNL     1      34.593 -16.165 -21.394  0.00  0.00    -0.077 C 
ATOM      7  H   UNL     1      35.387 -14.704 -22.560  0.00  0.00    -0.080 HD
ENDROOT
BRANCH   2   9
ATOM      8  O   UNL     1      33.447 -18.934 -23.937  0.00  0.00    -0.291 OA
ATOM      9  C   UNL     1      34.295 -18.850 -23.053  0.00  0.00    +0.172 C 
BRANCH   9  11
ATOM     10  F   UNL     1      34.087 -22.267 -18.642  0.00  0.00    -0.204 F 
ATOM     11  C   UNL     1      34.239 -19.762 -21.875  0.00  0.00    +0.035 C 
ATOM     12  C   UNL     1      33.013 -20.049 -21.318  0.00  0.00    +0.005 C 
ATOM     13  C   UNL     1      35.417 -20.285 -21.389  0.00  0.00    +0.005 C 
ATOM     14  C   UNL     1      32.961 -20.902 -20.216  0.00  0.00    +0.030 C 
ATOM     15  C   UNL     1      35.365 -21.139 -20.287  0.00  0.00    +0.030 C 
ATOM     16  C   UNL     1      34.137 -21.448 -19.700  0.00  0.00    +0.140 C 
ENDBRANCH   9  11
ENDBRANCH   2   9
BRANCH   1  17
ATOM     17  C   UNL     1      33.515 -14.109 -22.030  0.00  0.00    -0.052 C 
BRANCH  17  18
ATOM     18  C   UNL     1      32.747 -13.597 -23.239  0.00  0.00    +0.091 C 
BRANCH  18  21
ATOM     19  O   UNL     1      34.486 -12.372 -25.017  0.00  0.00    -0.267 OA
ATOM     20  O   UNL     1      31.218 -11.792 -21.724  0.00  0.00    -0.246 OA
ATOM     21  N   UNL     1      32.852 -12.168 -23.357  0.00  0.00    -0.251 N 
ATOM     22  N   UNL     1      32.183  -9.977 -22.702  0.00  0.00    -0.306 N 
ATOM     23  C   UNL     1      33.781 -11.664 -24.301  0.00  0.00    +0.265 A 
ATOM     24  C   UNL     1      32.030 -11.344 -22.539  0.00  0.00    +0.330 A 
ATOM     25  C   UNL     1      33.882 -10.196 -24.411  0.00  0.00    +0.072 A 
ATOM     26  C   UNL     1      33.077  -9.396 -23.605  0.00  0.00    +0.065 A 
ATOM     27  C   UNL     1      34.774  -9.608 -25.313  0.00  0.00    +0.006 C 
ATOM     28  C   UNL     1      33.158  -8.004 -23.693  0.00  0.00    +0.017 C 
ATOM     29  C   UNL     1      34.855  -8.216 -25.401  0.00  0.00    +0.000 C 
ATOM     30  C   UNL     1      34.047  -7.416 -24.593  0.00  0.00    +0.001 C 
ATOM     31  H   UNL     1      31.628  -9.380 -22.149  0.00  0.00    +0.170 HD
ENDBRANCH  18  21
ENDBRANCH  17  18
ENDBRANCH   1  17
TORSDOF 5
ENDMDL
MODEL 6
REMARK VINA RESULT:     -10.6      6.209     10.142
REMARK  Name = 3822
REMARK  5 active torsions:
REMARK  status: ('A' for Active; 'I' for Inactive)
REMARK    1  A    between atoms: N_1  and  C_17
REMARK    2  A    between atoms: C_2  and  C_9
REMARK    3  A    between atoms: C_9  and  C_11
REMARK    4  A    between atoms: C_17  and  C_18
REMARK    5  A    between atoms: C_18  and  N_21
REMARK                            x       y       z     vdW  Elec       q    Type
REMARK                         _______ _______ _______ _____ _____    ______ ____
ROOT
ATOM      1  N   UNL     1      34.311 -11.224 -24.399  0.00  0.00    +0.388 N 
ATOM      2  C   UNL     1      33.647  -8.416 -23.852  0.00  0.00    +0.058 C 
ATOM      3  C   UNL     1      32.918  -9.578 -23.179  0.00  0.00    -0.015 C 
ATOM      4  C   UNL     1      35.006  -8.850 -24.401  0.00  0.00    -0.015 C 
ATOM      5  C   UNL     1      32.941 -10.861 -24.014  0.00  0.00    -0.077 C 
ATOM      6  C   UNL     1      34.932 -10.157 -25.194  0.00  0.00    -0.077 C 
ATOM      7  H   UNL     1      34.859 -11.344 -23.547  0.00  0.00    -0.080 HD
ENDROOT
BRANCH   2   9
ATOM      8  O   UNL     1      32.415  -8.494 -25.885  0.00  0.00    -0.291 OA
ATOM      9  C   UNL     1      32.814  -7.811 -24.945  0.00  0.00    +0.172 C 
BRANCH   9  11
ATOM     10  F   UNL     1      31.533  -2.382 -24.694  0.00  0.00    -0.204 F 
ATOM     11  C   UNL     1      32.473  -6.362 -24.878  0.00  0.00    +0.035 C 
ATOM     12  C   UNL     1      33.447  -5.438 -25.183  0.00  0.00    +0.005 C 
ATOM     13  C   UNL     1      31.194  -6.001 -24.514  0.00  0.00    +0.005 C 
ATOM     14  C   UNL     1      33.126  -4.082 -25.120  0.00  0.00    +0.030 C 
ATOM     15  C   UNL     1      30.874  -4.645 -24.452  0.00  0.00    +0.030 C 
ATOM     16  C   UNL     1      31.840  -3.685 -24.754  0.00  0.00    +0.140 C 
ENDBRANCH   9  11
ENDBRANCH   2   9
BRANCH   1  17
ATOM     17  C   UNL     1      34.317 -12.484 -25.143  0.00  0.00    -0.052 C 
BRANCH  17  18
ATOM     18  C   UNL     1      33.201 -13.394 -24.649  0.00  0.00    +0.091 C 
BRANCH  18  21
ATOM     19  O   UNL     1      33.417 -15.857 -25.902  0.00  0.00    -0.267 OA
ATOM     20  O   UNL     1      34.126 -13.387 -21.997  0.00  0.00    -0.246 OA
ATOM     21  N   UNL     1      33.731 -14.554 -23.986  0.00  0.00    -0.251 N 
ATOM     22  N   UNL     1      34.669 -15.596 -22.060  0.00  0.00    -0.306 N 
ATOM     23  C   UNL     1      33.787 -15.756 -24.735  0.00  0.00    +0.265 A 
ATOM     24  C   UNL     1      34.171 -14.440 -22.639  0.00  0.00    +0.330 A 
ATOM     25  C   UNL     1      34.331 -16.941 -24.043  0.00  0.00    +0.072 A 
ATOM     26  C   UNL     1      34.756 -16.823 -22.723  0.00  0.00    +0.065 A 
ATOM     27  C   UNL     1      34.421 -18.172 -24.700  0.00  0.00    +0.006 C 
ATOM     28  C   UNL     1      35.273 -17.934 -22.050  0.00  0.00    +0.017 C 
ATOM     29  C   UNL     1      34.937 -19.281 -24.027  0.00  0.00    +0.000 C 
ATOM     30  C   UNL     1      35.363 -19.161 -22.705  0.00  0.00    +0.001 C 
ATOM     31  H   UNL     1      34.981 -15.550 -21.127  0.00  0.00    +0.170 HD
ENDBRANCH  18  21
ENDBRANCH  17  18
ENDBRANCH   1  17
TORSDOF 5
ENDMDL
MODEL 7
REMARK VINA RESULT:     -10.5      6.078      9.454
REMARK  Name = 3822
REMARK  5 active torsions:
REMARK  status: ('A' for Active; 'I' for Inactive)
REMARK    1  A    between atoms: N_1  and  C_17
REMARK    2  A    between atoms: C_2  and  C_9
REMARK    3  A    between atoms: C_9  and  C_11
REMARK    4  A    between atoms: C_17  and  C_18
REMARK    5  A    between atoms: C_18  and  N_21
REMARK                            x       y       z     vdW  Elec       q    Type
REMARK                         _______ _______ _______ _____ _____    ______ ____
ROOT
ATOM      1  N   UNL     1      34.337 -11.702 -25.748  0.00  0.00    +0.388 N 
ATOM      2  C   UNL     1      34.205  -8.811 -25.250  0.00  0.00    +0.058 C 
ATOM      3  C   UNL     1      34.822  -9.788 -24.250  0.00  0.00    -0.015 C 
ATOM      4  C   UNL     1      34.147  -9.409 -26.655  0.00  0.00    -0.015 C 
ATOM      5  C   UNL     1      34.249 -11.204 -24.369  0.00  0.00    -0.077 C 
ATOM      6  C   UNL     1      33.590 -10.835 -26.667  0.00  0.00    -0.077 C 
ATOM      7  H   UNL     1      35.318 -11.691 -26.027  0.00  0.00    -0.080 HD
ENDROOT
BRANCH   2   9
ATOM      8  O   UNL     1      32.005  -7.992 -25.632  0.00  0.00    -0.291 OA
ATOM      9  C   UNL     1      32.836  -8.377 -24.813  0.00  0.00    +0.172 C 
BRANCH   9  11
ATOM     10  F   UNL     1      31.552  -8.530 -19.381  0.00  0.00    -0.204 F 
ATOM     11  C   UNL     1      32.493  -8.418 -23.363  0.00  0.00    +0.035 C 
ATOM     12  C   UNL     1      31.622  -9.385 -22.917  0.00  0.00    +0.005 C 
ATOM     13  C   UNL     1      33.062  -7.486 -22.523  0.00  0.00    +0.005 C 
ATOM     14  C   UNL     1      31.301  -9.424 -21.560  0.00  0.00    +0.030 C 
ATOM     15  C   UNL     1      32.741  -7.524 -21.166  0.00  0.00    +0.030 C 
ATOM     16  C   UNL     1      31.860  -8.493 -20.684  0.00  0.00    +0.140 C 
ENDBRANCH   9  11
ENDBRANCH   2   9
BRANCH   1  17
ATOM     17  C   UNL     1      33.842 -13.077 -25.826  0.00  0.00    -0.052 C 
BRANCH  17  18
ATOM     18  C   UNL     1      33.098 -13.445 -24.551  0.00  0.00    +0.091 C 
BRANCH  18  21
ATOM     19  O   UNL     1      33.365 -15.872 -25.864  0.00  0.00    -0.267 OA
ATOM     20  O   UNL     1      34.076 -13.467 -21.919  0.00  0.00    -0.246 OA
ATOM     21  N   UNL     1      33.677 -14.602 -23.926  0.00  0.00    -0.251 N 
ATOM     22  N   UNL     1      34.687 -15.656 -22.042  0.00  0.00    -0.306 N 
ATOM     23  C   UNL     1      33.755 -15.785 -24.702  0.00  0.00    +0.265 A 
ATOM     24  C   UNL     1      34.141 -14.503 -22.585  0.00  0.00    +0.330 A 
ATOM     25  C   UNL     1      34.350 -16.967 -24.048  0.00  0.00    +0.072 A 
ATOM     26  C   UNL     1      34.798 -16.864 -22.734  0.00  0.00    +0.065 A 
ATOM     27  C   UNL     1      34.465 -18.179 -24.734  0.00  0.00    +0.006 C 
ATOM     28  C   UNL     1      35.364 -17.972 -22.097  0.00  0.00    +0.017 C 
ATOM     29  C   UNL     1      35.030 -19.286 -24.097  0.00  0.00    +0.000 C 
ATOM     30  C   UNL     1      35.479 -19.182 -22.781  0.00  0.00    +0.001 C 
ATOM     31  H   UNL     1      35.016 -15.620 -21.115  0.00  0.00    +0.170 HD
ENDBRANCH  18  21
ENDBRANCH  17  18
ENDBRANCH   1  17
TORSDOF 5
ENDMDL
MODEL 8
REMARK VINA RESULT:     -10.5      4.361      9.626
REMARK  Name = 3822
REMARK  5 active torsions:
REMARK  status: ('A' for Active; 'I' for Inactive)
REMARK    1  A    between atoms: N_1  and  C_17
REMARK    2  A    between atoms: C_2  and  C_9
REMARK    3  A    between atoms: C_9  and  C_11
REMARK    4  A    between atoms: C_17  and  C_18
REMARK    5  A    between atoms: C_18  and  N_21
REMARK                            x       y       z     vdW  Elec       q    Type
REMARK                         _______ _______ _______ _____ _____    ______ ____
ROOT
ATOM      1  N   UNL     1      34.609 -16.936 -24.339  0.00  0.00    +0.388 N 
ATOM      2  C   UNL     1      35.119 -19.573 -23.151  0.00  0.00    +0.058 C 
ATOM      3  C   UNL     1      34.376 -19.399 -24.475  0.00  0.00    -0.015 C 
ATOM      4  C   UNL     1      35.956 -18.340 -22.812  0.00  0.00    -0.015 C 
ATOM      5  C   UNL     1      33.677 -18.042 -24.594  0.00  0.00    -0.077 C 
ATOM      6  C   UNL     1      35.180 -17.032 -22.991  0.00  0.00    -0.077 C 
ATOM      7  H   UNL     1      35.372 -17.002 -25.013  0.00  0.00    -0.080 HD
ENDROOT
BRANCH   2   9
ATOM      8  O   UNL     1      32.992 -19.528 -22.088  0.00  0.00    -0.291 OA
ATOM      9  C   UNL     1      34.168 -19.878 -22.030  0.00  0.00    +0.172 C 
BRANCH   9  11
ATOM     10  F   UNL     1      36.046 -22.650 -17.562  0.00  0.00    -0.204 F 
ATOM     11  C   UNL     1      34.669 -20.618 -20.837  0.00  0.00    +0.035 C 
ATOM     12  C   UNL     1      33.772 -21.340 -20.082  0.00  0.00    +0.005 C 
ATOM     13  C   UNL     1      36.011 -20.553 -20.535  0.00  0.00    +0.005 C 
ATOM     14  C   UNL     1      34.242 -22.033 -18.965  0.00  0.00    +0.030 C 
ATOM     15  C   UNL     1      36.481 -21.245 -19.419  0.00  0.00    +0.030 C 
ATOM     16  C   UNL     1      35.596 -21.985 -18.633  0.00  0.00    +0.140 C 
ENDBRANCH   9  11
ENDBRANCH   2   9
BRANCH   1  17
ATOM     17  C   UNL     1      33.936 -15.649 -24.518  0.00  0.00    -0.052 C 
BRANCH  17  18
ATOM     18  C   UNL     1      34.749 -14.534 -23.878  0.00  0.00    +0.091 C 
BRANCH  18  21
ATOM     19  O   UNL     1      33.415 -14.471 -21.448  0.00  0.00    -0.267 OA
ATOM     20  O   UNL     1      34.315 -12.260 -25.468  0.00  0.00    -0.246 OA
ATOM     21  N   UNL     1      33.908 -13.436 -23.486  0.00  0.00    -0.251 N 
ATOM     22  N   UNL     1      32.932 -11.308 -23.931  0.00  0.00    -0.306 N 
ATOM     23  C   UNL     1      33.279 -13.523 -22.219  0.00  0.00    +0.265 A 
ATOM     24  C   UNL     1      33.757 -12.331 -24.369  0.00  0.00    +0.330 A 
ATOM     25  C   UNL     1      32.417 -12.390 -21.829  0.00  0.00    +0.072 A 
ATOM     26  C   UNL     1      32.271 -11.315 -22.700  0.00  0.00    +0.065 A 
ATOM     27  C   UNL     1      31.752 -12.391 -20.599  0.00  0.00    +0.006 C 
ATOM     28  C   UNL     1      31.458 -10.233 -22.350  0.00  0.00    +0.017 C 
ATOM     29  C   UNL     1      30.940 -11.310 -20.249  0.00  0.00    +0.000 C 
ATOM     30  C   UNL     1      30.795 -10.233 -21.123  0.00  0.00    +0.001 C 
ATOM     31  H   UNL     1      32.807 -10.530 -24.521  0.00  0.00    +0.170 HD
ENDBRANCH  18  21
ENDBRANCH  17  18
ENDBRANCH   1  17
TORSDOF 5
ENDMDL
MODEL 9
REMARK VINA RESULT:     -10.4      4.700     10.188
REMARK  Name = 3822
REMARK  5 active torsions:
REMARK  status: ('A' for Active; 'I' for Inactive)
REMARK    1  A    between atoms: N_1  and  C_17
REMARK    2  A    between atoms: C_2  and  C_9
REMARK    3  A    between atoms: C_9  and  C_11
REMARK    4  A    between atoms: C_17  and  C_18
REMARK    5  A    between atoms: C_18  and  N_21
REMARK                            x       y       z     vdW  Elec       q    Type
REMARK                         _______ _______ _______ _____ _____    ______ ____
ROOT
ATOM      1  N   UNL     1      34.115 -23.227 -14.243  0.00  0.00    +0.388 N 
ATOM      2  C   UNL     1      36.077 -23.828 -12.141  0.00  0.00    +0.058 C 
ATOM      3  C   UNL     1      36.426 -23.000 -13.378  0.00  0.00    -0.015 C 
ATOM      4  C   UNL     1      34.569 -23.856 -11.894  0.00  0.00    -0.015 C 
ATOM      5  C   UNL     1      35.540 -23.326 -14.584  0.00  0.00    -0.077 C 
ATOM      6  C   UNL     1      33.769 -24.159 -13.163  0.00  0.00    -0.077 C 
ATOM      7  H   UNL     1      33.932 -22.279 -13.914  0.00  0.00    -0.080 HD
ENDROOT
BRANCH   2   9
ATOM      8  O   UNL     1      36.189 -26.123 -11.529  0.00  0.00    -0.291 OA
ATOM      9  C   UNL     1      36.612 -25.226 -12.254  0.00  0.00    +0.172 C 
BRANCH   9  11
ATOM     10  F   UNL     1      40.575 -26.318 -16.032  0.00  0.00    -0.204 F 
ATOM     11  C   UNL     1      37.670 -25.517 -13.262  0.00  0.00    +0.035 C 
ATOM     12  C   UNL     1      38.924 -24.980 -13.079  0.00  0.00    +0.005 C 
ATOM     13  C   UNL     1      37.354 -26.314 -14.340  0.00  0.00    +0.005 C 
ATOM     14  C   UNL     1      39.914 -25.253 -14.023  0.00  0.00    +0.030 C 
ATOM     15  C   UNL     1      38.344 -26.587 -15.284  0.00  0.00    +0.030 C 
ATOM     16  C   UNL     1      39.624 -26.057 -15.126  0.00  0.00    +0.140 C 
ENDBRANCH   9  11
ENDBRANCH   2   9
BRANCH   1  17
ATOM     17  C   UNL     1      33.288 -23.482 -15.423  0.00  0.00    -0.052 C 
BRANCH  17  18
ATOM     18  C   UNL     1      34.164 -23.840 -16.614  0.00  0.00    +0.091 C 
BRANCH  18  21
ATOM     19  O   UNL     1      36.208 -22.561 -17.982  0.00  0.00    -0.267 OA
ATOM     20  O   UNL     1      31.601 -23.270 -17.613  0.00  0.00    -0.246 OA
ATOM     21  N   UNL     1      33.918 -22.961 -17.724  0.00  0.00    -0.251 N 
ATOM     22  N   UNL     1      32.413 -21.881 -19.223  0.00  0.00    -0.306 N 
ATOM     23  C   UNL     1      35.048 -22.365 -18.339  0.00  0.00    +0.265 A 
ATOM     24  C   UNL     1      32.579 -22.741 -18.149  0.00  0.00    +0.330 A 
ATOM     25  C   UNL     1      34.783 -21.463 -19.476  0.00  0.00    +0.072 A 
ATOM     26  C   UNL     1      33.469 -21.249 -19.883  0.00  0.00    +0.065 A 
ATOM     27  C   UNL     1      35.835 -20.826 -20.142  0.00  0.00    +0.006 C 
ATOM     28  C   UNL     1      33.198 -20.397 -20.958  0.00  0.00    +0.017 C 
ATOM     29  C   UNL     1      35.563 -19.976 -21.215  0.00  0.00    +0.000 C 
ATOM     30  C   UNL     1      34.246 -19.762 -21.622  0.00  0.00    +0.001 C 
ATOM     31  H   UNL     1      31.497 -21.708 -19.540  0.00  0.00    +0.170 HD
ENDBRANCH  18  21
ENDBRANCH  17  18
ENDBRANCH   1  17
TORSDOF 5
ENDMDL
