MODEL 1
REMARK VINA RESULT:     -11.6      0.000      0.000
REMARK  Name = 10401956
REMARK  3 active torsions:
REMARK  status: ('A' for Active; 'I' for Inactive)
REMARK    1  A    between atoms: N_1  and  C_13
REMARK    2  A    between atoms: C_8  and  N_20
REMARK    3  A    between atoms: C_21  and  C_23
REMARK                            x       y       z     vdW  Elec       q    Type
REMARK                         _______ _______ _______ _____ _____    ______ ____
ROOT
ATOM      1  N   UNL     1      32.622 -22.386 -18.629  0.00  0.00    -0.301 N 
ATOM      2  N   UNL     1      33.473 -24.418 -15.125  0.00  0.00    -0.248 NA
ATOM      3  N   UNL     1      34.159 -23.515 -17.251  0.00  0.00    -0.233 NA
ATOM      4  C   UNL     1      31.874 -23.274 -16.499  0.00  0.00    +0.117 C 
ATOM      5  C   UNL     1      32.221 -23.970 -15.330  0.00  0.00    +0.067 C 
ATOM      6  C   UNL     1      32.896 -23.080 -17.424  0.00  0.00    +0.115 C 
ATOM      7  C   UNL     1      30.563 -22.810 -16.703  0.00  0.00    +0.001 C 
ATOM      8  C   UNL     1      29.587 -23.038 -15.738  0.00  0.00    +0.047 C 
ATOM      9  C   UNL     1      31.225 -24.184 -14.381  0.00  0.00    +0.016 C 
ATOM     10  C   UNL     1      29.918 -23.726 -14.575  0.00  0.00    +0.016 C 
ATOM     11  C   UNL     1      34.373 -24.166 -16.097  0.00  0.00    +0.251 C 
ATOM     12  H   UNL     1      31.680 -22.381 -18.917  0.00  0.00    +0.153 HD
ENDROOT
BRANCH   1  13
ATOM     13  C   UNL     1      33.509 -21.715 -19.451  0.00  0.00    +0.049 C 
ATOM     14  C   UNL     1      34.889 -21.993 -19.409  0.00  0.00    +0.015 C 
ATOM     15  C   UNL     1      33.057 -20.732 -20.353  0.00  0.00    +0.015 C 
ATOM     16  C   UNL     1      35.783 -21.315 -20.237  0.00  0.00    +0.001 C 
ATOM     17  C   UNL     1      33.953 -20.053 -21.181  0.00  0.00    +0.001 C 
ATOM     18  C   UNL     1      35.316 -20.345 -21.123  0.00  0.00    +0.000 C 
ENDBRANCH   1  13
BRANCH   8  20
ATOM     19  O   UNL     1      27.653 -23.573 -17.972  0.00  0.00    -0.270 OA
ATOM     20  N   UNL     1      28.284 -22.580 -15.934  0.00  0.00    -0.281 N 
ATOM     21  C   UNL     1      27.420 -22.863 -17.002  0.00  0.00    +0.250 C 
ATOM     22  H   UNL     1      27.927 -21.984 -15.236  0.00  0.00    +0.155 HD
BRANCH  21  23
ATOM     23  C   UNL     1      26.106 -22.176 -16.843  0.00  0.00    +0.058 C 
ATOM     24  C   UNL     1      25.654 -21.347 -17.789  0.00  0.00    +0.005 C 
ENDBRANCH  21  23
ENDBRANCH   8  20
TORSDOF 3
ENDMDL
MODEL 2
REMARK VINA RESULT:     -10.3      1.233      1.807
REMARK  Name = 10401956
REMARK  3 active torsions:
REMARK  status: ('A' for Active; 'I' for Inactive)
REMARK    1  A    between atoms: N_1  and  C_13
REMARK    2  A    between atoms: C_8  and  N_20
REMARK    3  A    between atoms: C_21  and  C_23
REMARK                            x       y       z     vdW  Elec       q    Type
REMARK                         _______ _______ _______ _____ _____    ______ ____
ROOT
ATOM      1  N   UNL     1      33.643 -22.618 -18.348  0.00  0.00    -0.301 N 
ATOM      2  N   UNL     1      35.152 -23.954 -14.733  0.00  0.00    -0.248 NA
ATOM      3  N   UNL     1      35.482 -23.097 -16.961  0.00  0.00    -0.233 NA
ATOM      4  C   UNL     1      33.250 -23.479 -16.115  0.00  0.00    +0.117 C 
ATOM      5  C   UNL     1      33.820 -23.923 -14.910  0.00  0.00    +0.067 C 
ATOM      6  C   UNL     1      34.143 -23.078 -17.105  0.00  0.00    +0.115 C 
ATOM      7  C   UNL     1      31.855 -23.451 -16.288  0.00  0.00    +0.001 C 
ATOM      8  C   UNL     1      31.017 -23.867 -15.258  0.00  0.00    +0.047 C 
ATOM      9  C   UNL     1      32.957 -24.333 -13.896  0.00  0.00    +0.016 C 
ATOM     10  C   UNL     1      31.569 -24.308 -14.061  0.00  0.00    +0.016 C 
ATOM     11  C   UNL     1      35.910 -23.539 -15.768  0.00  0.00    +0.251 C 
ATOM     12  H   UNL     1      32.737 -22.923 -18.586  0.00  0.00    +0.153 HD
ENDROOT
BRANCH   1  13
ATOM     13  C   UNL     1      34.265 -21.795 -19.269  0.00  0.00    +0.049 C 
ATOM     14  C   UNL     1      33.513 -20.978 -20.136  0.00  0.00    +0.015 C 
ATOM     15  C   UNL     1      35.670 -21.750 -19.367  0.00  0.00    +0.015 C 
ATOM     16  C   UNL     1      34.141 -20.149 -21.065  0.00  0.00    +0.001 C 
ATOM     17  C   UNL     1      36.297 -20.921 -20.297  0.00  0.00    +0.001 C 
ATOM     18  C   UNL     1      35.532 -20.120 -21.146  0.00  0.00    +0.000 C 
ENDBRANCH   1  13
BRANCH   8  20
ATOM     19  O   UNL     1      29.327 -22.395 -17.257  0.00  0.00    -0.270 OA
ATOM     20  N   UNL     1      29.633 -23.840 -15.425  0.00  0.00    -0.281 N 
ATOM     21  C   UNL     1      28.891 -23.131 -16.381  0.00  0.00    +0.250 C 
ATOM     22  H   UNL     1      29.112 -24.387 -14.793  0.00  0.00    +0.155 HD
BRANCH  21  23
ATOM     23  C   UNL     1      27.426 -23.368 -16.226  0.00  0.00    +0.058 C 
ATOM     24  C   UNL     1      26.593 -22.346 -16.006  0.00  0.00    +0.005 C 
ENDBRANCH  21  23
ENDBRANCH   8  20
TORSDOF 3
ENDMDL
MODEL 3
REMARK VINA RESULT:     -10.2      3.337      7.562
REMARK  Name = 10401956
REMARK  3 active torsions:
REMARK  status: ('A' for Active; 'I' for Inactive)
REMARK    1  A    between atoms: N_1  and  C_13
REMARK    2  A    between atoms: C_8  and  N_20
REMARK    3  A    between atoms: C_21  and  C_23
REMARK                            x       y       z     vdW  Elec       q    Type
REMARK                         _______ _______ _______ _____ _____    ______ ____
ROOT
ATOM      1  N   UNL     1      32.376 -23.870 -16.425  0.00  0.00    -0.301 N 
ATOM      2  N   UNL     1      34.597 -21.850 -19.273  0.00  0.00    -0.248 NA
ATOM      3  N   UNL     1      32.515 -22.797 -18.514  0.00  0.00    -0.233 NA
ATOM      4  C   UNL     1      34.498 -22.936 -17.137  0.00  0.00    +0.117 C 
ATOM      5  C   UNL     1      35.200 -22.247 -18.139  0.00  0.00    +0.067 C 
ATOM      6  C   UNL     1      33.150 -23.180 -17.389  0.00  0.00    +0.115 C 
ATOM      7  C   UNL     1      35.139 -23.345 -15.955  0.00  0.00    +0.001 C 
ATOM      8  C   UNL     1      36.489 -23.070 -15.764  0.00  0.00    +0.047 C 
ATOM      9  C   UNL     1      36.551 -21.984 -17.922  0.00  0.00    +0.016 C 
ATOM     10  C   UNL     1      37.196 -22.388 -16.749  0.00  0.00    +0.016 C 
ATOM     11  C   UNL     1      33.287 -22.147 -19.398  0.00  0.00    +0.251 C 
ATOM     12  H   UNL     1      32.878 -24.441 -15.798  0.00  0.00    +0.153 HD
ENDROOT
BRANCH   1  13
ATOM     13  C   UNL     1      31.004 -23.844 -16.251  0.00  0.00    +0.049 C 
ATOM     14  C   UNL     1      30.242 -22.731 -16.659  0.00  0.00    +0.015 C 
ATOM     15  C   UNL     1      30.328 -24.929 -15.658  0.00  0.00    +0.015 C 
ATOM     16  C   UNL     1      28.859 -22.704 -16.482  0.00  0.00    +0.001 C 
ATOM     17  C   UNL     1      28.944 -24.901 -15.481  0.00  0.00    +0.001 C 
ATOM     18  C   UNL     1      28.210 -23.788 -15.893  0.00  0.00    +0.000 C 
ENDBRANCH   1  13
BRANCH   8  20
ATOM     19  O   UNL     1      37.687 -25.721 -15.019  0.00  0.00    -0.270 OA
ATOM     20  N   UNL     1      37.130 -23.474 -14.593  0.00  0.00    -0.281 N 
ATOM     21  C   UNL     1      37.674 -24.732 -14.296  0.00  0.00    +0.250 C 
ATOM     22  H   UNL     1      37.210 -22.791 -13.888  0.00  0.00    +0.155 HD
BRANCH  21  23
ATOM     23  C   UNL     1      38.276 -24.762 -12.931  0.00  0.00    +0.058 C 
ATOM     24  C   UNL     1      37.886 -23.887 -11.998  0.00  0.00    +0.005 C 
ENDBRANCH  21  23
ENDBRANCH   8  20
TORSDOF 3
ENDMDL
MODEL 4
REMARK VINA RESULT:     -10.2      2.686      3.680
REMARK  Name = 10401956
REMARK  3 active torsions:
REMARK  status: ('A' for Active; 'I' for Inactive)
REMARK    1  A    between atoms: N_1  and  C_13
REMARK    2  A    between atoms: C_8  and  N_20
REMARK    3  A    between atoms: C_21  and  C_23
REMARK                            x       y       z     vdW  Elec       q    Type
REMARK                         _______ _______ _______ _____ _____    ______ ____
ROOT
ATOM      1  N   UNL     1      34.427 -22.613 -18.269  0.00  0.00    -0.301 N 
ATOM      2  N   UNL     1      37.281 -22.707 -15.273  0.00  0.00    -0.248 NA
ATOM      3  N   UNL     1      36.586 -22.088 -17.495  0.00  0.00    -0.233 NA
ATOM      4  C   UNL     1      35.071 -23.262 -16.023  0.00  0.00    +0.117 C 
ATOM      5  C   UNL     1      36.078 -23.264 -15.044  0.00  0.00    +0.067 C 
ATOM      6  C   UNL     1      35.392 -22.654 -17.233  0.00  0.00    +0.115 C 
ATOM      7  C   UNL     1      33.818 -23.847 -15.772  0.00  0.00    +0.001 C 
ATOM      8  C   UNL     1      33.560 -24.440 -14.540  0.00  0.00    +0.047 C 
ATOM      9  C   UNL     1      35.793 -23.864 -13.819  0.00  0.00    +0.016 C 
ATOM     10  C   UNL     1      34.549 -24.447 -13.562  0.00  0.00    +0.016 C 
ATOM     11  C   UNL     1      37.468 -22.149 -16.486  0.00  0.00    +0.251 C 
ATOM     12  H   UNL     1      33.722 -23.299 -18.227  0.00  0.00    +0.153 HD
ENDROOT
BRANCH   1  13
ATOM     13  C   UNL     1      34.350 -21.731 -19.332  0.00  0.00    +0.049 C 
ATOM     14  C   UNL     1      35.514 -21.241 -19.954  0.00  0.00    +0.015 C 
ATOM     15  C   UNL     1      33.102 -21.298 -19.823  0.00  0.00    +0.015 C 
ATOM     16  C   UNL     1      35.435 -20.350 -21.025  0.00  0.00    +0.001 C 
ATOM     17  C   UNL     1      33.024 -20.407 -20.894  0.00  0.00    +0.001 C 
ATOM     18  C   UNL     1      34.191 -19.934 -21.495  0.00  0.00    +0.000 C 
ENDBRANCH   1  13
BRANCH   8  20
ATOM     19  O   UNL     1      30.812 -23.230 -14.533  0.00  0.00    -0.270 OA
ATOM     20  N   UNL     1      32.318 -25.021 -14.286  0.00  0.00    -0.281 N 
ATOM     21  C   UNL     1      31.058 -24.406 -14.296  0.00  0.00    +0.250 C 
ATOM     22  H   UNL     1      32.328 -25.983 -14.072  0.00  0.00    +0.155 HD
BRANCH  21  23
ATOM     23  C   UNL     1      29.971 -25.375 -13.970  0.00  0.00    +0.058 C 
ATOM     24  C   UNL     1      28.898 -25.483 -14.760  0.00  0.00    +0.005 C 
ENDBRANCH  21  23
ENDBRANCH   8  20
TORSDOF 3
ENDMDL
MODEL 5
REMARK VINA RESULT:      -9.8      7.084     10.305
REMARK  Name = 10401956
REMARK  3 active torsions:
REMARK  status: ('A' for Active; 'I' for Inactive)
REMARK    1  A    between atoms: N_1  and  C_13
REMARK    2  A    between atoms: C_8  and  N_20
REMARK    3  A    between atoms: C_21  and  C_23
REMARK                            x       y       z     vdW  Elec       q    Type
REMARK                         _______ _______ _______ _____ _____    ______ ____
ROOT
ATOM      1  N   UNL     1      35.103 -17.072 -21.746  0.00  0.00    -0.301 N 
ATOM      2  N   UNL     1      34.045 -15.794 -25.537  0.00  0.00    -0.248 NA
ATOM      3  N   UNL     1      35.063 -17.414 -24.073  0.00  0.00    -0.233 NA
ATOM      4  C   UNL     1      34.064 -15.406 -23.170  0.00  0.00    +0.117 C 
ATOM      5  C   UNL     1      33.732 -15.024 -24.480  0.00  0.00    +0.067 C 
ATOM      6  C   UNL     1      34.733 -16.620 -23.036  0.00  0.00    +0.115 C 
ATOM      7  C   UNL     1      33.731 -14.594 -22.072  0.00  0.00    +0.001 C 
ATOM      8  C   UNL     1      33.062 -13.391 -22.275  0.00  0.00    +0.047 C 
ATOM      9  C   UNL     1      33.061 -13.815 -24.653  0.00  0.00    +0.016 C 
ATOM     10  C   UNL     1      32.726 -13.002 -23.567  0.00  0.00    +0.016 C 
ATOM     11  C   UNL     1      34.694 -16.947 -25.275  0.00  0.00    +0.251 C 
ATOM     12  H   UNL     1      35.189 -16.376 -21.054  0.00  0.00    +0.153 HD
ENDROOT
BRANCH   1  13
ATOM     13  C   UNL     1      35.358 -18.367 -21.333  0.00  0.00    +0.049 C 
ATOM     14  C   UNL     1      34.313 -19.302 -21.193  0.00  0.00    +0.015 C 
ATOM     15  C   UNL     1      36.670 -18.789 -21.040  0.00  0.00    +0.015 C 
ATOM     16  C   UNL     1      34.571 -20.608 -20.775  0.00  0.00    +0.001 C 
ATOM     17  C   UNL     1      36.926 -20.096 -20.623  0.00  0.00    +0.001 C 
ATOM     18  C   UNL     1      35.876 -21.005 -20.491  0.00  0.00    +0.000 C 
ENDBRANCH   1  13
BRANCH   8  20
ATOM     19  O   UNL     1      30.673 -11.627 -21.827  0.00  0.00    -0.270 OA
ATOM     20  N   UNL     1      32.728 -12.581 -21.189  0.00  0.00    -0.281 N 
ATOM     21  C   UNL     1      31.593 -11.773 -21.031  0.00  0.00    +0.250 C 
ATOM     22  H   UNL     1      33.369 -12.576 -20.442  0.00  0.00    +0.155 HD
BRANCH  21  23
ATOM     23  C   UNL     1      31.605 -11.058 -19.722  0.00  0.00    +0.058 C 
ATOM     24  C   UNL     1      31.212  -9.783 -19.641  0.00  0.00    +0.005 C 
ENDBRANCH  21  23
ENDBRANCH   8  20
TORSDOF 3
ENDMDL
MODEL 6
REMARK VINA RESULT:      -9.6      2.679      6.877
REMARK  Name = 10401956
REMARK  3 active torsions:
REMARK  status: ('A' for Active; 'I' for Inactive)
REMARK    1  A    between atoms: N_1  and  C_13
REMARK    2  A    between atoms: C_8  and  N_20
REMARK    3  A    between atoms: C_21  and  C_23
REMARK                            x       y       z     vdW  Elec       q    Type
REMARK                         _______ _______ _______ _____ _____    ______ ____
ROOT
ATOM      1  N   UNL     1      32.444 -23.324 -15.376  0.00  0.00    -0.301 N 
ATOM      2  N   UNL     1      35.808 -24.452 -13.244  0.00  0.00    -0.248 NA
ATOM      3  N   UNL     1      33.413 -24.361 -13.500  0.00  0.00    -0.233 NA
ATOM      4  C   UNL     1      34.860 -23.385 -15.173  0.00  0.00    +0.117 C 
ATOM      5  C   UNL     1      35.964 -23.793 -14.406  0.00  0.00    +0.067 C 
ATOM      6  C   UNL     1      33.606 -23.703 -14.659  0.00  0.00    +0.115 C 
ATOM      7  C   UNL     1      35.036 -22.697 -16.385  0.00  0.00    +0.001 C 
ATOM      8  C   UNL     1      36.318 -22.410 -16.843  0.00  0.00    +0.047 C 
ATOM      9  C   UNL     1      37.236 -23.493 -14.888  0.00  0.00    +0.016 C 
ATOM     10  C   UNL     1      37.420 -22.809 -16.093  0.00  0.00    +0.016 C 
ATOM     11  C   UNL     1      34.540 -24.700 -12.855  0.00  0.00    +0.251 C 
ATOM     12  H   UNL     1      32.551 -22.571 -16.002  0.00  0.00    +0.153 HD
ENDROOT
BRANCH   1  13
ATOM     13  C   UNL     1      31.179 -23.879 -15.310  0.00  0.00    +0.049 C 
ATOM     14  C   UNL     1      30.976 -25.160 -14.761  0.00  0.00    +0.015 C 
ATOM     15  C   UNL     1      30.055 -23.178 -15.791  0.00  0.00    +0.015 C 
ATOM     16  C   UNL     1      29.700 -25.719 -14.696  0.00  0.00    +0.001 C 
ATOM     17  C   UNL     1      28.779 -23.739 -15.725  0.00  0.00    +0.001 C 
ATOM     18  C   UNL     1      28.602 -25.009 -15.177  0.00  0.00    +0.000 C 
ENDBRANCH   1  13
BRANCH   8  20
ATOM     19  O   UNL     1      34.823 -22.617 -19.439  0.00  0.00    -0.270 OA
ATOM     20  N   UNL     1      36.499 -21.728 -18.046  0.00  0.00    -0.281 N 
ATOM     21  C   UNL     1      35.767 -21.864 -19.235  0.00  0.00    +0.250 C 
ATOM     22  H   UNL     1      37.230 -21.069 -18.063  0.00  0.00    +0.155 HD
BRANCH  21  23
ATOM     23  C   UNL     1      36.274 -20.951 -20.300  0.00  0.00    +0.058 C 
ATOM     24  C   UNL     1      35.437 -20.144 -20.958  0.00  0.00    +0.005 C 
ENDBRANCH  21  23
ENDBRANCH   8  20
TORSDOF 3
ENDMDL
MODEL 7
REMARK VINA RESULT:      -9.6     11.140     14.353
REMARK  Name = 10401956
REMARK  3 active torsions:
REMARK  status: ('A' for Active; 'I' for Inactive)
REMARK    1  A    between atoms: N_1  and  C_13
REMARK    2  A    between atoms: C_8  and  N_20
REMARK    3  A    between atoms: C_21  and  C_23
REMARK                            x       y       z     vdW  Elec       q    Type
REMARK                         _______ _______ _______ _____ _____    ______ ____
ROOT
ATOM      1  N   UNL     1      32.951 -12.450 -23.760  0.00  0.00    -0.301 N 
ATOM      2  N   UNL     1      31.029 -10.812 -20.481  0.00  0.00    -0.248 NA
ATOM      3  N   UNL     1      31.740 -12.725 -21.763  0.00  0.00    -0.233 NA
ATOM      4  C   UNL     1      32.262 -10.488 -22.513  0.00  0.00    +0.117 C 
ATOM      5  C   UNL     1      31.596  -9.990 -21.381  0.00  0.00    +0.067 C 
ATOM      6  C   UNL     1      32.297 -11.873 -22.644  0.00  0.00    +0.115 C 
ATOM      7  C   UNL     1      32.852  -9.618 -23.447  0.00  0.00    +0.001 C 
ATOM      8  C   UNL     1      32.780  -8.241 -23.257  0.00  0.00    +0.047 C 
ATOM      9  C   UNL     1      31.540  -8.607 -21.216  0.00  0.00    +0.016 C 
ATOM     10  C   UNL     1      32.124  -7.736 -22.140  0.00  0.00    +0.016 C 
ATOM     11  C   UNL     1      31.132 -12.135 -20.722  0.00  0.00    +0.251 C 
ATOM     12  H   UNL     1      33.042 -11.871 -24.552  0.00  0.00    +0.153 HD
ENDROOT
BRANCH   1  13
ATOM     13  C   UNL     1      33.480 -13.723 -23.879  0.00  0.00    +0.049 C 
ATOM     14  C   UNL     1      34.244 -14.290 -22.841  0.00  0.00    +0.015 C 
ATOM     15  C   UNL     1      33.269 -14.488 -25.043  0.00  0.00    +0.015 C 
ATOM     16  C   UNL     1      34.778 -15.573 -22.962  0.00  0.00    +0.001 C 
ATOM     17  C   UNL     1      33.804 -15.772 -25.162  0.00  0.00    +0.001 C 
ATOM     18  C   UNL     1      34.558 -16.314 -24.122  0.00  0.00    +0.000 C 
ENDBRANCH   1  13
BRANCH   8  20
ATOM     19  O   UNL     1      35.660  -7.502 -23.679  0.00  0.00    -0.270 OA
ATOM     20  N   UNL     1      33.364  -7.374 -24.180  0.00  0.00    -0.281 N 
ATOM     21  C   UNL     1      34.723  -7.064 -24.335  0.00  0.00    +0.250 C 
ATOM     22  H   UNL     1      32.745  -6.923 -24.800  0.00  0.00    +0.155 HD
BRANCH  21  23
ATOM     23  C   UNL     1      34.941  -6.086 -25.440  0.00  0.00    +0.058 C 
ATOM     24  C   UNL     1      34.172  -4.997 -25.546  0.00  0.00    +0.005 C 
ENDBRANCH  21  23
ENDBRANCH   8  20
TORSDOF 3
ENDMDL
MODEL 8
REMARK VINA RESULT:      -9.6     11.423     14.254
REMARK  Name = 10401956
REMARK  3 active torsions:
REMARK  status: ('A' for Active; 'I' for Inactive)
REMARK    1  A    between atoms: N_1  and  C_13
REMARK    2  A    between atoms: C_8  and  N_20
REMARK    3  A    between atoms: C_21  and  C_23
REMARK                            x       y       z     vdW  Elec       q    Type
REMARK                         _______ _______ _______ _____ _____    ______ ____
ROOT
ATOM      1  N   UNL     1      32.631  -8.652 -23.201  0.00  0.00    -0.301 N 
ATOM      2  N   UNL     1      31.305 -10.160 -19.583  0.00  0.00    -0.248 NA
ATOM      3  N   UNL     1      31.873  -8.298 -21.003  0.00  0.00    -0.233 NA
ATOM      4  C   UNL     1      32.075 -10.565 -21.818  0.00  0.00    +0.117 C 
ATOM      5  C   UNL     1      31.620 -11.019 -20.569  0.00  0.00    +0.067 C 
ATOM      6  C   UNL     1      32.179  -9.185 -21.969  0.00  0.00    +0.115 C 
ATOM      7  C   UNL     1      32.400 -11.471 -22.842  0.00  0.00    +0.001 C 
ATOM      8  C   UNL     1      32.274 -12.840 -22.626  0.00  0.00    +0.047 C 
ATOM      9  C   UNL     1      31.502 -12.394 -20.380  0.00  0.00    +0.016 C 
ATOM     10  C   UNL     1      31.824 -13.302 -21.394  0.00  0.00    +0.016 C 
ATOM     11  C   UNL     1      31.449  -8.847 -19.854  0.00  0.00    +0.251 C 
ATOM     12  H   UNL     1      33.172  -9.258 -23.759  0.00  0.00    +0.153 HD
ENDROOT
BRANCH   1  13
ATOM     13  C   UNL     1      32.409  -7.390 -23.721  0.00  0.00    +0.049 C 
ATOM     14  C   UNL     1      33.419  -6.408 -23.698  0.00  0.00    +0.015 C 
ATOM     15  C   UNL     1      31.164  -7.049 -24.286  0.00  0.00    +0.015 C 
ATOM     16  C   UNL     1      33.194  -5.135 -24.221  0.00  0.00    +0.001 C 
ATOM     17  C   UNL     1      30.940  -5.774 -24.809  0.00  0.00    +0.001 C 
ATOM     18  C   UNL     1      31.955  -4.818 -24.776  0.00  0.00    +0.000 C 
ENDBRANCH   1  13
BRANCH   8  20
ATOM     19  O   UNL     1      34.753 -14.479 -23.054  0.00  0.00    -0.270 OA
ATOM     20  N   UNL     1      32.595 -13.744 -23.639  0.00  0.00    -0.281 N 
ATOM     21  C   UNL     1      33.775 -14.487 -23.791  0.00  0.00    +0.250 C 
ATOM     22  H   UNL     1      31.909 -13.876 -24.332  0.00  0.00    +0.155 HD
BRANCH  21  23
ATOM     23  C   UNL     1      33.731 -15.344 -25.011  0.00  0.00    +0.058 C 
ATOM     24  C   UNL     1      34.249 -16.576 -24.995  0.00  0.00    +0.005 C 
ENDBRANCH  21  23
ENDBRANCH   8  20
TORSDOF 3
ENDMDL
MODEL 9
REMARK VINA RESULT:      -9.5      2.868      6.078
REMARK  Name = 10401956
REMARK  3 active torsions:
REMARK  status: ('A' for Active; 'I' for Inactive)
REMARK    1  A    between atoms: N_1  and  C_13
REMARK    2  A    between atoms: C_8  and  N_20
REMARK    3  A    between atoms: C_21  and  C_23
REMARK                            x       y       z     vdW  Elec       q    Type
REMARK                         _______ _______ _______ _____ _____    ______ ____
ROOT
ATOM      1  N   UNL     1      34.648 -24.394 -14.735  0.00  0.00    -0.301 N 
ATOM      2  N   UNL     1      30.591 -24.725 -13.990  0.00  0.00    -0.248 NA
ATOM      3  N   UNL     1      32.882 -25.141 -13.372  0.00  0.00    -0.233 NA
ATOM      4  C   UNL     1      32.362 -23.947 -15.409  0.00  0.00    +0.117 C 
ATOM      5  C   UNL     1      30.998 -24.090 -15.103  0.00  0.00    +0.067 C 
ATOM      6  C   UNL     1      33.256 -24.499 -14.495  0.00  0.00    +0.115 C 
ATOM      7  C   UNL     1      32.776 -23.281 -16.575  0.00  0.00    +0.001 C 
ATOM      8  C   UNL     1      31.830 -22.752 -17.447  0.00  0.00    +0.047 C 
ATOM      9  C   UNL     1      30.073 -23.550 -15.994  0.00  0.00    +0.016 C 
ATOM     10  C   UNL     1      30.477 -22.887 -17.156  0.00  0.00    +0.016 C 
ATOM     11  C   UNL     1      31.555 -25.215 -13.185  0.00  0.00    +0.251 C 
ATOM     12  H   UNL     1      34.914 -24.257 -15.674  0.00  0.00    +0.153 HD
ENDROOT
BRANCH   1  13
ATOM     13  C   UNL     1      35.682 -24.460 -13.818  0.00  0.00    +0.049 C 
ATOM     14  C   UNL     1      35.987 -23.362 -12.990  0.00  0.00    +0.015 C 
ATOM     15  C   UNL     1      36.460 -25.626 -13.687  0.00  0.00    +0.015 C 
ATOM     16  C   UNL     1      37.030 -23.428 -12.066  0.00  0.00    +0.001 C 
ATOM     17  C   UNL     1      37.504 -25.691 -12.763  0.00  0.00    +0.001 C 
ATOM     18  C   UNL     1      37.788 -24.591 -11.953  0.00  0.00    +0.000 C 
ENDBRANCH   1  13
BRANCH   8  20
ATOM     19  O   UNL     1      34.479 -22.753 -18.861  0.00  0.00    -0.270 OA
ATOM     20  N   UNL     1      32.235 -22.090 -18.606  0.00  0.00    -0.281 N 
ATOM     21  C   UNL     1      33.493 -22.126 -19.227  0.00  0.00    +0.250 C 
ATOM     22  H   UNL     1      31.555 -21.527 -19.042  0.00  0.00    +0.155 HD
BRANCH  21  23
ATOM     23  C   UNL     1      33.525 -21.276 -20.452  0.00  0.00    +0.058 C 
ATOM     24  C   UNL     1      32.537 -20.413 -20.706  0.00  0.00    +0.005 C 
ENDBRANCH  21  23
ENDBRANCH   8  20
TORSDOF 3
ENDMDL
