MODEL 1
REMARK VINA RESULT:     -12.3      0.000      0.000
REMARK  Name = 24779676
REMARK  4 active torsions:
REMARK  status: ('A' for Active; 'I' for Inactive)
REMARK    1  A    between atoms: N_2  and  C_22
REMARK    2  A    between atoms: N_3  and  C_14
REMARK    3  A    between atoms: C_10  and  C_21
REMARK    4  A    between atoms: C_22  and  C_24
REMARK                            x       y       z     vdW  Elec       q    Type
REMARK                         _______ _______ _______ _____ _____    ______ ____
ROOT
ATOM      1  N   UNL     1      32.135 -24.556 -14.218  0.00  0.00    -0.123 N 
ATOM      2  N   UNL     1      33.937 -23.133 -17.497  0.00  0.00    -0.254 N 
ATOM      3  N   UNL     1      34.171 -24.666 -13.028  0.00  0.00    -0.274 N 
ATOM      4  N   UNL     1      34.061 -23.897 -15.266  0.00  0.00    -0.295 NA
ATOM      5  N   UNL     1      31.982 -23.800 -16.440  0.00  0.00    -0.314 NA
ATOM      6  N   UNL     1      31.427 -25.027 -13.177  0.00  0.00    -0.170 NA
ATOM      7  C   UNL     1      33.507 -24.360 -14.183  0.00  0.00    +0.279 C 
ATOM      8  C   UNL     1      31.387 -24.281 -15.326  0.00  0.00    +0.219 C 
ATOM      9  C   UNL     1      33.284 -23.621 -16.390  0.00  0.00    +0.203 C 
ATOM     10  C   UNL     1      30.092 -24.598 -14.983  0.00  0.00    +0.203 C 
ATOM     11  C   UNL     1      30.178 -25.051 -13.651  0.00  0.00    +0.116 C 
ATOM     12  H   UNL     1      34.912 -23.000 -17.456  0.00  0.00    +0.161 HD
ATOM     13  H   UNL     1      33.625 -25.009 -12.283  0.00  0.00    +0.156 HD
ENDROOT
BRANCH   3  14
ATOM     14  C   UNL     1      35.542 -24.544 -12.790  0.00  0.00    +0.051 C 
ATOM     15  C   UNL     1      36.412 -25.557 -13.193  0.00  0.00    +0.015 C 
ATOM     16  C   UNL     1      36.040 -23.410 -12.149  0.00  0.00    +0.015 C 
ATOM     17  C   UNL     1      37.781 -25.435 -12.956  0.00  0.00    +0.001 C 
ATOM     18  C   UNL     1      37.410 -23.288 -11.913  0.00  0.00    +0.001 C 
ATOM     19  C   UNL     1      38.280 -24.301 -12.316  0.00  0.00    +0.000 C 
ENDBRANCH   3  14
BRANCH  10  21
ATOM     20  N   UNL     1      28.001 -24.391 -16.482  0.00  0.00    -0.195 NA
ATOM     21  C   UNL     1      28.942 -24.484 -15.808  0.00  0.00    +0.087 C 
ENDBRANCH  10  21
BRANCH   2  22
ATOM     22  C   UNL     1      33.247 -22.813 -18.706  0.00  0.00    +0.125 C 
BRANCH  22  24
ATOM     23 CL   UNL     1      36.362 -18.789 -21.913  0.00  0.00    -0.082 Cl
ATOM     24  C   UNL     1      34.026 -21.807 -19.507  0.00  0.00    -0.002 C 
ATOM     25  C   UNL     1      35.420 -21.803 -19.458  0.00  0.00    -0.002 C 
ATOM     26  C   UNL     1      33.354 -20.877 -20.302  0.00  0.00    -0.002 C 
ATOM     27  C   UNL     1      36.142 -20.870 -20.202  0.00  0.00    +0.011 C 
ATOM     28  C   UNL     1      34.076 -19.944 -21.045  0.00  0.00    +0.011 C 
ATOM     29  C   UNL     1      35.470 -19.941 -20.995  0.00  0.00    +0.058 C 
ENDBRANCH  22  24
ENDBRANCH   2  22
TORSDOF 4
ENDMDL
MODEL 2
REMARK VINA RESULT:     -11.2      1.559      5.534
REMARK  Name = 24779676
REMARK  4 active torsions:
REMARK  status: ('A' for Active; 'I' for Inactive)
REMARK    1  A    between atoms: N_2  and  C_22
REMARK    2  A    between atoms: N_3  and  C_14
REMARK    3  A    between atoms: C_10  and  C_21
REMARK    4  A    between atoms: C_22  and  C_24
REMARK                            x       y       z     vdW  Elec       q    Type
REMARK                         _______ _______ _______ _____ _____    ______ ____
ROOT
ATOM      1  N   UNL     1      33.632 -24.036 -14.651  0.00  0.00    -0.123 N 
ATOM      2  N   UNL     1      34.090 -22.589 -18.355  0.00  0.00    -0.254 N 
ATOM      3  N   UNL     1      31.278 -24.021 -14.831  0.00  0.00    -0.274 N 
ATOM      4  N   UNL     1      32.681 -23.302 -16.599  0.00  0.00    -0.295 NA
ATOM      5  N   UNL     1      35.060 -23.330 -16.381  0.00  0.00    -0.314 NA
ATOM      6  N   UNL     1      33.597 -24.523 -13.398  0.00  0.00    -0.170 NA
ATOM      7  C   UNL     1      32.496 -23.773 -15.400  0.00  0.00    +0.279 C 
ATOM      8  C   UNL     1      34.890 -23.819 -15.132  0.00  0.00    +0.219 C 
ATOM      9  C   UNL     1      33.972 -23.085 -17.078  0.00  0.00    +0.203 C 
ATOM     10  C   UNL     1      35.742 -24.191 -14.117  0.00  0.00    +0.203 C 
ATOM     11  C   UNL     1      34.891 -24.616 -13.077  0.00  0.00    +0.116 C 
ATOM     12  H   UNL     1      33.274 -22.407 -18.873  0.00  0.00    +0.161 HD
ATOM     13  H   UNL     1      31.285 -24.378 -13.913  0.00  0.00    +0.156 HD
ENDROOT
BRANCH   3  14
ATOM     14  C   UNL     1      30.024 -23.823 -15.412  0.00  0.00    +0.051 C 
ATOM     15  C   UNL     1      29.369 -22.601 -15.258  0.00  0.00    +0.015 C 
ATOM     16  C   UNL     1      29.426 -24.848 -16.145  0.00  0.00    +0.015 C 
ATOM     17  C   UNL     1      28.116 -22.403 -15.840  0.00  0.00    +0.001 C 
ATOM     18  C   UNL     1      28.173 -24.650 -16.727  0.00  0.00    +0.001 C 
ATOM     19  C   UNL     1      27.519 -23.427 -16.574  0.00  0.00    +0.000 C 
ENDBRANCH   3  14
BRANCH  10  21
ATOM     20  N   UNL     1      38.322 -24.113 -14.157  0.00  0.00    -0.195 NA
ATOM     21  C   UNL     1      37.161 -24.148 -14.139  0.00  0.00    +0.087 C 
ENDBRANCH  10  21
BRANCH   2  22
ATOM     22  C   UNL     1      35.361 -22.327 -18.953  0.00  0.00    +0.125 C 
BRANCH  22  24
ATOM     23 CL   UNL     1      34.952 -17.773 -22.861  0.00  0.00    -0.082 Cl
ATOM     24  C   UNL     1      35.259 -21.188 -19.929  0.00  0.00    -0.002 C 
ATOM     25  C   UNL     1      36.406 -20.493 -20.314  0.00  0.00    -0.002 C 
ATOM     26  C   UNL     1      34.017 -20.827 -20.452  0.00  0.00    -0.002 C 
ATOM     27  C   UNL     1      36.310 -19.437 -21.220  0.00  0.00    +0.011 C 
ATOM     28  C   UNL     1      33.922 -19.771 -21.358  0.00  0.00    +0.011 C 
ATOM     29  C   UNL     1      35.069 -19.077 -21.742  0.00  0.00    +0.058 C 
ENDBRANCH  22  24
ENDBRANCH   2  22
TORSDOF 4
ENDMDL
MODEL 3
REMARK VINA RESULT:     -11.0      1.743      5.438
REMARK  Name = 24779676
REMARK  4 active torsions:
REMARK  status: ('A' for Active; 'I' for Inactive)
REMARK    1  A    between atoms: N_2  and  C_22
REMARK    2  A    between atoms: N_3  and  C_14
REMARK    3  A    between atoms: C_10  and  C_21
REMARK    4  A    between atoms: C_22  and  C_24
REMARK                            x       y       z     vdW  Elec       q    Type
REMARK                         _______ _______ _______ _____ _____    ______ ____
ROOT
ATOM      1  N   UNL     1      34.913 -24.532 -14.681  0.00  0.00    -0.123 N 
ATOM      2  N   UNL     1      34.812 -22.374 -18.051  0.00  0.00    -0.254 N 
ATOM      3  N   UNL     1      32.559 -24.534 -14.496  0.00  0.00    -0.274 N 
ATOM      4  N   UNL     1      33.682 -23.450 -16.279  0.00  0.00    -0.295 NA
ATOM      5  N   UNL     1      36.066 -23.468 -16.434  0.00  0.00    -0.314 NA
ATOM      6  N   UNL     1      35.066 -25.257 -13.559  0.00  0.00    -0.170 NA
ATOM      7  C   UNL     1      33.678 -24.152 -15.183  0.00  0.00    +0.279 C 
ATOM      8  C   UNL     1      36.085 -24.196 -15.295  0.00  0.00    +0.219 C 
ATOM      9  C   UNL     1      34.886 -23.115 -16.895  0.00  0.00    +0.203 C 
ATOM     10  C   UNL     1      37.078 -24.742 -14.515  0.00  0.00    +0.203 C 
ATOM     11  C   UNL     1      36.393 -25.382 -13.463  0.00  0.00    +0.116 C 
ATOM     12  H   UNL     1      33.927 -22.112 -18.393  0.00  0.00    +0.161 HD
ATOM     13  H   UNL     1      32.704 -25.065 -13.679  0.00  0.00    +0.156 HD
ENDROOT
BRANCH   3  14
ATOM     14  C   UNL     1      31.233 -24.254 -14.829  0.00  0.00    +0.051 C 
ATOM     15  C   UNL     1      30.827 -22.933 -15.021  0.00  0.00    +0.015 C 
ATOM     16  C   UNL     1      30.314 -25.294 -14.970  0.00  0.00    +0.015 C 
ATOM     17  C   UNL     1      29.501 -22.654 -15.354  0.00  0.00    +0.001 C 
ATOM     18  C   UNL     1      28.989 -25.014 -15.304  0.00  0.00    +0.001 C 
ATOM     19  C   UNL     1      28.583 -23.694 -15.496  0.00  0.00    +0.000 C 
ENDBRANCH   3  14
BRANCH  10  21
ATOM     20  N   UNL     1      39.622 -24.600 -14.928  0.00  0.00    -0.195 NA
ATOM     21  C   UNL     1      38.478 -24.664 -14.743  0.00  0.00    +0.087 C 
ENDBRANCH  10  21
BRANCH   2  22
ATOM     22  C   UNL     1      35.978 -21.971 -18.771  0.00  0.00    +0.125 C 
BRANCH  22  24
ATOM     23 CL   UNL     1      34.524 -18.111 -23.148  0.00  0.00    -0.082 Cl
ATOM     24  C   UNL     1      35.615 -21.006 -19.864  0.00  0.00    -0.002 C 
ATOM     25  C   UNL     1      36.596 -20.192 -20.433  0.00  0.00    -0.002 C 
ATOM     26  C   UNL     1      34.296 -20.924 -20.313  0.00  0.00    -0.002 C 
ATOM     27  C   UNL     1      36.258 -19.297 -21.448  0.00  0.00    +0.011 C 
ATOM     28  C   UNL     1      33.959 -20.028 -21.328  0.00  0.00    +0.011 C 
ATOM     29  C   UNL     1      34.940 -19.216 -21.895  0.00  0.00    +0.058 C 
ENDBRANCH  22  24
ENDBRANCH   2  22
TORSDOF 4
ENDMDL
MODEL 4
REMARK VINA RESULT:      -9.7      2.644      6.840
REMARK  Name = 24779676
REMARK  4 active torsions:
REMARK  status: ('A' for Active; 'I' for Inactive)
REMARK    1  A    between atoms: N_2  and  C_22
REMARK    2  A    between atoms: N_3  and  C_14
REMARK    3  A    between atoms: C_10  and  C_21
REMARK    4  A    between atoms: C_22  and  C_24
REMARK                            x       y       z     vdW  Elec       q    Type
REMARK                         _______ _______ _______ _____ _____    ______ ____
ROOT
ATOM      1  N   UNL     1      31.632 -23.165 -16.759  0.00  0.00    -0.123 N 
ATOM      2  N   UNL     1      35.319 -23.105 -15.201  0.00  0.00    -0.254 N 
ATOM      3  N   UNL     1      32.347 -22.105 -18.744  0.00  0.00    -0.274 N 
ATOM      4  N   UNL     1      33.841 -22.603 -16.973  0.00  0.00    -0.295 NA
ATOM      5  N   UNL     1      33.081 -23.676 -14.978  0.00  0.00    -0.314 NA
ATOM      6  N   UNL     1      30.358 -23.240 -17.182  0.00  0.00    -0.170 NA
ATOM      7  C   UNL     1      32.655 -22.607 -17.509  0.00  0.00    +0.279 C 
ATOM      8  C   UNL     1      31.842 -23.690 -15.516  0.00  0.00    +0.219 C 
ATOM      9  C   UNL     1      34.039 -23.142 -15.703  0.00  0.00    +0.203 C 
ATOM     10  C   UNL     1      30.611 -24.140 -15.095  0.00  0.00    +0.203 C 
ATOM     11  C   UNL     1      29.738 -23.837 -16.160  0.00  0.00    +0.116 C 
ATOM     12  H   UNL     1      36.034 -22.705 -15.747  0.00  0.00    +0.161 HD
ATOM     13  H   UNL     1      31.406 -22.174 -19.025  0.00  0.00    +0.156 HD
ENDROOT
BRANCH   3  14
ATOM     14  C   UNL     1      33.225 -21.504 -19.648  0.00  0.00    +0.051 C 
ATOM     15  C   UNL     1      32.748 -20.566 -20.564  0.00  0.00    +0.015 C 
ATOM     16  C   UNL     1      34.578 -21.842 -19.635  0.00  0.00    +0.015 C 
ATOM     17  C   UNL     1      33.626 -19.966 -21.467  0.00  0.00    +0.001 C 
ATOM     18  C   UNL     1      35.456 -21.240 -20.538  0.00  0.00    +0.001 C 
ATOM     19  C   UNL     1      34.979 -20.303 -21.454  0.00  0.00    +0.000 C 
ENDBRANCH   3  14
BRANCH  10  21
ATOM     20  N   UNL     1      30.070 -25.283 -12.845  0.00  0.00    -0.195 NA
ATOM     21  C   UNL     1      30.313 -24.769 -13.857  0.00  0.00    +0.087 C 
ENDBRANCH  10  21
BRANCH   2  22
ATOM     22  C   UNL     1      35.645 -23.628 -13.912  0.00  0.00    +0.125 C 
BRANCH  22  24
ATOM     23 CL   UNL     1      40.831 -26.666 -14.121  0.00  0.00    -0.082 Cl
ATOM     24  C   UNL     1      36.941 -24.386 -13.963  0.00  0.00    -0.002 C 
ATOM     25  C   UNL     1      37.332 -25.176 -12.881  0.00  0.00    -0.002 C 
ATOM     26  C   UNL     1      37.754 -24.303 -15.095  0.00  0.00    -0.002 C 
ATOM     27  C   UNL     1      38.535 -25.880 -12.931  0.00  0.00    +0.011 C 
ATOM     28  C   UNL     1      38.957 -25.008 -15.143  0.00  0.00    +0.011 C 
ATOM     29  C   UNL     1      39.347 -25.796 -14.061  0.00  0.00    +0.058 C 
ENDBRANCH  22  24
ENDBRANCH   2  22
TORSDOF 4
ENDMDL
