MODEL 1
REMARK VINA RESULT:     -11.3      0.000      0.000
REMARK  Name = 447734
REMARK  5 active torsions:
REMARK  status: ('A' for Active; 'I' for Inactive)
REMARK    1  A    between atoms: C_3  and  C_19
REMARK    2  A    between atoms: C_9  and  C_13
REMARK    3  A    between atoms: N_18  and  C_24
REMARK    4  A    between atoms: C_21  and  O_27
REMARK    5  A    between atoms: O_27  and  C_28
REMARK                            x       y       z     vdW  Elec       q    Type
REMARK                         _______ _______ _______ _____ _____    ______ ____
ROOT
ATOM      1  C   UNL     1      35.024 -20.396 -20.770  0.00  0.00    +0.000 C 
ATOM      2  C   UNL     1      33.817 -19.940 -21.350  0.00  0.00    +0.000 C 
ATOM      3  C   UNL     1      33.758 -21.919 -19.358  0.00  0.00    +0.054 C 
ATOM      4  C   UNL     1      34.978 -21.385 -19.775  0.00  0.00    +0.005 C 
ATOM      5  C   UNL     1      32.598 -20.488 -20.918  0.00  0.00    +0.000 C 
ATOM      6  C   UNL     1      32.570 -21.471 -19.929  0.00  0.00    +0.005 C 
ATOM      7  C   UNL     1      33.864 -18.949 -22.345  0.00  0.00    +0.003 C 
ATOM      8  C   UNL     1      36.243 -19.847 -21.202  0.00  0.00    +0.000 C 
ATOM      9  C   UNL     1      35.083 -18.417 -22.763  0.00  0.00    +0.031 C 
ATOM     10  C   UNL     1      36.271 -18.865 -22.192  0.00  0.00    +0.003 C 
ENDROOT
BRANCH   9  13
ATOM     11  N   UNL     1      34.519 -17.597 -25.037  0.00  0.00    -0.343 N 
ATOM     12  N   UNL     1      35.722 -16.242 -23.562  0.00  0.00    -0.285 NA
ATOM     13  C   UNL     1      35.114 -17.392 -23.794  0.00  0.00    +0.117 C 
ATOM     14  H   UNL     1      34.551 -16.889 -25.721  0.00  0.00    +0.144 HD
ATOM     15  H   UNL     1      34.064 -18.449 -25.231  0.00  0.00    +0.144 HD
ATOM     16  H   UNL     1      35.743 -15.547 -24.258  0.00  0.00    +0.188 HD
ENDBRANCH   9  13
BRANCH   3  19
ATOM     17  O   UNL     1      33.576 -24.130 -18.658  0.00  0.00    -0.270 OA
ATOM     18  N   UNL     1      33.898 -22.490 -17.010  0.00  0.00    -0.280 N 
ATOM     19  C   UNL     1      33.727 -22.943 -18.326  0.00  0.00    +0.249 C 
ATOM     20  H   UNL     1      34.005 -21.518 -16.902  0.00  0.00    +0.155 HD
BRANCH  18  24
ATOM     21  C   UNL     1      35.192 -24.228 -14.022  0.00  0.00    +0.140 C 
ATOM     22  C   UNL     1      35.154 -23.479 -15.197  0.00  0.00    +0.052 C 
ATOM     23  C   UNL     1      34.011 -24.737 -13.481  0.00  0.00    +0.037 C 
ATOM     24  C   UNL     1      33.936 -23.250 -15.815  0.00  0.00    +0.054 C 
ATOM     25  C   UNL     1      32.793 -24.498 -14.117  0.00  0.00    +0.004 C 
ATOM     26  C   UNL     1      32.755 -23.749 -15.292  0.00  0.00    +0.015 C 
BRANCH  21  27
ATOM     27  O   UNL     1      36.380 -24.462 -13.401  0.00  0.00    -0.479 OA
BRANCH  27  28
ATOM     28  C   UNL     1      36.754 -25.821 -13.211  0.00  0.00    +0.166 C 
ATOM     29  C   UNL     1      38.102 -25.881 -12.509  0.00  0.00    +0.044 C 
ATOM     30  C   UNL     1      37.033 -26.486 -14.549  0.00  0.00    +0.044 C 
ATOM     31  C   UNL     1      39.123 -25.631 -13.620  0.00  0.00    +0.004 C 
ATOM     32  C   UNL     1      38.425 -25.990 -14.932  0.00  0.00    +0.004 C 
ENDBRANCH  27  28
ENDBRANCH  21  27
ENDBRANCH  18  24
ENDBRANCH   3  19
TORSDOF 5
ENDMDL
MODEL 2
REMARK VINA RESULT:     -11.2      1.228      1.967
REMARK  Name = 447734
REMARK  5 active torsions:
REMARK  status: ('A' for Active; 'I' for Inactive)
REMARK    1  A    between atoms: C_3  and  C_19
REMARK    2  A    between atoms: C_9  and  C_13
REMARK    3  A    between atoms: N_18  and  C_24
REMARK    4  A    between atoms: C_21  and  O_27
REMARK    5  A    between atoms: O_27  and  C_28
REMARK                            x       y       z     vdW  Elec       q    Type
REMARK                         _______ _______ _______ _____ _____    ______ ____
ROOT
ATOM      1  C   UNL     1      34.920 -20.413 -20.722  0.00  0.00    +0.000 C 
ATOM      2  C   UNL     1      33.709 -20.009 -21.332  0.00  0.00    +0.000 C 
ATOM      3  C   UNL     1      33.664 -21.832 -19.197  0.00  0.00    +0.054 C 
ATOM      4  C   UNL     1      34.880 -21.325 -19.655  0.00  0.00    +0.005 C 
ATOM      5  C   UNL     1      32.494 -20.529 -20.859  0.00  0.00    +0.000 C 
ATOM      6  C   UNL     1      32.473 -21.435 -19.798  0.00  0.00    +0.005 C 
ATOM      7  C   UNL     1      33.749 -19.096 -22.400  0.00  0.00    +0.003 C 
ATOM      8  C   UNL     1      36.135 -19.892 -21.196  0.00  0.00    +0.000 C 
ATOM      9  C   UNL     1      34.965 -18.590 -22.859  0.00  0.00    +0.031 C 
ATOM     10  C   UNL     1      36.156 -18.987 -22.258  0.00  0.00    +0.003 C 
ENDROOT
BRANCH   9  13
ATOM     11  N   UNL     1      35.629 -16.413 -23.851  0.00  0.00    -0.343 N 
ATOM     12  N   UNL     1      34.391 -17.950 -25.102  0.00  0.00    -0.285 NA
ATOM     13  C   UNL     1      34.989 -17.646 -23.965  0.00  0.00    +0.117 C 
ATOM     14  H   UNL     1      35.634 -15.789 -24.613  0.00  0.00    +0.144 HD
ATOM     15  H   UNL     1      36.078 -16.166 -23.010  0.00  0.00    +0.144 HD
ATOM     16  H   UNL     1      34.407 -17.312 -25.853  0.00  0.00    +0.188 HD
ENDBRANCH   9  13
BRANCH   3  19
ATOM     17  O   UNL     1      34.627 -23.503 -17.896  0.00  0.00    -0.270 OA
ATOM     18  N   UNL     1      32.480 -22.764 -17.303  0.00  0.00    -0.280 N 
ATOM     19  C   UNL     1      33.639 -22.775 -18.090  0.00  0.00    +0.249 C 
ATOM     20  H   UNL     1      31.780 -22.132 -17.581  0.00  0.00    +0.155 HD
BRANCH  18  24
ATOM     21  C   UNL     1      32.865 -24.481 -14.058  0.00  0.00    +0.140 C 
ATOM     22  C   UNL     1      33.155 -23.711 -15.184  0.00  0.00    +0.052 C 
ATOM     23  C   UNL     1      31.609 -25.073 -13.923  0.00  0.00    +0.037 C 
ATOM     24  C   UNL     1      32.185 -23.545 -16.158  0.00  0.00    +0.054 C 
ATOM     25  C   UNL     1      30.643 -24.895 -14.914  0.00  0.00    +0.004 C 
ATOM     26  C   UNL     1      30.933 -24.126 -16.039  0.00  0.00    +0.015 C 
BRANCH  21  27
ATOM     27  O   UNL     1      33.806 -24.655 -13.091  0.00  0.00    -0.479 OA
BRANCH  27  28
ATOM     28  C   UNL     1      35.072 -24.043 -13.303  0.00  0.00    +0.166 C 
ATOM     29  C   UNL     1      36.081 -25.101 -13.725  0.00  0.00    +0.044 C 
ATOM     30  C   UNL     1      35.640 -23.532 -11.988  0.00  0.00    +0.044 C 
ATOM     31  C   UNL     1      36.493 -25.779 -12.418  0.00  0.00    +0.004 C 
ATOM     32  C   UNL     1      36.180 -24.784 -11.301  0.00  0.00    +0.004 C 
ENDBRANCH  27  28
ENDBRANCH  21  27
ENDBRANCH  18  24
ENDBRANCH   3  19
TORSDOF 5
ENDMDL
MODEL 3
REMARK VINA RESULT:     -11.0      5.381     12.524
REMARK  Name = 447734
REMARK  5 active torsions:
REMARK  status: ('A' for Active; 'I' for Inactive)
REMARK    1  A    between atoms: C_3  and  C_19
REMARK    2  A    between atoms: C_9  and  C_13
REMARK    3  A    between atoms: N_18  and  C_24
REMARK    4  A    between atoms: C_21  and  O_27
REMARK    5  A    between atoms: O_27  and  C_28
REMARK                            x       y       z     vdW  Elec       q    Type
REMARK                         _______ _______ _______ _____ _____    ______ ____
ROOT
ATOM      1  C   UNL     1      34.049 -19.688 -21.485  0.00  0.00    +0.000 C 
ATOM      2  C   UNL     1      35.358 -19.959 -21.020  0.00  0.00    +0.000 C 
ATOM      3  C   UNL     1      34.953 -18.040 -23.030  0.00  0.00    +0.054 C 
ATOM      4  C   UNL     1      33.864 -18.726 -22.491  0.00  0.00    +0.005 C 
ATOM      5  C   UNL     1      36.443 -19.260 -21.573  0.00  0.00    +0.000 C 
ATOM      6  C   UNL     1      36.240 -18.307 -22.571  0.00  0.00    +0.005 C 
ATOM      7  C   UNL     1      35.543 -20.922 -20.013  0.00  0.00    +0.003 C 
ATOM      8  C   UNL     1      32.965 -20.388 -20.932  0.00  0.00    +0.000 C 
ATOM      9  C   UNL     1      34.454 -21.609 -19.475  0.00  0.00    +0.031 C 
ATOM     10  C   UNL     1      33.167 -21.342 -19.934  0.00  0.00    +0.003 C 
ENDROOT
BRANCH   9  13
ATOM     11  N   UNL     1      35.725 -22.500 -17.537  0.00  0.00    -0.343 N 
ATOM     12  N   UNL     1      33.840 -23.630 -18.331  0.00  0.00    -0.285 NA
ATOM     13  C   UNL     1      34.663 -22.602 -18.434  0.00  0.00    +0.117 C 
ATOM     14  H   UNL     1      35.848 -23.184 -16.840  0.00  0.00    +0.144 HD
ATOM     15  H   UNL     1      36.352 -21.743 -17.600  0.00  0.00    +0.144 HD
ATOM     16  H   UNL     1      33.979 -24.304 -17.626  0.00  0.00    +0.188 HD
ENDBRANCH   9  13
BRANCH   3  19
ATOM     17  O   UNL     1      34.904 -17.372 -25.258  0.00  0.00    -0.270 OA
ATOM     18  N   UNL     1      34.345 -15.776 -23.631  0.00  0.00    -0.280 N 
ATOM     19  C   UNL     1      34.744 -17.046 -24.070  0.00  0.00    +0.249 C 
ATOM     20  H   UNL     1      34.261 -15.667 -22.657  0.00  0.00    +0.155 HD
BRANCH  18  24
ATOM     21  C   UNL     1      33.936 -12.242 -24.616  0.00  0.00    +0.140 C 
ATOM     22  C   UNL     1      34.230 -13.372 -23.853  0.00  0.00    +0.052 C 
ATOM     23  C   UNL     1      33.465 -12.386 -25.921  0.00  0.00    +0.037 C 
ATOM     24  C   UNL     1      34.048 -14.628 -24.406  0.00  0.00    +0.054 C 
ATOM     25  C   UNL     1      33.288 -13.659 -26.463  0.00  0.00    +0.004 C 
ATOM     26  C   UNL     1      33.582 -14.788 -25.700  0.00  0.00    +0.015 C 
BRANCH  21  27
ATOM     27  O   UNL     1      34.109 -11.000 -24.088  0.00  0.00    -0.479 OA
BRANCH  27  28
ATOM     28  C   UNL     1      33.595  -9.903 -24.833  0.00  0.00    +0.166 C 
ATOM     29  C   UNL     1      34.743  -9.008 -25.273  0.00  0.00    +0.044 C 
ATOM     30  C   UNL     1      32.773  -8.992 -23.936  0.00  0.00    +0.044 C 
ATOM     31  C   UNL     1      35.070  -8.170 -24.037  0.00  0.00    +0.004 C 
ATOM     32  C   UNL     1      33.816  -8.186 -23.164  0.00  0.00    +0.004 C 
ENDBRANCH  27  28
ENDBRANCH  21  27
ENDBRANCH  18  24
ENDBRANCH   3  19
TORSDOF 5
ENDMDL
MODEL 4
REMARK VINA RESULT:     -11.0      7.813     14.543
REMARK  Name = 447734
REMARK  5 active torsions:
REMARK  status: ('A' for Active; 'I' for Inactive)
REMARK    1  A    between atoms: C_3  and  C_19
REMARK    2  A    between atoms: C_9  and  C_13
REMARK    3  A    between atoms: N_18  and  C_24
REMARK    4  A    between atoms: C_21  and  O_27
REMARK    5  A    between atoms: O_27  and  C_28
REMARK                            x       y       z     vdW  Elec       q    Type
REMARK                         _______ _______ _______ _____ _____    ______ ____
ROOT
ATOM      1  C   UNL     1      34.617 -16.690 -23.481  0.00  0.00    +0.000 C 
ATOM      2  C   UNL     1      34.693 -16.489 -22.082  0.00  0.00    +0.000 C 
ATOM      3  C   UNL     1      34.208 -14.311 -23.788  0.00  0.00    +0.054 C 
ATOM      4  C   UNL     1      34.374 -15.590 -24.320  0.00  0.00    +0.005 C 
ATOM      5  C   UNL     1      34.524 -15.196 -21.563  0.00  0.00    +0.000 C 
ATOM      6  C   UNL     1      34.283 -14.115 -22.412  0.00  0.00    +0.005 C 
ATOM      7  C   UNL     1      34.937 -17.590 -21.243  0.00  0.00    +0.003 C 
ATOM      8  C   UNL     1      34.786 -17.984 -24.000  0.00  0.00    +0.000 C 
ATOM      9  C   UNL     1      35.103 -18.868 -21.775  0.00  0.00    +0.031 C 
ATOM     10  C   UNL     1      35.028 -19.065 -23.151  0.00  0.00    +0.003 C 
ENDROOT
BRANCH   9  13
ATOM     11  N   UNL     1      34.344 -20.899 -20.565  0.00  0.00    -0.343 N 
ATOM     12  N   UNL     1      36.559 -20.177 -20.382  0.00  0.00    -0.285 NA
ATOM     13  C   UNL     1      35.354 -19.996 -20.893  0.00  0.00    +0.117 C 
ATOM     14  H   UNL     1      34.536 -21.656 -19.965  0.00  0.00    +0.144 HD
ATOM     15  H   UNL     1      33.439 -20.779 -20.933  0.00  0.00    +0.144 HD
ATOM     16  H   UNL     1      36.731 -20.940 -19.784  0.00  0.00    +0.188 HD
ENDBRANCH   9  13
BRANCH   3  19
ATOM     17  O   UNL     1      33.286 -13.361 -25.700  0.00  0.00    -0.270 OA
ATOM     18  N   UNL     1      34.486 -11.953 -24.256  0.00  0.00    -0.280 N 
ATOM     19  C   UNL     1      33.956 -13.183 -24.670  0.00  0.00    +0.249 C 
ATOM     20  H   UNL     1      34.996 -11.968 -23.415  0.00  0.00    +0.155 HD
BRANCH  18  24
ATOM     21  C   UNL     1      33.211  -8.623 -25.209  0.00  0.00    +0.140 C 
ATOM     22  C   UNL     1      33.314  -9.864 -24.583  0.00  0.00    +0.052 C 
ATOM     23  C   UNL     1      34.178  -8.226 -26.133  0.00  0.00    +0.037 C 
ATOM     24  C   UNL     1      34.382 -10.691 -24.891  0.00  0.00    +0.054 C 
ATOM     25  C   UNL     1      35.247  -9.070 -26.432  0.00  0.00    +0.004 C 
ATOM     26  C   UNL     1      35.350 -10.312 -25.806  0.00  0.00    +0.015 C 
BRANCH  21  27
ATOM     27  O   UNL     1      32.169  -7.798 -24.919  0.00  0.00    -0.479 OA
BRANCH  27  28
ATOM     28  C   UNL     1      32.045  -7.361 -23.571  0.00  0.00    +0.166 C 
ATOM     29  C   UNL     1      30.740  -6.597 -23.405  0.00  0.00    +0.044 C 
ATOM     30  C   UNL     1      33.100  -6.311 -23.256  0.00  0.00    +0.044 C 
ATOM     31  C   UNL     1      31.039  -5.203 -23.956  0.00  0.00    +0.004 C 
ATOM     32  C   UNL     1      32.557  -5.032 -23.890  0.00  0.00    +0.004 C 
ENDBRANCH  27  28
ENDBRANCH  21  27
ENDBRANCH  18  24
ENDBRANCH   3  19
TORSDOF 5
ENDMDL
MODEL 5
REMARK VINA RESULT:     -10.8      3.399     10.726
REMARK  Name = 447734
REMARK  5 active torsions:
REMARK  status: ('A' for Active; 'I' for Inactive)
REMARK    1  A    between atoms: C_3  and  C_19
REMARK    2  A    between atoms: C_9  and  C_13
REMARK    3  A    between atoms: N_18  and  C_24
REMARK    4  A    between atoms: C_21  and  O_27
REMARK    5  A    between atoms: O_27  and  C_28
REMARK                            x       y       z     vdW  Elec       q    Type
REMARK                         _______ _______ _______ _____ _____    ______ ____
ROOT
ATOM      1  C   UNL     1      36.134 -22.157 -17.728  0.00  0.00    +0.000 C 
ATOM      2  C   UNL     1      34.862 -22.776 -17.674  0.00  0.00    +0.000 C 
ATOM      3  C   UNL     1      35.474 -21.008 -19.768  0.00  0.00    +0.054 C 
ATOM      4  C   UNL     1      36.423 -21.276 -18.782  0.00  0.00    +0.005 C 
ATOM      5  C   UNL     1      33.918 -22.496 -18.674  0.00  0.00    +0.000 C 
ATOM      6  C   UNL     1      34.223 -21.617 -19.714  0.00  0.00    +0.005 C 
ATOM      7  C   UNL     1      34.572 -23.658 -16.619  0.00  0.00    +0.003 C 
ATOM      8  C   UNL     1      37.078 -22.438 -16.727  0.00  0.00    +0.000 C 
ATOM      9  C   UNL     1      35.522 -23.925 -15.632  0.00  0.00    +0.031 C 
ATOM     10  C   UNL     1      36.772 -23.316 -15.686  0.00  0.00    +0.003 C 
ENDROOT
BRANCH   9  13
ATOM     11  N   UNL     1      34.032 -24.709 -13.807  0.00  0.00    -0.343 N 
ATOM     12  N   UNL     1      36.043 -25.816 -14.244  0.00  0.00    -0.285 NA
ATOM     13  C   UNL     1      35.206 -24.840 -14.547  0.00  0.00    +0.117 C 
ATOM     14  H   UNL     1      33.838 -25.340 -13.077  0.00  0.00    +0.144 HD
ATOM     15  H   UNL     1      33.397 -23.986 -14.015  0.00  0.00    +0.144 HD
ATOM     16  H   UNL     1      35.831 -26.437 -13.510  0.00  0.00    +0.188 HD
ENDBRANCH   9  13
BRANCH   3  19
ATOM     17  O   UNL     1      36.979 -19.817 -21.083  0.00  0.00    -0.270 OA
ATOM     18  N   UNL     1      34.695 -19.609 -21.584  0.00  0.00    -0.280 N 
ATOM     19  C   UNL     1      35.790 -20.094 -20.854  0.00  0.00    +0.249 C 
ATOM     20  H   UNL     1      33.811 -19.917 -21.283  0.00  0.00    +0.155 HD
BRANCH  18  24
ATOM     21  C   UNL     1      34.803 -16.507 -23.581  0.00  0.00    +0.140 C 
ATOM     22  C   UNL     1      34.803 -17.369 -22.485  0.00  0.00    +0.052 C 
ATOM     23  C   UNL     1      34.697 -17.022 -24.873  0.00  0.00    +0.037 C 
ATOM     24  C   UNL     1      34.697 -18.734 -22.697  0.00  0.00    +0.054 C 
ATOM     25  C   UNL     1      34.590 -18.399 -25.069  0.00  0.00    +0.004 C 
ATOM     26  C   UNL     1      34.590 -19.261 -23.973  0.00  0.00    +0.015 C 
BRANCH  21  27
ATOM     27  O   UNL     1      34.906 -15.164 -23.391  0.00  0.00    -0.479 OA
BRANCH  27  28
ATOM     28  C   UNL     1      33.699 -14.447 -23.164  0.00  0.00    +0.166 C 
ATOM     29  C   UNL     1      32.883 -14.412 -24.448  0.00  0.00    +0.044 C 
ATOM     30  C   UNL     1      33.995 -12.979 -22.905  0.00  0.00    +0.044 C 
ATOM     31  C   UNL     1      33.527 -13.303 -25.280  0.00  0.00    +0.004 C 
ATOM     32  C   UNL     1      34.266 -12.401 -24.292  0.00  0.00    +0.004 C 
ENDBRANCH  27  28
ENDBRANCH  21  27
ENDBRANCH  18  24
ENDBRANCH   3  19
TORSDOF 5
ENDMDL
MODEL 6
REMARK VINA RESULT:     -10.6      3.297     10.751
REMARK  Name = 447734
REMARK  5 active torsions:
REMARK  status: ('A' for Active; 'I' for Inactive)
REMARK    1  A    between atoms: C_3  and  C_19
REMARK    2  A    between atoms: C_9  and  C_13
REMARK    3  A    between atoms: N_18  and  C_24
REMARK    4  A    between atoms: C_21  and  O_27
REMARK    5  A    between atoms: O_27  and  C_28
REMARK                            x       y       z     vdW  Elec       q    Type
REMARK                         _______ _______ _______ _____ _____    ______ ____
ROOT
ATOM      1  C   UNL     1      34.401 -22.675 -17.750  0.00  0.00    +0.000 C 
ATOM      2  C   UNL     1      35.774 -22.567 -17.424  0.00  0.00    +0.000 C 
ATOM      3  C   UNL     1      34.751 -21.208 -19.658  0.00  0.00    +0.054 C 
ATOM      4  C   UNL     1      33.906 -21.989 -18.870  0.00  0.00    +0.005 C 
ATOM      5  C   UNL     1      36.611 -21.776 -18.227  0.00  0.00    +0.000 C 
ATOM      6  C   UNL     1      36.101 -21.101 -19.337  0.00  0.00    +0.005 C 
ATOM      7  C   UNL     1      36.270 -23.253 -16.302  0.00  0.00    +0.003 C 
ATOM      8  C   UNL     1      33.564 -23.466 -16.945  0.00  0.00    +0.000 C 
ATOM      9  C   UNL     1      35.424 -24.035 -15.515  0.00  0.00    +0.031 C 
ATOM     10  C   UNL     1      34.074 -24.142 -15.836  0.00  0.00    +0.003 C 
ENDROOT
BRANCH   9  13
ATOM     11  N   UNL     1      37.287 -25.139 -14.300  0.00  0.00    -0.343 N 
ATOM     12  N   UNL     1      35.161 -25.016 -13.337  0.00  0.00    -0.285 NA
ATOM     13  C   UNL     1      35.953 -24.740 -14.358  0.00  0.00    +0.117 C 
ATOM     14  H   UNL     1      37.624 -25.615 -13.506  0.00  0.00    +0.144 HD
ATOM     15  H   UNL     1      37.892 -24.946 -15.052  0.00  0.00    +0.144 HD
ATOM     16  H   UNL     1      35.518 -25.492 -12.552  0.00  0.00    +0.188 HD
ENDBRANCH   9  13
BRANCH   3  19
ATOM     17  O   UNL     1      33.013 -20.601 -21.080  0.00  0.00    -0.270 OA
ATOM     18  N   UNL     1      35.145 -19.732 -21.536  0.00  0.00    -0.280 N 
ATOM     19  C   UNL     1      34.222 -20.503 -20.815  0.00  0.00    +0.249 C 
ATOM     20  H   UNL     1      36.071 -19.754 -21.205  0.00  0.00    +0.155 HD
BRANCH  18  24
ATOM     21  C   UNL     1      34.726 -16.757 -23.680  0.00  0.00    +0.140 C 
ATOM     22  C   UNL     1      34.951 -17.549 -22.555  0.00  0.00    +0.052 C 
ATOM     23  C   UNL     1      34.471 -17.356 -24.914  0.00  0.00    +0.037 C 
ATOM     24  C   UNL     1      34.918 -18.928 -22.680  0.00  0.00    +0.054 C 
ATOM     25  C   UNL     1      34.441 -18.746 -25.022  0.00  0.00    +0.004 C 
ATOM     26  C   UNL     1      34.666 -19.538 -23.897  0.00  0.00    +0.015 C 
BRANCH  21  27
ATOM     27  O   UNL     1      34.755 -15.401 -23.575  0.00  0.00    -0.479 OA
BRANCH  27  28
ATOM     28  C   UNL     1      33.505 -14.736 -23.438  0.00  0.00    +0.166 C 
ATOM     29  C   UNL     1      32.937 -14.437 -24.817  0.00  0.00    +0.044 C 
ATOM     30  C   UNL     1      33.705 -13.351 -22.842  0.00  0.00    +0.044 C 
ATOM     31  C   UNL     1      33.688 -13.188 -25.278  0.00  0.00    +0.004 C 
ATOM     32  C   UNL     1      34.207 -12.508 -24.011  0.00  0.00    +0.004 C 
ENDBRANCH  27  28
ENDBRANCH  21  27
ENDBRANCH  18  24
ENDBRANCH   3  19
TORSDOF 5
ENDMDL
MODEL 7
REMARK VINA RESULT:     -10.2      3.400     10.766
REMARK  Name = 447734
REMARK  5 active torsions:
REMARK  status: ('A' for Active; 'I' for Inactive)
REMARK    1  A    between atoms: C_3  and  C_19
REMARK    2  A    between atoms: C_9  and  C_13
REMARK    3  A    between atoms: N_18  and  C_24
REMARK    4  A    between atoms: C_21  and  O_27
REMARK    5  A    between atoms: O_27  and  C_28
REMARK                            x       y       z     vdW  Elec       q    Type
REMARK                         _______ _______ _______ _____ _____    ______ ____
ROOT
ATOM      1  C   UNL     1      34.632 -22.344 -18.377  0.00  0.00    +0.000 C 
ATOM      2  C   UNL     1      35.650 -22.412 -17.397  0.00  0.00    +0.000 C 
ATOM      3  C   UNL     1      35.988 -20.785 -19.661  0.00  0.00    +0.054 C 
ATOM      4  C   UNL     1      34.817 -21.525 -19.503  0.00  0.00    +0.005 C 
ATOM      5  C   UNL     1      36.823 -21.660 -17.571  0.00  0.00    +0.000 C 
ATOM      6  C   UNL     1      36.990 -20.852 -18.697  0.00  0.00    +0.005 C 
ATOM      7  C   UNL     1      35.466 -23.231 -16.270  0.00  0.00    +0.003 C 
ATOM      8  C   UNL     1      33.459 -23.096 -18.202  0.00  0.00    +0.000 C 
ATOM      9  C   UNL     1      34.294 -23.972 -16.113  0.00  0.00    +0.031 C 
ATOM     10  C   UNL     1      33.293 -23.905 -17.078  0.00  0.00    +0.003 C 
ENDROOT
BRANCH   9  13
ATOM     11  N   UNL     1      32.950 -24.768 -14.184  0.00  0.00    -0.343 N 
ATOM     12  N   UNL     1      35.082 -25.642 -14.575  0.00  0.00    -0.285 NA
ATOM     13  C   UNL     1      34.119 -24.815 -14.941  0.00  0.00    +0.117 C 
ATOM     14  H   UNL     1      32.852 -25.348 -13.394  0.00  0.00    +0.144 HD
ATOM     15  H   UNL     1      32.222 -24.156 -14.439  0.00  0.00    +0.144 HD
ATOM     16  H   UNL     1      34.965 -26.214 -13.782  0.00  0.00    +0.188 HD
ENDBRANCH   9  13
BRANCH   3  19
ATOM     17  O   UNL     1      37.314 -19.658 -21.205  0.00  0.00    -0.270 OA
ATOM     18  N   UNL     1      34.986 -19.529 -21.471  0.00  0.00    -0.280 N 
ATOM     19  C   UNL     1      36.164 -19.941 -20.832  0.00  0.00    +0.249 C 
ATOM     20  H   UNL     1      34.146 -19.832 -21.058  0.00  0.00    +0.155 HD
BRANCH  18  24
ATOM     21  C   UNL     1      34.808 -16.570 -23.671  0.00  0.00    +0.140 C 
ATOM     22  C   UNL     1      34.947 -17.355 -22.526  0.00  0.00    +0.052 C 
ATOM     23  C   UNL     1      34.572 -17.174 -24.906  0.00  0.00    +0.037 C 
ATOM     24  C   UNL     1      34.847 -18.732 -22.634  0.00  0.00    +0.054 C 
ATOM     25  C   UNL     1      34.473 -18.562 -24.996  0.00  0.00    +0.004 C 
ATOM     26  C   UNL     1      34.611 -19.347 -23.852  0.00  0.00    +0.015 C 
BRANCH  21  27
ATOM     27  O   UNL     1      34.904 -15.216 -23.583  0.00  0.00    -0.479 OA
BRANCH  27  28
ATOM     28  C   UNL     1      33.703 -14.497 -23.332  0.00  0.00    +0.166 C 
ATOM     29  C   UNL     1      32.867 -14.449 -24.603  0.00  0.00    +0.044 C 
ATOM     30  C   UNL     1      34.008 -13.031 -23.067  0.00  0.00    +0.044 C 
ATOM     31  C   UNL     1      33.501 -13.336 -25.436  0.00  0.00    +0.004 C 
ATOM     32  C   UNL     1      34.259 -12.443 -24.453  0.00  0.00    +0.004 C 
ENDBRANCH  27  28
ENDBRANCH  21  27
ENDBRANCH  18  24
ENDBRANCH   3  19
TORSDOF 5
ENDMDL
MODEL 8
REMARK VINA RESULT:     -10.2      1.505      3.528
REMARK  Name = 447734
REMARK  5 active torsions:
REMARK  status: ('A' for Active; 'I' for Inactive)
REMARK    1  A    between atoms: C_3  and  C_19
REMARK    2  A    between atoms: C_9  and  C_13
REMARK    3  A    between atoms: N_18  and  C_24
REMARK    4  A    between atoms: C_21  and  O_27
REMARK    5  A    between atoms: O_27  and  C_28
REMARK                            x       y       z     vdW  Elec       q    Type
REMARK                         _______ _______ _______ _____ _____    ______ ____
ROOT
ATOM      1  C   UNL     1      35.181 -20.132 -21.094  0.00  0.00    +0.000 C 
ATOM      2  C   UNL     1      33.941 -19.712 -21.631  0.00  0.00    +0.000 C 
ATOM      3  C   UNL     1      34.011 -21.717 -19.666  0.00  0.00    +0.054 C 
ATOM      4  C   UNL     1      35.198 -21.136 -20.112  0.00  0.00    +0.005 C 
ATOM      5  C   UNL     1      32.755 -20.307 -21.171  0.00  0.00    +0.000 C 
ATOM      6  C   UNL     1      32.792 -21.303 -20.195  0.00  0.00    +0.005 C 
ATOM      7  C   UNL     1      33.924 -18.707 -22.614  0.00  0.00    +0.003 C 
ATOM      8  C   UNL     1      36.367 -19.537 -21.554  0.00  0.00    +0.000 C 
ATOM      9  C   UNL     1      35.111 -18.127 -23.060  0.00  0.00    +0.031 C 
ATOM     10  C   UNL     1      36.331 -18.541 -22.531  0.00  0.00    +0.003 C 
ENDROOT
BRANCH   9  13
ATOM     11  N   UNL     1      35.430 -15.774 -23.783  0.00  0.00    -0.343 N 
ATOM     12  N   UNL     1      34.697 -17.385 -25.308  0.00  0.00    -0.285 NA
ATOM     13  C   UNL     1      35.076 -17.089 -24.078  0.00  0.00    +0.117 C 
ATOM     14  H   UNL     1      35.400 -15.086 -24.488  0.00  0.00    +0.144 HD
ATOM     15  H   UNL     1      35.713 -15.532 -22.871  0.00  0.00    +0.144 HD
ATOM     16  H   UNL     1      34.673 -16.684 -25.998  0.00  0.00    +0.188 HD
ENDBRANCH   9  13
BRANCH   3  19
ATOM     17  O   UNL     1      33.670 -23.901 -18.942  0.00  0.00    -0.270 OA
ATOM     18  N   UNL     1      34.538 -22.365 -17.394  0.00  0.00    -0.280 N 
ATOM     19  C   UNL     1      34.046 -22.754 -18.648  0.00  0.00    +0.249 C 
ATOM     20  H   UNL     1      34.797 -21.420 -17.312  0.00  0.00    +0.155 HD
BRANCH  18  24
ATOM     21  C   UNL     1      33.762 -24.358 -14.386  0.00  0.00    +0.140 C 
ATOM     22  C   UNL     1      33.593 -23.582 -15.532  0.00  0.00    +0.052 C 
ATOM     23  C   UNL     1      35.045 -24.696 -13.956  0.00  0.00    +0.037 C 
ATOM     24  C   UNL     1      34.710 -23.155 -16.231  0.00  0.00    +0.054 C 
ATOM     25  C   UNL     1      36.159 -24.257 -14.671  0.00  0.00    +0.004 C 
ATOM     26  C   UNL     1      35.990 -23.481 -15.817  0.00  0.00    +0.015 C 
BRANCH  21  27
ATOM     27  O   UNL     1      32.676 -24.786 -13.687  0.00  0.00    -0.479 OA
BRANCH  27  28
ATOM     28  C   UNL     1      31.559 -23.908 -13.625  0.00  0.00    +0.166 C 
ATOM     29  C   UNL     1      30.354 -24.660 -13.082  0.00  0.00    +0.044 C 
ATOM     30  C   UNL     1      31.115 -23.515 -15.026  0.00  0.00    +0.044 C 
ATOM     31  C   UNL     1      29.821 -25.447 -14.279  0.00  0.00    +0.004 C 
ATOM     32  C   UNL     1      30.337 -24.730 -15.527  0.00  0.00    +0.004 C 
ENDBRANCH  27  28
ENDBRANCH  21  27
ENDBRANCH  18  24
ENDBRANCH   3  19
TORSDOF 5
ENDMDL
MODEL 9
REMARK VINA RESULT:     -10.1      6.681     13.268
REMARK  Name = 447734
REMARK  5 active torsions:
REMARK  status: ('A' for Active; 'I' for Inactive)
REMARK    1  A    between atoms: C_3  and  C_19
REMARK    2  A    between atoms: C_9  and  C_13
REMARK    3  A    between atoms: N_18  and  C_24
REMARK    4  A    between atoms: C_21  and  O_27
REMARK    5  A    between atoms: O_27  and  C_28
REMARK                            x       y       z     vdW  Elec       q    Type
REMARK                         _______ _______ _______ _____ _____    ______ ____
ROOT
ATOM      1  C   UNL     1      34.890 -17.364 -22.682  0.00  0.00    +0.000 C 
ATOM      2  C   UNL     1      34.411 -18.577 -23.231  0.00  0.00    +0.000 C 
ATOM      3  C   UNL     1      34.057 -16.167 -24.628  0.00  0.00    +0.054 C 
ATOM      4  C   UNL     1      34.705 -16.168 -23.393  0.00  0.00    +0.005 C 
ATOM      5  C   UNL     1      33.761 -18.558 -24.476  0.00  0.00    +0.000 C 
ATOM      6  C   UNL     1      33.586 -17.360 -25.169  0.00  0.00    +0.005 C 
ATOM      7  C   UNL     1      34.597 -19.774 -22.519  0.00  0.00    +0.003 C 
ATOM      8  C   UNL     1      35.540 -17.383 -21.437  0.00  0.00    +0.000 C 
ATOM      9  C   UNL     1      35.244 -19.775 -21.283  0.00  0.00    +0.031 C 
ATOM     10  C   UNL     1      35.715 -18.581 -20.743  0.00  0.00    +0.003 C 
ENDROOT
BRANCH   9  13
ATOM     11  N   UNL     1      34.351 -21.686 -19.974  0.00  0.00    -0.343 N 
ATOM     12  N   UNL     1      36.636 -21.543 -20.442  0.00  0.00    -0.285 NA
ATOM     13  C   UNL     1      35.428 -21.022 -20.559  0.00  0.00    +0.117 C 
ATOM     14  H   UNL     1      34.498 -22.530 -19.489  0.00  0.00    +0.144 HD
ATOM     15  H   UNL     1      33.443 -21.312 -20.048  0.00  0.00    +0.144 HD
ATOM     16  H   UNL     1      36.762 -22.388 -19.953  0.00  0.00    +0.188 HD
ENDBRANCH   9  13
BRANCH   3  19
ATOM     17  O   UNL     1      33.620 -14.959 -26.568  0.00  0.00    -0.270 OA
ATOM     18  N   UNL     1      33.980 -13.748 -24.591  0.00  0.00    -0.280 N 
ATOM     19  C   UNL     1      33.874 -14.919 -25.353  0.00  0.00    +0.249 C 
ATOM     20  H   UNL     1      34.187 -13.875 -23.638  0.00  0.00    +0.155 HD
BRANCH  18  24
ATOM     21  C   UNL     1      33.684 -10.070 -24.485  0.00  0.00    +0.140 C 
ATOM     22  C   UNL     1      33.835 -11.392 -24.069  0.00  0.00    +0.052 C 
ATOM     23  C   UNL     1      33.528  -9.780 -25.840  0.00  0.00    +0.037 C 
ATOM     24  C   UNL     1      33.828 -12.404 -25.014  0.00  0.00    +0.054 C 
ATOM     25  C   UNL     1      33.521 -10.811 -26.779  0.00  0.00    +0.004 C 
ATOM     26  C   UNL     1      33.672 -12.133 -26.363  0.00  0.00    +0.015 C 
BRANCH  21  27
ATOM     27  O   UNL     1      33.690  -9.063 -23.570  0.00  0.00    -0.479 OA
BRANCH  27  28
ATOM     28  C   UNL     1      32.577  -8.177 -23.576  0.00  0.00    +0.166 C 
ATOM     29  C   UNL     1      32.906  -6.946 -22.745  0.00  0.00    +0.044 C 
ATOM     30  C   UNL     1      31.405  -8.793 -22.828  0.00  0.00    +0.044 C 
ATOM     31  C   UNL     1      32.696  -7.393 -21.298  0.00  0.00    +0.004 C 
ATOM     32  C   UNL     1      31.757  -8.598 -21.355  0.00  0.00    +0.004 C 
ENDBRANCH  27  28
ENDBRANCH  21  27
ENDBRANCH  18  24
ENDBRANCH   3  19
TORSDOF 5
ENDMDL
