MODEL 1
REMARK VINA RESULT:     -12.1      0.000      0.000
REMARK  Name = 446805
REMARK  6 active torsions:
REMARK  status: ('A' for Active; 'I' for Inactive)
REMARK    1  A    between atoms: C_4  and  C_22
REMARK    2  A    between atoms: C_7  and  N_11
REMARK    3  A    between atoms: N_11  and  S_13
REMARK    4  A    between atoms: S_13  and  C_16
REMARK    5  A    between atoms: C_22  and  C_23
REMARK    6  A    between atoms: C_28  and  C_31
REMARK                            x       y       z     vdW  Elec       q    Type
REMARK                         _______ _______ _______ _____ _____    ______ ____
ROOT
ATOM      1  N   UNL     1      35.779 -19.125 -22.340  0.00  0.00    -0.262 N 
ATOM      2  N   UNL     1      33.587 -19.046 -22.698  0.00  0.00    -0.394 NA
ATOM      3  C   UNL     1      35.223 -19.942 -21.389  0.00  0.00    +0.079 C 
ATOM      4  C   UNL     1      34.763 -18.614 -23.097  0.00  0.00    +0.168 C 
ATOM      5  C   UNL     1      33.855 -19.877 -21.634  0.00  0.00    +0.129 C 
ATOM      6  C   UNL     1      32.977 -20.614 -20.821  0.00  0.00    +0.103 C 
ATOM      7  C   UNL     1      33.516 -21.391 -19.789  0.00  0.00    +0.050 C 
ATOM      8  C   UNL     1      35.783 -20.711 -20.368  0.00  0.00    +0.018 C 
ATOM      9  C   UNL     1      37.190 -18.856 -22.507  0.00  0.00    +0.119 C 
ATOM     10  C   UNL     1      34.895 -21.438 -19.568  0.00  0.00    +0.013 C 
ENDROOT
BRANCH   7  11
ATOM     11  N   UNL     1      32.642 -22.148 -18.950  0.00  0.00    -0.219 N 
ATOM     12  H   UNL     1      31.667 -22.006 -18.957  0.00  0.00    +0.173 HD
BRANCH  11  13
ATOM     13  S   UNL     1      33.382 -23.334 -17.919  0.00  0.00    +0.073 S 
ATOM     14  O   UNL     1      34.647 -22.822 -17.431  0.00  0.00    -0.150 OA
ATOM     15  O   UNL     1      33.312 -24.634 -18.561  0.00  0.00    -0.150 OA
BRANCH  13  16
ATOM     16  C   UNL     1      32.257 -23.376 -16.555  0.00  0.00    +0.125 C 
ATOM     17  C   UNL     1      30.917 -23.114 -16.778  0.00  0.00    +0.020 C 
ATOM     18  C   UNL     1      32.739 -23.670 -15.292  0.00  0.00    +0.020 C 
ATOM     19  C   UNL     1      30.029 -23.148 -15.702  0.00  0.00    +0.001 C 
ATOM     20  C   UNL     1      31.852 -23.704 -14.216  0.00  0.00    +0.001 C 
ATOM     21  C   UNL     1      30.497 -23.443 -14.421  0.00  0.00    +0.000 C 
ENDBRANCH  13  16
ENDBRANCH  11  13
ENDBRANCH   7  11
BRANCH   4  22
ATOM     22  C   UNL     1      35.009 -17.687 -24.221  0.00  0.00    +0.101 C 
BRANCH  22  23
ATOM     23  C   UNL     1      34.482 -16.277 -23.984  0.00  0.00    -0.014 C 
ATOM     24  C   UNL     1      34.714 -15.674 -22.765  0.00  0.00    -0.004 C 
ATOM     25  C   UNL     1      33.789 -15.647 -24.997  0.00  0.00    -0.004 C 
ATOM     26  C   UNL     1      34.231 -14.383 -22.549  0.00  0.00    +0.002 C 
ATOM     27  C   UNL     1      33.305 -14.357 -24.781  0.00  0.00    +0.002 C 
ATOM     28  C   UNL     1      33.526 -13.725 -23.557  0.00  0.00    +0.031 C 
BRANCH  28  31
ATOM     29  N   UNL     1      33.480 -11.299 -24.082  0.00  0.00    -0.343 N 
ATOM     30  N   UNL     1      32.112 -12.166 -22.397  0.00  0.00    -0.285 NA
ATOM     31  C   UNL     1      33.022 -12.380 -23.332  0.00  0.00    +0.117 C 
ATOM     32  H   UNL     1      33.125 -10.396 -23.912  0.00  0.00    +0.144 HD
ATOM     33  H   UNL     1      34.159 -11.437 -24.781  0.00  0.00    +0.144 HD
ATOM     34  H   UNL     1      31.770 -11.256 -22.243  0.00  0.00    +0.188 HD
ENDBRANCH  28  31
ENDBRANCH  22  23
ENDBRANCH   4  22
TORSDOF 6
ENDMDL
MODEL 2
REMARK VINA RESULT:     -11.8      4.179      7.462
REMARK  Name = 446805
REMARK  6 active torsions:
REMARK  status: ('A' for Active; 'I' for Inactive)
REMARK    1  A    between atoms: C_4  and  C_22
REMARK    2  A    between atoms: C_7  and  N_11
REMARK    3  A    between atoms: N_11  and  S_13
REMARK    4  A    between atoms: S_13  and  C_16
REMARK    5  A    between atoms: C_22  and  C_23
REMARK    6  A    between atoms: C_28  and  C_31
REMARK                            x       y       z     vdW  Elec       q    Type
REMARK                         _______ _______ _______ _____ _____    ______ ____
ROOT
ATOM      1  N   UNL     1      32.103 -23.130 -16.864  0.00  0.00    -0.262 N 
ATOM      2  N   UNL     1      34.192 -23.597 -17.461  0.00  0.00    -0.394 NA
ATOM      3  C   UNL     1      32.702 -23.630 -15.737  0.00  0.00    +0.079 C 
ATOM      4  C   UNL     1      33.032 -23.130 -17.866  0.00  0.00    +0.168 C 
ATOM      5  C   UNL     1      34.005 -23.913 -16.134  0.00  0.00    +0.129 C 
ATOM      6  C   UNL     1      34.907 -24.450 -15.199  0.00  0.00    +0.103 C 
ATOM      7  C   UNL     1      34.455 -24.681 -13.894  0.00  0.00    +0.050 C 
ATOM      8  C   UNL     1      32.232 -23.851 -14.442  0.00  0.00    +0.018 C 
ATOM      9  C   UNL     1      30.731 -22.684 -16.969  0.00  0.00    +0.119 C 
ATOM     10  C   UNL     1      33.141 -24.386 -13.524  0.00  0.00    +0.013 C 
ENDROOT
BRANCH   7  11
ATOM     11  N   UNL     1      35.354 -25.228 -12.927  0.00  0.00    -0.219 N 
ATOM     12  H   UNL     1      35.233 -26.135 -12.564  0.00  0.00    +0.173 HD
BRANCH  11  13
ATOM     13  S   UNL     1      36.672 -24.214 -12.425  0.00  0.00    +0.073 S 
ATOM     14  O   UNL     1      37.099 -24.606 -11.096  0.00  0.00    -0.150 OA
ATOM     15  O   UNL     1      36.347 -22.830 -12.715  0.00  0.00    -0.150 OA
BRANCH  13  16
ATOM     16  C   UNL     1      37.944 -24.690 -13.559  0.00  0.00    +0.125 C 
ATOM     17  C   UNL     1      38.028 -24.049 -14.783  0.00  0.00    +0.020 C 
ATOM     18  C   UNL     1      38.827 -25.691 -13.200  0.00  0.00    +0.020 C 
ATOM     19  C   UNL     1      39.032 -24.424 -15.677  0.00  0.00    +0.001 C 
ATOM     20  C   UNL     1      39.831 -26.066 -14.094  0.00  0.00    +0.001 C 
ATOM     21  C   UNL     1      39.933 -25.432 -15.332  0.00  0.00    +0.000 C 
ENDBRANCH  13  16
ENDBRANCH  11  13
ENDBRANCH   7  11
BRANCH   4  22
ATOM     22  C   UNL     1      32.719 -22.651 -19.228  0.00  0.00    +0.101 C 
BRANCH  22  23
ATOM     23  C   UNL     1      33.752 -21.686 -19.795  0.00  0.00    -0.014 C 
ATOM     24  C   UNL     1      35.086 -21.895 -19.513  0.00  0.00    -0.004 C 
ATOM     25  C   UNL     1      33.321 -20.631 -20.574  0.00  0.00    -0.004 C 
ATOM     26  C   UNL     1      36.032 -21.011 -20.032  0.00  0.00    +0.002 C 
ATOM     27  C   UNL     1      34.266 -19.747 -21.093  0.00  0.00    +0.002 C 
ATOM     28  C   UNL     1      35.622 -19.937 -20.822  0.00  0.00    +0.031 C 
BRANCH  28  31
ATOM     29  N   UNL     1      36.511 -18.533 -22.667  0.00  0.00    -0.343 N 
ATOM     30  N   UNL     1      37.621 -18.620 -20.613  0.00  0.00    -0.285 NA
ATOM     31  C   UNL     1      36.608 -19.014 -21.363  0.00  0.00    +0.117 C 
ATOM     32  H   UNL     1      37.190 -17.910 -23.013  0.00  0.00    +0.144 HD
ATOM     33  H   UNL     1      35.765 -18.817 -23.243  0.00  0.00    +0.144 HD
ATOM     34  H   UNL     1      38.290 -17.996 -20.976  0.00  0.00    +0.188 HD
ENDBRANCH  28  31
ENDBRANCH  22  23
ENDBRANCH   4  22
TORSDOF 6
ENDMDL
MODEL 3
REMARK VINA RESULT:     -11.7      4.286     10.009
REMARK  Name = 446805
REMARK  6 active torsions:
REMARK  status: ('A' for Active; 'I' for Inactive)
REMARK    1  A    between atoms: C_4  and  C_22
REMARK    2  A    between atoms: C_7  and  N_11
REMARK    3  A    between atoms: N_11  and  S_13
REMARK    4  A    between atoms: S_13  and  C_16
REMARK    5  A    between atoms: C_22  and  C_23
REMARK    6  A    between atoms: C_28  and  C_31
REMARK                            x       y       z     vdW  Elec       q    Type
REMARK                         _______ _______ _______ _____ _____    ______ ____
ROOT
ATOM      1  N   UNL     1      34.781 -17.520 -23.801  0.00  0.00    -0.262 N 
ATOM      2  N   UNL     1      35.354 -16.609 -21.856  0.00  0.00    -0.394 NA
ATOM      3  C   UNL     1      34.243 -16.259 -23.815  0.00  0.00    +0.079 C 
ATOM      4  C   UNL     1      35.434 -17.682 -22.612  0.00  0.00    +0.168 C 
ATOM      5  C   UNL     1      34.616 -15.710 -22.592  0.00  0.00    +0.129 C 
ATOM      6  C   UNL     1      34.218 -14.399 -22.279  0.00  0.00    +0.103 C 
ATOM      7  C   UNL     1      33.458 -13.690 -23.217  0.00  0.00    +0.050 C 
ATOM      8  C   UNL     1      33.488 -15.571 -24.765  0.00  0.00    +0.018 C 
ATOM      9  C   UNL     1      34.673 -18.501 -24.858  0.00  0.00    +0.119 C 
ATOM     10  C   UNL     1      33.101 -14.267 -24.438  0.00  0.00    +0.013 C 
ENDROOT
BRANCH   7  11
ATOM     11  N   UNL     1      33.043 -12.356 -22.920  0.00  0.00    -0.219 N 
ATOM     12  H   UNL     1      33.521 -11.573 -23.279  0.00  0.00    +0.173 HD
BRANCH  11  13
ATOM     13  S   UNL     1      31.651 -12.181 -21.895  0.00  0.00    +0.073 S 
ATOM     14  O   UNL     1      31.846 -12.955 -20.685  0.00  0.00    -0.150 OA
ATOM     15  O   UNL     1      30.449 -12.349 -22.690  0.00  0.00    -0.150 OA
BRANCH  13  16
ATOM     16  C   UNL     1      31.739 -10.470 -21.457  0.00  0.00    +0.125 C 
ATOM     17  C   UNL     1      31.969  -9.532 -22.448  0.00  0.00    +0.020 C 
ATOM     18  C   UNL     1      31.577 -10.103 -20.133  0.00  0.00    +0.020 C 
ATOM     19  C   UNL     1      32.038  -8.182 -22.102  0.00  0.00    +0.001 C 
ATOM     20  C   UNL     1      31.646  -8.753 -19.787  0.00  0.00    +0.001 C 
ATOM     21  C   UNL     1      31.876  -7.793 -20.772  0.00  0.00    +0.000 C 
ENDBRANCH  13  16
ENDBRANCH  11  13
ENDBRANCH   7  11
BRANCH   4  22
ATOM     22  C   UNL     1      36.133 -18.936 -22.263  0.00  0.00    +0.101 C 
BRANCH  22  23
ATOM     23  C   UNL     1      35.318 -19.871 -21.379  0.00  0.00    -0.014 C 
ATOM     24  C   UNL     1      33.941 -19.824 -21.451  0.00  0.00    -0.004 C 
ATOM     25  C   UNL     1      35.982 -20.736 -20.533  0.00  0.00    -0.004 C 
ATOM     26  C   UNL     1      33.194 -20.681 -20.641  0.00  0.00    +0.002 C 
ATOM     27  C   UNL     1      35.236 -21.592 -19.724  0.00  0.00    +0.002 C 
ATOM     28  C   UNL     1      33.842 -21.564 -19.778  0.00  0.00    +0.031 C 
BRANCH  28  31
ATOM     29  N   UNL     1      31.825 -22.074 -18.421  0.00  0.00    -0.343 N 
ATOM     30  N   UNL     1      33.532 -23.656 -18.635  0.00  0.00    -0.285 NA
ATOM     31  C   UNL     1      33.064 -22.456 -18.933  0.00  0.00    +0.117 C 
ATOM     32  H   UNL     1      31.316 -22.694 -17.851  0.00  0.00    +0.144 HD
ATOM     33  H   UNL     1      31.460 -21.184 -18.629  0.00  0.00    +0.144 HD
ATOM     34  H   UNL     1      33.008 -24.261 -18.063  0.00  0.00    +0.188 HD
ENDBRANCH  28  31
ENDBRANCH  22  23
ENDBRANCH   4  22
TORSDOF 6
ENDMDL
MODEL 4
REMARK VINA RESULT:     -11.6      4.053     10.571
REMARK  Name = 446805
REMARK  6 active torsions:
REMARK  status: ('A' for Active; 'I' for Inactive)
REMARK    1  A    between atoms: C_4  and  C_22
REMARK    2  A    between atoms: C_7  and  N_11
REMARK    3  A    between atoms: N_11  and  S_13
REMARK    4  A    between atoms: S_13  and  C_16
REMARK    5  A    between atoms: C_22  and  C_23
REMARK    6  A    between atoms: C_28  and  C_31
REMARK                            x       y       z     vdW  Elec       q    Type
REMARK                         _______ _______ _______ _____ _____    ______ ____
ROOT
ATOM      1  N   UNL     1      32.845 -22.536 -17.860  0.00  0.00    -0.262 N 
ATOM      2  N   UNL     1      35.047 -22.705 -18.114  0.00  0.00    -0.394 NA
ATOM      3  C   UNL     1      33.137 -21.829 -18.998  0.00  0.00    +0.079 C 
ATOM      4  C   UNL     1      34.017 -23.039 -17.369  0.00  0.00    +0.168 C 
ATOM      5  C   UNL     1      34.517 -21.951 -19.136  0.00  0.00    +0.129 C 
ATOM      6  C   UNL     1      35.155 -21.330 -20.224  0.00  0.00    +0.103 C 
ATOM      7  C   UNL     1      34.372 -20.610 -21.134  0.00  0.00    +0.050 C 
ATOM      8  C   UNL     1      32.338 -21.118 -19.893  0.00  0.00    +0.018 C 
ATOM      9  C   UNL     1      31.531 -22.713 -17.285  0.00  0.00    +0.119 C 
ATOM     10  C   UNL     1      32.988 -20.507 -20.970  0.00  0.00    +0.013 C 
ENDROOT
BRANCH   7  11
ATOM     11  N   UNL     1      34.999 -19.970 -22.247  0.00  0.00    -0.219 N 
ATOM     12  H   UNL     1      34.978 -20.365 -23.149  0.00  0.00    +0.173 HD
BRANCH  11  13
ATOM     13  S   UNL     1      35.798 -18.461 -21.932  0.00  0.00    +0.073 S 
ATOM     14  O   UNL     1      37.199 -18.577 -22.288  0.00  0.00    -0.150 OA
ATOM     15  O   UNL     1      35.410 -17.980 -20.619  0.00  0.00    -0.150 OA
BRANCH  13  16
ATOM     16  C   UNL     1      35.031 -17.394 -23.116  0.00  0.00    +0.125 C 
ATOM     17  C   UNL     1      34.551 -17.933 -24.297  0.00  0.00    +0.020 C 
ATOM     18  C   UNL     1      34.926 -16.043 -22.838  0.00  0.00    +0.020 C 
ATOM     19  C   UNL     1      33.945 -17.091 -25.230  0.00  0.00    +0.001 C 
ATOM     20  C   UNL     1      34.320 -15.201 -23.771  0.00  0.00    +0.001 C 
ATOM     21  C   UNL     1      33.829 -15.725 -24.967  0.00  0.00    +0.000 C 
ENDBRANCH  13  16
ENDBRANCH  11  13
ENDBRANCH   7  11
BRANCH   4  22
ATOM     22  C   UNL     1      34.067 -23.858 -16.139  0.00  0.00    +0.101 C 
BRANCH  22  23
ATOM     23  C   UNL     1      35.457 -24.383 -15.804  0.00  0.00    -0.014 C 
ATOM     24  C   UNL     1      35.620 -25.731 -15.560  0.00  0.00    -0.004 C 
ATOM     25  C   UNL     1      36.511 -23.493 -15.754  0.00  0.00    -0.004 C 
ATOM     26  C   UNL     1      36.894 -26.211 -15.253  0.00  0.00    +0.002 C 
ATOM     27  C   UNL     1      37.784 -23.973 -15.446  0.00  0.00    +0.002 C 
ATOM     28  C   UNL     1      37.975 -25.332 -15.196  0.00  0.00    +0.031 C 
BRANCH  28  31
ATOM     29  N   UNL     1      39.661 -26.148 -13.566  0.00  0.00    -0.343 N 
ATOM     30  N   UNL     1      40.195 -25.992 -15.836  0.00  0.00    -0.285 NA
ATOM     31  C   UNL     1      39.302 -25.833 -14.875  0.00  0.00    +0.117 C 
ATOM     32  H   UNL     1      40.565 -26.486 -13.372  0.00  0.00    +0.144 HD
ATOM     33  H   UNL     1      39.011 -26.034 -12.836  0.00  0.00    +0.144 HD
ATOM     34  H   UNL     1      41.094 -26.331 -15.621  0.00  0.00    +0.188 HD
ENDBRANCH  28  31
ENDBRANCH  22  23
ENDBRANCH   4  22
TORSDOF 6
ENDMDL
MODEL 5
REMARK VINA RESULT:     -11.6      4.939     10.684
REMARK  Name = 446805
REMARK  6 active torsions:
REMARK  status: ('A' for Active; 'I' for Inactive)
REMARK    1  A    between atoms: C_4  and  C_22
REMARK    2  A    between atoms: C_7  and  N_11
REMARK    3  A    between atoms: N_11  and  S_13
REMARK    4  A    between atoms: S_13  and  C_16
REMARK    5  A    between atoms: C_22  and  C_23
REMARK    6  A    between atoms: C_28  and  C_31
REMARK                            x       y       z     vdW  Elec       q    Type
REMARK                         _______ _______ _______ _____ _____    ______ ____
ROOT
ATOM      1  N   UNL     1      34.834 -17.427 -23.920  0.00  0.00    -0.262 N 
ATOM      2  N   UNL     1      35.319 -16.361 -22.030  0.00  0.00    -0.394 NA
ATOM      3  C   UNL     1      34.240 -16.196 -24.031  0.00  0.00    +0.079 C 
ATOM      4  C   UNL     1      35.466 -17.477 -22.709  0.00  0.00    +0.168 C 
ATOM      5  C   UNL     1      34.558 -15.549 -22.840  0.00  0.00    +0.129 C 
ATOM      6  C   UNL     1      34.095 -14.240 -22.626  0.00  0.00    +0.103 C 
ATOM      7  C   UNL     1      33.326 -13.632 -23.626  0.00  0.00    +0.050 C 
ATOM      8  C   UNL     1      33.477 -15.609 -25.041  0.00  0.00    +0.018 C 
ATOM      9  C   UNL     1      34.796 -18.480 -24.909  0.00  0.00    +0.119 C 
ATOM     10  C   UNL     1      33.024 -14.306 -24.812  0.00  0.00    +0.013 C 
ENDROOT
BRANCH   7  11
ATOM     11  N   UNL     1      32.843 -12.302 -23.430  0.00  0.00    -0.219 N 
ATOM     12  H   UNL     1      32.139 -12.100 -22.771  0.00  0.00    +0.173 HD
BRANCH  11  13
ATOM     13  S   UNL     1      33.560 -11.058 -24.407  0.00  0.00    +0.073 S 
ATOM     14  O   UNL     1      32.869 -10.990 -25.680  0.00  0.00    -0.150 OA
ATOM     15  O   UNL     1      35.005 -11.188 -24.360  0.00  0.00    -0.150 OA
BRANCH  13  16
ATOM     16  C   UNL     1      33.147  -9.600 -23.494  0.00  0.00    +0.125 C 
ATOM     17  C   UNL     1      32.028  -9.610 -22.680  0.00  0.00    +0.020 C 
ATOM     18  C   UNL     1      33.951  -8.481 -23.612  0.00  0.00    +0.020 C 
ATOM     19  C   UNL     1      31.703  -8.461 -21.959  0.00  0.00    +0.001 C 
ATOM     20  C   UNL     1      33.625  -7.331 -22.892  0.00  0.00    +0.001 C 
ATOM     21  C   UNL     1      32.502  -7.321 -22.065  0.00  0.00    +0.000 C 
ENDBRANCH  13  16
ENDBRANCH  11  13
ENDBRANCH   7  11
BRANCH   4  22
ATOM     22  C   UNL     1      36.212 -18.671 -22.260  0.00  0.00    +0.101 C 
BRANCH  22  23
ATOM     23  C   UNL     1      35.383 -19.639 -21.425  0.00  0.00    -0.014 C 
ATOM     24  C   UNL     1      36.033 -20.523 -20.589  0.00  0.00    -0.004 C 
ATOM     25  C   UNL     1      34.008 -19.601 -21.531  0.00  0.00    -0.004 C 
ATOM     26  C   UNL     1      35.274 -21.409 -19.823  0.00  0.00    +0.002 C 
ATOM     27  C   UNL     1      33.249 -20.487 -20.767  0.00  0.00    +0.002 C 
ATOM     28  C   UNL     1      33.883 -21.390 -19.913  0.00  0.00    +0.031 C 
BRANCH  28  31
ATOM     29  N   UNL     1      31.851 -21.946 -18.598  0.00  0.00    -0.343 N 
ATOM     30  N   UNL     1      33.548 -23.529 -18.869  0.00  0.00    -0.285 NA
ATOM     31  C   UNL     1      33.091 -22.315 -19.116  0.00  0.00    +0.117 C 
ATOM     32  H   UNL     1      31.332 -22.588 -18.061  0.00  0.00    +0.144 HD
ATOM     33  H   UNL     1      31.493 -21.045 -18.768  0.00  0.00    +0.144 HD
ATOM     34  H   UNL     1      33.015 -24.157 -18.330  0.00  0.00    +0.188 HD
ENDBRANCH  28  31
ENDBRANCH  22  23
ENDBRANCH   4  22
TORSDOF 6
ENDMDL
MODEL 6
REMARK VINA RESULT:     -11.3      3.392      9.550
REMARK  Name = 446805
REMARK  6 active torsions:
REMARK  status: ('A' for Active; 'I' for Inactive)
REMARK    1  A    between atoms: C_4  and  C_22
REMARK    2  A    between atoms: C_7  and  N_11
REMARK    3  A    between atoms: N_11  and  S_13
REMARK    4  A    between atoms: S_13  and  C_16
REMARK    5  A    between atoms: C_22  and  C_23
REMARK    6  A    between atoms: C_28  and  C_31
REMARK                            x       y       z     vdW  Elec       q    Type
REMARK                         _______ _______ _______ _____ _____    ______ ____
ROOT
ATOM      1  N   UNL     1      34.014 -23.051 -17.244  0.00  0.00    -0.262 N 
ATOM      2  N   UNL     1      32.210 -22.506 -18.423  0.00  0.00    -0.394 NA
ATOM      3  C   UNL     1      34.482 -22.353 -18.327  0.00  0.00    +0.079 C 
ATOM      4  C   UNL     1      32.652 -23.115 -17.346  0.00  0.00    +0.168 C 
ATOM      5  C   UNL     1      33.337 -22.023 -19.047  0.00  0.00    +0.129 C 
ATOM      6  C   UNL     1      33.465 -21.291 -20.240  0.00  0.00    +0.103 C 
ATOM      7  C   UNL     1      34.748 -20.919 -20.661  0.00  0.00    +0.050 C 
ATOM      8  C   UNL     1      35.769 -21.992 -18.727  0.00  0.00    +0.018 C 
ATOM      9  C   UNL     1      34.820 -23.616 -16.186  0.00  0.00    +0.119 C 
ATOM     10  C   UNL     1      35.878 -21.263 -19.916  0.00  0.00    +0.013 C 
ENDROOT
BRANCH   7  11
ATOM     11  N   UNL     1      34.901 -20.174 -21.871  0.00  0.00    -0.219 N 
ATOM     12  H   UNL     1      34.543 -20.502 -22.728  0.00  0.00    +0.173 HD
BRANCH  11  13
ATOM     13  S   UNL     1      35.746 -18.661 -21.756  0.00  0.00    +0.073 S 
ATOM     14  O   UNL     1      37.144 -18.867 -22.083  0.00  0.00    -0.150 OA
ATOM     15  O   UNL     1      35.370 -17.997 -20.521  0.00  0.00    -0.150 OA
BRANCH  13  16
ATOM     16  C   UNL     1      35.015 -17.740 -23.077  0.00  0.00    +0.125 C 
ATOM     17  C   UNL     1      34.380 -18.419 -24.101  0.00  0.00    +0.020 C 
ATOM     18  C   UNL     1      35.093 -16.359 -23.059  0.00  0.00    +0.020 C 
ATOM     19  C   UNL     1      33.803 -17.692 -25.143  0.00  0.00    +0.001 C 
ATOM     20  C   UNL     1      34.516 -15.632 -24.100  0.00  0.00    +0.001 C 
ATOM     21  C   UNL     1      33.871 -16.298 -25.142  0.00  0.00    +0.000 C 
ENDBRANCH  13  16
ENDBRANCH  11  13
ENDBRANCH   7  11
BRANCH   4  22
ATOM     22  C   UNL     1      31.821 -23.802 -16.336  0.00  0.00    +0.101 C 
BRANCH  22  23
ATOM     23  C   UNL     1      30.360 -23.369 -16.341  0.00  0.00    -0.014 C 
ATOM     24  C   UNL     1      29.941 -22.428 -15.424  0.00  0.00    -0.004 C 
ATOM     25  C   UNL     1      29.502 -23.932 -17.264  0.00  0.00    -0.004 C 
ATOM     26  C   UNL     1      28.603 -22.031 -15.429  0.00  0.00    +0.002 C 
ATOM     27  C   UNL     1      28.165 -23.535 -17.269  0.00  0.00    +0.002 C 
ATOM     28  C   UNL     1      27.716 -22.585 -16.352  0.00  0.00    +0.031 C 
BRANCH  28  31
ATOM     29  N   UNL     1      25.753 -21.552 -17.468  0.00  0.00    -0.343 N 
ATOM     30  N   UNL     1      25.569 -22.380 -15.291  0.00  0.00    -0.285 NA
ATOM     31  C   UNL     1      26.321 -22.172 -16.357  0.00  0.00    +0.117 C 
ATOM     32  H   UNL     1      24.806 -21.281 -17.450  0.00  0.00    +0.144 HD
ATOM     33  H   UNL     1      26.296 -21.386 -18.272  0.00  0.00    +0.144 HD
ATOM     34  H   UNL     1      24.625 -22.101 -15.291  0.00  0.00    +0.188 HD
ENDBRANCH  28  31
ENDBRANCH  22  23
ENDBRANCH   4  22
TORSDOF 6
ENDMDL
MODEL 7
REMARK VINA RESULT:     -11.2      3.823     10.502
REMARK  Name = 446805
REMARK  6 active torsions:
REMARK  status: ('A' for Active; 'I' for Inactive)
REMARK    1  A    between atoms: C_4  and  C_22
REMARK    2  A    between atoms: C_7  and  N_11
REMARK    3  A    between atoms: N_11  and  S_13
REMARK    4  A    between atoms: S_13  and  C_16
REMARK    5  A    between atoms: C_22  and  C_23
REMARK    6  A    between atoms: C_28  and  C_31
REMARK                            x       y       z     vdW  Elec       q    Type
REMARK                         _______ _______ _______ _____ _____    ______ ____
ROOT
ATOM      1  N   UNL     1      32.651 -22.489 -18.043  0.00  0.00    -0.262 N 
ATOM      2  N   UNL     1      34.826 -22.945 -18.083  0.00  0.00    -0.394 NA
ATOM      3  C   UNL     1      33.147 -21.810 -19.126  0.00  0.00    +0.079 C 
ATOM      4  C   UNL     1      33.691 -23.151 -17.453  0.00  0.00    +0.168 C 
ATOM      5  C   UNL     1      34.506 -22.111 -19.130  0.00  0.00    +0.129 C 
ATOM      6  C   UNL     1      35.326 -21.564 -20.132  0.00  0.00    +0.103 C 
ATOM      7  C   UNL     1      34.740 -20.732 -21.094  0.00  0.00    +0.050 C 
ATOM      8  C   UNL     1      32.542 -20.984 -20.074  0.00  0.00    +0.018 C 
ATOM      9  C   UNL     1      31.273 -22.498 -17.606  0.00  0.00    +0.119 C 
ATOM     10  C   UNL     1      33.373 -20.449 -21.064  0.00  0.00    +0.013 C 
ENDROOT
BRANCH   7  11
ATOM     11  N   UNL     1      35.555 -20.165 -22.121  0.00  0.00    -0.219 N 
ATOM     12  H   UNL     1      35.788 -20.669 -22.934  0.00  0.00    +0.173 HD
BRANCH  11  13
ATOM     13  S   UNL     1      36.115 -18.540 -21.866  0.00  0.00    +0.073 S 
ATOM     14  O   UNL     1      37.525 -18.462 -22.191  0.00  0.00    -0.150 OA
ATOM     15  O   UNL     1      35.627 -18.063 -20.586  0.00  0.00    -0.150 OA
BRANCH  13  16
ATOM     16  C   UNL     1      35.227 -17.654 -23.114  0.00  0.00    +0.125 C 
ATOM     17  C   UNL     1      35.192 -16.272 -23.063  0.00  0.00    +0.020 C 
ATOM     18  C   UNL     1      34.588 -18.361 -24.116  0.00  0.00    +0.020 C 
ATOM     19  C   UNL     1      34.493 -15.574 -24.048  0.00  0.00    +0.001 C 
ATOM     20  C   UNL     1      33.889 -17.663 -25.101  0.00  0.00    +0.001 C 
ATOM     21  C   UNL     1      33.841 -16.269 -25.067  0.00  0.00    +0.000 C 
ENDBRANCH  13  16
ENDBRANCH  11  13
ENDBRANCH   7  11
BRANCH   4  22
ATOM     22  C   UNL     1      33.508 -23.987 -16.249  0.00  0.00    +0.101 C 
BRANCH  22  23
ATOM     23  C   UNL     1      34.791 -24.221 -15.460  0.00  0.00    -0.014 C 
ATOM     24  C   UNL     1      35.349 -23.167 -14.768  0.00  0.00    -0.004 C 
ATOM     25  C   UNL     1      35.354 -25.481 -15.463  0.00  0.00    -0.004 C 
ATOM     26  C   UNL     1      36.523 -23.381 -14.045  0.00  0.00    +0.002 C 
ATOM     27  C   UNL     1      36.528 -25.695 -14.742  0.00  0.00    +0.002 C 
ATOM     28  C   UNL     1      37.112 -24.645 -14.033  0.00  0.00    +0.031 C 
BRANCH  28  31
ATOM     29  N   UNL     1      39.146 -25.976 -13.526  0.00  0.00    -0.343 N 
ATOM     30  N   UNL     1      38.698 -24.012 -12.341  0.00  0.00    -0.285 NA
ATOM     31  C   UNL     1      38.337 -24.869 -13.281  0.00  0.00    +0.117 C 
ATOM     32  H   UNL     1      39.971 -26.108 -13.004  0.00  0.00    +0.144 HD
ATOM     33  H   UNL     1      38.894 -26.627 -14.220  0.00  0.00    +0.144 HD
ATOM     34  H   UNL     1      39.526 -24.161 -11.831  0.00  0.00    +0.188 HD
ENDBRANCH  28  31
ENDBRANCH  22  23
ENDBRANCH   4  22
TORSDOF 6
ENDMDL
MODEL 8
REMARK VINA RESULT:     -11.0      4.342     10.625
REMARK  Name = 446805
REMARK  6 active torsions:
REMARK  status: ('A' for Active; 'I' for Inactive)
REMARK    1  A    between atoms: C_4  and  C_22
REMARK    2  A    between atoms: C_7  and  N_11
REMARK    3  A    between atoms: N_11  and  S_13
REMARK    4  A    between atoms: S_13  and  C_16
REMARK    5  A    between atoms: C_22  and  C_23
REMARK    6  A    between atoms: C_28  and  C_31
REMARK                            x       y       z     vdW  Elec       q    Type
REMARK                         _______ _______ _______ _____ _____    ______ ____
ROOT
ATOM      1  N   UNL     1      35.084 -18.606 -23.560  0.00  0.00    -0.262 N 
ATOM      2  N   UNL     1      35.402 -17.017 -22.040  0.00  0.00    -0.394 NA
ATOM      3  C   UNL     1      34.471 -17.489 -24.066  0.00  0.00    +0.079 C 
ATOM      4  C   UNL     1      35.625 -18.274 -22.350  0.00  0.00    +0.168 C 
ATOM      5  C   UNL     1      34.684 -16.510 -23.099  0.00  0.00    +0.129 C 
ATOM      6  C   UNL     1      34.175 -15.217 -23.309  0.00  0.00    +0.103 C 
ATOM      7  C   UNL     1      33.468 -14.961 -24.490  0.00  0.00    +0.050 C 
ATOM      8  C   UNL     1      33.772 -17.256 -25.250  0.00  0.00    +0.018 C 
ATOM      9  C   UNL     1      35.144 -19.903 -24.197  0.00  0.00    +0.119 C 
ATOM     10  C   UNL     1      33.272 -15.964 -25.443  0.00  0.00    +0.013 C 
ENDROOT
BRANCH   7  11
ATOM     11  N   UNL     1      32.941 -13.654 -24.724  0.00  0.00    -0.219 N 
ATOM     12  H   UNL     1      32.303 -13.477 -25.453  0.00  0.00    +0.173 HD
BRANCH  11  13
ATOM     13  S   UNL     1      33.479 -12.393 -23.657  0.00  0.00    +0.073 S 
ATOM     14  O   UNL     1      34.553 -12.896 -22.824  0.00  0.00    -0.150 OA
ATOM     15  O   UNL     1      32.324 -11.748 -23.061  0.00  0.00    -0.150 OA
BRANCH  13  16
ATOM     16  C   UNL     1      34.181 -11.235 -24.796  0.00  0.00    +0.125 C 
ATOM     17  C   UNL     1      34.568  -9.988 -24.335  0.00  0.00    +0.020 C 
ATOM     18  C   UNL     1      34.330 -11.598 -26.121  0.00  0.00    +0.020 C 
ATOM     19  C   UNL     1      35.122  -9.075 -25.233  0.00  0.00    +0.001 C 
ATOM     20  C   UNL     1      34.884 -10.685 -27.019  0.00  0.00    +0.001 C 
ATOM     21  C   UNL     1      35.280  -9.424 -26.575  0.00  0.00    +0.000 C 
ENDBRANCH  13  16
ENDBRANCH  11  13
ENDBRANCH   7  11
BRANCH   4  22
ATOM     22  C   UNL     1      36.364 -19.252 -21.524  0.00  0.00    +0.101 C 
BRANCH  22  23
ATOM     23  C   UNL     1      35.466 -20.210 -20.751  0.00  0.00    -0.014 C 
ATOM     24  C   UNL     1      34.098 -20.086 -20.873  0.00  0.00    -0.004 C 
ATOM     25  C   UNL     1      36.051 -21.172 -19.953  0.00  0.00    -0.004 C 
ATOM     26  C   UNL     1      33.276 -20.964 -20.165  0.00  0.00    +0.002 C 
ATOM     27  C   UNL     1      35.229 -22.049 -19.245  0.00  0.00    +0.002 C 
ATOM     28  C   UNL     1      33.842 -21.945 -19.351  0.00  0.00    +0.031 C 
BRANCH  28  31
ATOM     29  N   UNL     1      31.750 -22.451 -18.113  0.00  0.00    -0.343 N 
ATOM     30  N   UNL     1      33.378 -24.103 -18.401  0.00  0.00    -0.285 NA
ATOM     31  C   UNL     1      32.986 -22.859 -18.612  0.00  0.00    +0.117 C 
ATOM     32  H   UNL     1      31.186 -23.087 -17.616  0.00  0.00    +0.144 HD
ATOM     33  H   UNL     1      31.440 -21.528 -18.258  0.00  0.00    +0.144 HD
ATOM     34  H   UNL     1      32.801 -24.724 -17.901  0.00  0.00    +0.188 HD
ENDBRANCH  28  31
ENDBRANCH  22  23
ENDBRANCH   4  22
TORSDOF 6
ENDMDL
MODEL 9
REMARK VINA RESULT:     -11.0      5.007     10.560
REMARK  Name = 446805
REMARK  6 active torsions:
REMARK  status: ('A' for Active; 'I' for Inactive)
REMARK    1  A    between atoms: C_4  and  C_22
REMARK    2  A    between atoms: C_7  and  N_11
REMARK    3  A    between atoms: N_11  and  S_13
REMARK    4  A    between atoms: S_13  and  C_16
REMARK    5  A    between atoms: C_22  and  C_23
REMARK    6  A    between atoms: C_28  and  C_31
REMARK                            x       y       z     vdW  Elec       q    Type
REMARK                         _______ _______ _______ _____ _____    ______ ____
ROOT
ATOM      1  N   UNL     1      34.448 -15.840 -23.582  0.00  0.00    -0.262 N 
ATOM      2  N   UNL     1      34.634 -16.080 -21.381  0.00  0.00    -0.394 NA
ATOM      3  C   UNL     1      33.814 -14.752 -23.041  0.00  0.00    +0.079 C 
ATOM      4  C   UNL     1      34.920 -16.603 -22.552  0.00  0.00    +0.168 C 
ATOM      5  C   UNL     1      33.944 -14.924 -21.666  0.00  0.00    +0.129 C 
ATOM      6  C   UNL     1      33.394 -13.964 -20.800  0.00  0.00    +0.103 C 
ATOM      7  C   UNL     1      32.731 -12.864 -21.357  0.00  0.00    +0.050 C 
ATOM      8  C   UNL     1      33.159 -13.663 -23.618  0.00  0.00    +0.018 C 
ATOM      9  C   UNL     1      34.588 -16.126 -24.993  0.00  0.00    +0.119 C 
ATOM     10  C   UNL     1      32.617 -12.717 -22.742  0.00  0.00    +0.013 C 
ENDROOT
BRANCH   7  11
ATOM     11  N   UNL     1      32.163 -11.876 -20.495  0.00  0.00    -0.219 N 
ATOM     12  H   UNL     1      32.469 -11.764 -19.565  0.00  0.00    +0.173 HD
BRANCH  11  13
ATOM     13  S   UNL     1      30.908 -10.881 -21.167  0.00  0.00    +0.073 S 
ATOM     14  O   UNL     1      29.931 -10.581 -20.139  0.00  0.00    -0.150 OA
ATOM     15  O   UNL     1      30.489 -11.437 -22.440  0.00  0.00    -0.150 OA
BRANCH  13  16
ATOM     16  C   UNL     1      31.786  -9.388 -21.525  0.00  0.00    +0.125 C 
ATOM     17  C   UNL     1      32.182  -8.572 -20.479  0.00  0.00    +0.020 C 
ATOM     18  C   UNL     1      32.060  -9.065 -22.842  0.00  0.00    +0.020 C 
ATOM     19  C   UNL     1      32.875  -7.395 -20.762  0.00  0.00    +0.001 C 
ATOM     20  C   UNL     1      32.753  -7.888 -23.124  0.00  0.00    +0.001 C 
ATOM     21  C   UNL     1      33.161  -7.053 -22.084  0.00  0.00    +0.000 C 
ENDBRANCH  13  16
ENDBRANCH  11  13
ENDBRANCH   7  11
BRANCH   4  22
ATOM     22  C   UNL     1      35.660 -17.862 -22.781  0.00  0.00    +0.101 C 
BRANCH  22  23
ATOM     23  C   UNL     1      35.252 -18.995 -21.848  0.00  0.00    -0.014 C 
ATOM     24  C   UNL     1      33.933 -19.398 -21.826  0.00  0.00    -0.004 C 
ATOM     25  C   UNL     1      36.215 -19.584 -21.055  0.00  0.00    -0.004 C 
ATOM     26  C   UNL     1      33.559 -20.436 -20.972  0.00  0.00    +0.002 C 
ATOM     27  C   UNL     1      35.842 -20.622 -20.201  0.00  0.00    +0.002 C 
ATOM     28  C   UNL     1      34.514 -21.047 -20.160  0.00  0.00    +0.031 C 
BRANCH  28  31
ATOM     29  N   UNL     1      32.814 -22.602 -19.232  0.00  0.00    -0.343 N 
ATOM     30  N   UNL     1      35.023 -22.680 -18.471  0.00  0.00    -0.285 NA
ATOM     31  C   UNL     1      34.125 -22.129 -19.269  0.00  0.00    +0.117 C 
ATOM     32  H   UNL     1      32.573 -23.335 -18.620  0.00  0.00    +0.144 HD
ATOM     33  H   UNL     1      32.130 -22.203 -19.816  0.00  0.00    +0.144 HD
ATOM     34  H   UNL     1      34.762 -23.412 -17.867  0.00  0.00    +0.188 HD
ENDBRANCH  28  31
ENDBRANCH  22  23
ENDBRANCH   4  22
TORSDOF 6
ENDMDL
