MODEL 1
REMARK VINA RESULT:     -11.6      0.000      0.000
REMARK  Name = 4470378
REMARK  6 active torsions:
REMARK  status: ('A' for Active; 'I' for Inactive)
REMARK    1  A    between atoms: C_5  and  O_10
REMARK    2  A    between atoms: C_6  and  O_24
REMARK    3  A    between atoms: O_10  and  C_11
REMARK    4  A    between atoms: C_12  and  C_19
REMARK    5  A    between atoms: O_24  and  C_25
REMARK    6  A    between atoms: C_26  and  C_33
REMARK                            x       y       z     vdW  Elec       q    Type
REMARK                         _______ _______ _______ _____ _____    ______ ____
ROOT
ATOM      1  F   UNL     1      32.133 -23.737 -17.985  0.00  0.00    -0.221 F 
ATOM      2  F   UNL     1      33.982 -23.114 -13.651  0.00  0.00    -0.199 F 
ATOM      3  N   UNL     1      35.490 -22.844 -16.939  0.00  0.00    -0.331 NA
ATOM      4  C   UNL     1      33.010 -23.437 -15.795  0.00  0.00    +0.031 C 
ATOM      5  C   UNL     1      34.410 -23.145 -17.695  0.00  0.00    +0.298 C 
ATOM      6  C   UNL     1      35.293 -22.848 -15.609  0.00  0.00    +0.312 C 
ATOM      7  C   UNL     1      33.160 -23.446 -17.178  0.00  0.00    +0.270 C 
ATOM      8  C   UNL     1      34.098 -23.131 -14.984  0.00  0.00    +0.201 C 
ATOM      9  C   UNL     1      31.687 -23.754 -15.184  0.00  0.00    +0.032 C 
ENDROOT
BRANCH   5  10
ATOM     10  O   UNL     1      34.585 -23.149 -19.054  0.00  0.00    -0.428 OA
BRANCH  10  11
ATOM     11  C   UNL     1      34.322 -21.976 -19.731  0.00  0.00    +0.148 C 
ATOM     12  C   UNL     1      35.112 -20.017 -20.871  0.00  0.00    +0.032 C 
ATOM     13  C   UNL     1      35.378 -21.204 -20.187  0.00  0.00    +0.040 C 
ATOM     14  C   UNL     1      33.007 -21.594 -19.940  0.00  0.00    +0.038 C 
ATOM     15  C   UNL     1      33.793 -19.620 -21.089  0.00  0.00    +0.003 C 
ATOM     16  C   UNL     1      32.740 -20.408 -20.623  0.00  0.00    +0.003 C 
BRANCH  12  19
ATOM     17  N   UNL     1      37.283 -18.982 -20.584  0.00  0.00    -0.387 N 
ATOM     18  N   UNL     1      36.149 -18.647 -22.577  0.00  0.00    -0.345 N 
ATOM     19  C   UNL     1      36.202 -19.201 -21.354  0.00  0.00    +0.096 C 
ATOM     20  H   UNL     1      38.021 -18.425 -20.920  0.00  0.00    +0.157 HD
ATOM     21  H   UNL     1      37.336 -19.381 -19.685  0.00  0.00    +0.157 HD
ATOM     22  H   UNL     1      36.896 -18.090 -22.898  0.00  0.00    +0.144 HD
ATOM     23  H   UNL     1      35.364 -18.796 -23.151  0.00  0.00    +0.144 HD
ENDBRANCH  12  19
ENDBRANCH  10  11
ENDBRANCH   5  10
BRANCH   6  24
ATOM     24  O   UNL     1      36.393 -22.543 -14.825  0.00  0.00    -0.426 OA
BRANCH  24  25
ATOM     25  C   UNL     1      37.033 -23.571 -14.204  0.00  0.00    +0.148 C 
ATOM     26  C   UNL     1      38.725 -25.295 -14.218  0.00  0.00    +0.034 C 
ATOM     27  C   UNL     1      38.071 -24.240 -14.853  0.00  0.00    +0.040 C 
ATOM     28  C   UNL     1      36.649 -23.958 -12.920  0.00  0.00    +0.038 C 
ATOM     29  C   UNL     1      38.342 -25.682 -12.934  0.00  0.00    +0.003 C 
ATOM     30  C   UNL     1      37.304 -25.013 -12.285  0.00  0.00    +0.003 C 
BRANCH  26  33
ATOM     31  N   UNL     1      40.711 -26.786 -14.190  0.00  0.00    -0.343 N 
ATOM     32  N   UNL     1      39.950 -25.874 -16.203  0.00  0.00    -0.285 NA
ATOM     33  C   UNL     1      39.808 -25.992 -14.895  0.00  0.00    +0.117 C 
ATOM     34  H   UNL     1      41.436 -27.249 -14.668  0.00  0.00    +0.144 HD
ATOM     35  H   UNL     1      40.624 -26.884 -13.214  0.00  0.00    +0.144 HD
ATOM     36  H   UNL     1      40.682 -26.346 -16.662  0.00  0.00    +0.188 HD
ENDBRANCH  26  33
ENDBRANCH  24  25
ENDBRANCH   6  24
TORSDOF 6
ENDMDL
MODEL 2
REMARK VINA RESULT:     -11.5      7.872     13.393
REMARK  Name = 4470378
REMARK  6 active torsions:
REMARK  status: ('A' for Active; 'I' for Inactive)
REMARK    1  A    between atoms: C_5  and  O_10
REMARK    2  A    between atoms: C_6  and  O_24
REMARK    3  A    between atoms: O_10  and  C_11
REMARK    4  A    between atoms: C_12  and  C_19
REMARK    5  A    between atoms: O_24  and  C_25
REMARK    6  A    between atoms: C_26  and  C_33
REMARK                            x       y       z     vdW  Elec       q    Type
REMARK                         _______ _______ _______ _____ _____    ______ ____
ROOT
ATOM      1  F   UNL     1      34.120 -15.312 -20.613  0.00  0.00    -0.221 F 
ATOM      2  F   UNL     1      31.526 -11.981 -22.796  0.00  0.00    -0.199 F 
ATOM      3  N   UNL     1      34.241 -14.056 -24.015  0.00  0.00    -0.331 NA
ATOM      4  C   UNL     1      32.795 -13.638 -21.659  0.00  0.00    +0.031 C 
ATOM      5  C   UNL     1      34.499 -14.755 -22.886  0.00  0.00    +0.298 C 
ATOM      6  C   UNL     1      33.249 -13.151 -23.929  0.00  0.00    +0.312 C 
ATOM      7  C   UNL     1      33.812 -14.586 -21.695  0.00  0.00    +0.270 C 
ATOM      8  C   UNL     1      32.500 -12.899 -22.800  0.00  0.00    +0.201 C 
ATOM      9  C   UNL     1      32.024 -13.414 -20.402  0.00  0.00    +0.032 C 
ENDROOT
BRANCH   5  10
ATOM     10  O   UNL     1      35.506 -15.681 -22.947  0.00  0.00    -0.428 OA
BRANCH  10  11
ATOM     11  C   UNL     1      35.142 -17.008 -23.060  0.00  0.00    +0.148 C 
ATOM     12  C   UNL     1      34.942 -19.193 -22.088  0.00  0.00    +0.032 C 
ATOM     13  C   UNL     1      35.309 -17.851 -21.973  0.00  0.00    +0.040 C 
ATOM     14  C   UNL     1      34.619 -17.468 -24.257  0.00  0.00    +0.038 C 
ATOM     15  C   UNL     1      34.413 -19.671 -23.287  0.00  0.00    +0.003 C 
ATOM     16  C   UNL     1      34.252 -18.809 -24.372  0.00  0.00    +0.003 C 
BRANCH  12  19
ATOM     17  N   UNL     1      34.073 -20.814 -20.512  0.00  0.00    -0.387 N 
ATOM     18  N   UNL     1      36.301 -20.199 -20.355  0.00  0.00    -0.345 N 
ATOM     19  C   UNL     1      35.109 -20.086 -20.964  0.00  0.00    +0.096 C 
ATOM     20  H   UNL     1      34.195 -21.420 -19.746  0.00  0.00    +0.157 HD
ATOM     21  H   UNL     1      33.193 -20.741 -20.947  0.00  0.00    +0.157 HD
ATOM     22  H   UNL     1      36.407 -20.810 -19.589  0.00  0.00    +0.144 HD
ATOM     23  H   UNL     1      37.069 -19.672 -20.674  0.00  0.00    +0.144 HD
ENDBRANCH  12  19
ENDBRANCH  10  11
ENDBRANCH   5  10
BRANCH   6  24
ATOM     24  O   UNL     1      32.977 -12.428 -25.078  0.00  0.00    -0.426 OA
BRANCH  24  25
ATOM     25  C   UNL     1      33.738 -11.328 -25.328  0.00  0.00    +0.148 C 
ATOM     26  C   UNL     1      34.542  -9.147 -24.670  0.00  0.00    +0.034 C 
ATOM     27  C   UNL     1      33.763 -10.275 -24.414  0.00  0.00    +0.040 C 
ATOM     28  C   UNL     1      34.492 -11.253 -26.499  0.00  0.00    +0.038 C 
ATOM     29  C   UNL     1      35.296  -9.071 -25.842  0.00  0.00    +0.003 C 
ATOM     30  C   UNL     1      35.271 -10.125 -26.756  0.00  0.00    +0.003 C 
BRANCH  26  33
ATOM     31  N   UNL     1      33.465  -7.760 -22.915  0.00  0.00    -0.343 N 
ATOM     32  N   UNL     1      35.650  -7.300 -23.604  0.00  0.00    -0.285 NA
ATOM     33  C   UNL     1      34.568  -8.048 -23.717  0.00  0.00    +0.117 C 
ATOM     34  H   UNL     1      33.504  -7.012 -22.277  0.00  0.00    +0.144 HD
ATOM     35  H   UNL     1      32.648  -8.304 -22.987  0.00  0.00    +0.144 HD
ATOM     36  H   UNL     1      35.669  -6.557 -22.959  0.00  0.00    +0.188 HD
ENDBRANCH  26  33
ENDBRANCH  24  25
ENDBRANCH   6  24
TORSDOF 6
ENDMDL
MODEL 3
REMARK VINA RESULT:     -11.3      8.155     11.834
REMARK  Name = 4470378
REMARK  6 active torsions:
REMARK  status: ('A' for Active; 'I' for Inactive)
REMARK    1  A    between atoms: C_5  and  O_10
REMARK    2  A    between atoms: C_6  and  O_24
REMARK    3  A    between atoms: O_10  and  C_11
REMARK    4  A    between atoms: C_12  and  C_19
REMARK    5  A    between atoms: O_24  and  C_25
REMARK    6  A    between atoms: C_26  and  C_33
REMARK                            x       y       z     vdW  Elec       q    Type
REMARK                         _______ _______ _______ _____ _____    ______ ____
ROOT
ATOM      1  F   UNL     1      31.500 -11.716 -22.511  0.00  0.00    -0.221 F 
ATOM      2  F   UNL     1      33.944 -15.359 -20.682  0.00  0.00    -0.199 F 
ATOM      3  N   UNL     1      34.229 -13.675 -23.882  0.00  0.00    -0.331 NA
ATOM      4  C   UNL     1      32.692 -13.535 -21.551  0.00  0.00    +0.031 C 
ATOM      5  C   UNL     1      33.246 -12.758 -23.729  0.00  0.00    +0.298 C 
ATOM      6  C   UNL     1      34.416 -14.510 -22.845  0.00  0.00    +0.312 C 
ATOM      7  C   UNL     1      32.457 -12.647 -22.596  0.00  0.00    +0.270 C 
ATOM      8  C   UNL     1      33.694 -14.492 -21.671  0.00  0.00    +0.201 C 
ATOM      9  C   UNL     1      31.872 -13.462 -20.308  0.00  0.00    +0.032 C 
ENDROOT
BRANCH   5  10
ATOM     10  O   UNL     1      33.034 -11.896 -24.773  0.00  0.00    -0.428 OA
BRANCH  10  11
ATOM     11  C   UNL     1      33.779 -10.735 -24.799  0.00  0.00    +0.148 C 
ATOM     12  C   UNL     1      34.130  -8.480 -24.057  0.00  0.00    +0.032 C 
ATOM     13  C   UNL     1      33.377  -9.655 -24.030  0.00  0.00    +0.040 C 
ATOM     14  C   UNL     1      34.912 -10.673 -25.593  0.00  0.00    +0.038 C 
ATOM     15  C   UNL     1      35.274  -8.403 -24.851  0.00  0.00    +0.003 C 
ATOM     16  C   UNL     1      35.665  -9.499 -25.620  0.00  0.00    +0.003 C 
BRANCH  12  19
ATOM     17  N   UNL     1      33.746  -6.104 -23.782  0.00  0.00    -0.387 N 
ATOM     18  N   UNL     1      33.323  -7.510 -21.990  0.00  0.00    -0.345 N 
ATOM     19  C   UNL     1      33.725  -7.343 -23.261  0.00  0.00    +0.096 C 
ATOM     20  H   UNL     1      33.469  -5.335 -23.233  0.00  0.00    +0.157 HD
ATOM     21  H   UNL     1      34.039  -5.966 -24.712  0.00  0.00    +0.157 HD
ATOM     22  H   UNL     1      33.050  -6.731 -21.453  0.00  0.00    +0.144 HD
ATOM     23  H   UNL     1      33.304  -8.411 -21.594  0.00  0.00    +0.144 HD
ENDBRANCH  12  19
ENDBRANCH  10  11
ENDBRANCH   5  10
BRANCH   6  24
ATOM     24  O   UNL     1      35.419 -15.454 -22.990  0.00  0.00    -0.426 OA
BRANCH  24  25
ATOM     25  C   UNL     1      35.046 -16.752 -23.158  0.00  0.00    +0.148 C 
ATOM     26  C   UNL     1      34.750 -18.976 -22.263  0.00  0.00    +0.034 C 
ATOM     27  C   UNL     1      35.131 -17.646 -22.091  0.00  0.00    +0.040 C 
ATOM     28  C   UNL     1      34.580 -17.189 -24.398  0.00  0.00    +0.038 C 
ATOM     29  C   UNL     1      34.284 -19.414 -23.503  0.00  0.00    +0.003 C 
ATOM     30  C   UNL     1      34.198 -18.519 -24.570  0.00  0.00    +0.003 C 
BRANCH  26  33
ATOM     31  N   UNL     1      33.706 -20.540 -20.641  0.00  0.00    -0.343 N 
ATOM     32  N   UNL     1      36.012 -20.165 -20.598  0.00  0.00    -0.285 NA
ATOM     33  C   UNL     1      34.839 -19.909 -21.149  0.00  0.00    +0.117 C 
ATOM     34  H   UNL     1      33.788 -21.167 -19.887  0.00  0.00    +0.144 HD
ATOM     35  H   UNL     1      32.822 -20.360 -21.036  0.00  0.00    +0.144 HD
ATOM     36  H   UNL     1      36.074 -20.795 -19.845  0.00  0.00    +0.188 HD
ENDBRANCH  26  33
ENDBRANCH  24  25
ENDBRANCH   6  24
TORSDOF 6
ENDMDL
MODEL 4
REMARK VINA RESULT:     -11.1      1.641      2.232
REMARK  Name = 4470378
REMARK  6 active torsions:
REMARK  status: ('A' for Active; 'I' for Inactive)
REMARK    1  A    between atoms: C_5  and  O_10
REMARK    2  A    between atoms: C_6  and  O_24
REMARK    3  A    between atoms: O_10  and  C_11
REMARK    4  A    between atoms: C_12  and  C_19
REMARK    5  A    between atoms: O_24  and  C_25
REMARK    6  A    between atoms: C_26  and  C_33
REMARK                            x       y       z     vdW  Elec       q    Type
REMARK                         _______ _______ _______ _____ _____    ______ ____
ROOT
ATOM      1  F   UNL     1      30.499 -22.157 -17.582  0.00  0.00    -0.221 F 
ATOM      2  F   UNL     1      32.300 -24.212 -13.693  0.00  0.00    -0.199 F 
ATOM      3  N   UNL     1      33.611 -23.949 -17.065  0.00  0.00    -0.331 NA
ATOM      4  C   UNL     1      31.356 -23.170 -15.609  0.00  0.00    +0.031 C 
ATOM      5  C   UNL     1      32.601 -23.253 -17.634  0.00  0.00    +0.298 C 
ATOM      6  C   UNL     1      33.460 -24.240 -15.760  0.00  0.00    +0.312 C 
ATOM      7  C   UNL     1      31.463 -22.844 -16.957  0.00  0.00    +0.270 C 
ATOM      8  C   UNL     1      32.375 -23.885 -14.989  0.00  0.00    +0.201 C 
ATOM      9  C   UNL     1      30.152 -22.755 -14.832  0.00  0.00    +0.032 C 
ENDROOT
BRANCH   5  10
ATOM     10  O   UNL     1      32.730 -22.946 -18.962  0.00  0.00    -0.428 OA
BRANCH  10  11
ATOM     11  C   UNL     1      33.829 -22.199 -19.337  0.00  0.00    +0.148 C 
ATOM     12  C   UNL     1      34.777 -20.401 -20.613  0.00  0.00    +0.032 C 
ATOM     13  C   UNL     1      33.665 -21.156 -20.234  0.00  0.00    +0.040 C 
ATOM     14  C   UNL     1      35.071 -22.509 -18.809  0.00  0.00    +0.038 C 
ATOM     15  C   UNL     1      36.034 -20.701 -20.090  0.00  0.00    +0.003 C 
ATOM     16  C   UNL     1      36.182 -21.755 -19.188  0.00  0.00    +0.003 C 
BRANCH  12  19
ATOM     17  N   UNL     1      35.087 -18.084 -21.246  0.00  0.00    -0.387 N 
ATOM     18  N   UNL     1      34.016 -19.504 -22.730  0.00  0.00    -0.345 N 
ATOM     19  C   UNL     1      34.624 -19.310 -21.548  0.00  0.00    +0.096 C 
ATOM     20  H   UNL     1      34.979 -17.345 -21.887  0.00  0.00    +0.157 HD
ATOM     21  H   UNL     1      35.534 -17.925 -20.383  0.00  0.00    +0.157 HD
ATOM     22  H   UNL     1      33.915 -18.755 -23.361  0.00  0.00    +0.144 HD
ATOM     23  H   UNL     1      33.670 -20.396 -22.965  0.00  0.00    +0.144 HD
ENDBRANCH  12  19
ENDBRANCH  10  11
ENDBRANCH   5  10
BRANCH   6  24
ATOM     24  O   UNL     1      34.488 -24.954 -15.168  0.00  0.00    -0.426 OA
BRANCH  24  25
ATOM     25  C   UNL     1      35.754 -24.474 -15.307  0.00  0.00    +0.148 C 
ATOM     26  C   UNL     1      38.143 -24.825 -15.246  0.00  0.00    +0.034 C 
ATOM     27  C   UNL     1      36.846 -25.318 -15.105  0.00  0.00    +0.040 C 
ATOM     28  C   UNL     1      35.959 -23.138 -15.651  0.00  0.00    +0.038 C 
ATOM     29  C   UNL     1      38.349 -23.489 -15.590  0.00  0.00    +0.003 C 
ATOM     30  C   UNL     1      37.256 -22.646 -15.793  0.00  0.00    +0.003 C 
BRANCH  26  33
ATOM     31  N   UNL     1      39.524 -26.291 -13.794  0.00  0.00    -0.343 N 
ATOM     32  N   UNL     1      40.114 -25.957 -16.030  0.00  0.00    -0.285 NA
ATOM     33  C   UNL     1      39.282 -25.705 -15.035  0.00  0.00    +0.117 C 
ATOM     34  H   UNL     1      40.300 -26.884 -13.672  0.00  0.00    +0.144 HD
ATOM     35  H   UNL     1      38.917 -26.114 -13.038  0.00  0.00    +0.144 HD
ATOM     36  H   UNL     1      40.885 -26.552 -15.888  0.00  0.00    +0.188 HD
ENDBRANCH  26  33
ENDBRANCH  24  25
ENDBRANCH   6  24
TORSDOF 6
ENDMDL
MODEL 5
REMARK VINA RESULT:     -11.1      2.713      5.062
REMARK  Name = 4470378
REMARK  6 active torsions:
REMARK  status: ('A' for Active; 'I' for Inactive)
REMARK    1  A    between atoms: C_5  and  O_10
REMARK    2  A    between atoms: C_6  and  O_24
REMARK    3  A    between atoms: O_10  and  C_11
REMARK    4  A    between atoms: C_12  and  C_19
REMARK    5  A    between atoms: O_24  and  C_25
REMARK    6  A    between atoms: C_26  and  C_33
REMARK                            x       y       z     vdW  Elec       q    Type
REMARK                         _______ _______ _______ _____ _____    ______ ____
ROOT
ATOM      1  F   UNL     1      33.950 -22.681 -19.695  0.00  0.00    -0.221 F 
ATOM      2  F   UNL     1      37.647 -21.165 -17.121  0.00  0.00    -0.199 F 
ATOM      3  N   UNL     1      34.753 -23.143 -16.187  0.00  0.00    -0.331 NA
ATOM      4  C   UNL     1      35.819 -21.899 -18.452  0.00  0.00    +0.031 C 
ATOM      5  C   UNL     1      34.132 -23.192 -17.387  0.00  0.00    +0.298 C 
ATOM      6  C   UNL     1      35.911 -22.460 -16.156  0.00  0.00    +0.312 C 
ATOM      7  C   UNL     1      34.618 -22.594 -18.538  0.00  0.00    +0.270 C 
ATOM      8  C   UNL     1      36.489 -21.825 -17.235  0.00  0.00    +0.201 C 
ATOM      9  C   UNL     1      36.388 -21.234 -19.659  0.00  0.00    +0.032 C 
ENDROOT
BRANCH   5  10
ATOM     10  O   UNL     1      32.949 -23.882 -17.445  0.00  0.00    -0.428 OA
BRANCH  10  11
ATOM     11  C   UNL     1      31.975 -23.550 -16.526  0.00  0.00    +0.148 C 
ATOM     12  C   UNL     1      29.678 -23.076 -16.019  0.00  0.00    +0.032 C 
ATOM     13  C   UNL     1      30.663 -23.412 -16.949  0.00  0.00    +0.040 C 
ATOM     14  C   UNL     1      32.330 -23.362 -15.201  0.00  0.00    +0.038 C 
ATOM     15  C   UNL     1      30.020 -22.883 -14.680  0.00  0.00    +0.003 C 
ATOM     16  C   UNL     1      31.346 -23.026 -14.271  0.00  0.00    +0.003 C 
BRANCH  12  19
ATOM     17  N   UNL     1      27.933 -23.276 -17.687  0.00  0.00    -0.387 N 
ATOM     18  N   UNL     1      27.380 -22.437 -15.599  0.00  0.00    -0.345 N 
ATOM     19  C   UNL     1      28.304 -22.927 -16.442  0.00  0.00    +0.096 C 
ATOM     20  H   UNL     1      26.996 -23.172 -17.968  0.00  0.00    +0.157 HD
ATOM     21  H   UNL     1      28.600 -23.636 -18.316  0.00  0.00    +0.157 HD
ATOM     22  H   UNL     1      26.446 -22.338 -15.896  0.00  0.00    +0.144 HD
ATOM     23  H   UNL     1      27.637 -22.175 -14.686  0.00  0.00    +0.144 HD
ENDBRANCH  12  19
ENDBRANCH  10  11
ENDBRANCH   5  10
BRANCH   6  24
ATOM     24  O   UNL     1      36.556 -22.401 -14.931  0.00  0.00    -0.426 OA
BRANCH  24  25
ATOM     25  C   UNL     1      37.010 -23.568 -14.399  0.00  0.00    +0.148 C 
ATOM     26  C   UNL     1      38.609 -25.380 -14.388  0.00  0.00    +0.034 C 
ATOM     27  C   UNL     1      38.143 -24.183 -14.932  0.00  0.00    +0.040 C 
ATOM     28  C   UNL     1      36.342 -24.151 -13.323  0.00  0.00    +0.038 C 
ATOM     29  C   UNL     1      37.940 -25.963 -13.312  0.00  0.00    +0.003 C 
ATOM     30  C   UNL     1      36.807 -25.348 -12.779  0.00  0.00    +0.003 C 
BRANCH  26  33
ATOM     31  N   UNL     1      40.668 -26.745 -14.139  0.00  0.00    -0.343 N 
ATOM     32  N   UNL     1      40.050 -25.917 -16.235  0.00  0.00    -0.285 NA
ATOM     33  C   UNL     1      39.790 -26.021 -14.944  0.00  0.00    +0.117 C 
ATOM     34  H   UNL     1      41.462 -27.170 -14.535  0.00  0.00    +0.144 HD
ATOM     35  H   UNL     1      40.494 -26.831 -13.174  0.00  0.00    +0.144 HD
ATOM     36  H   UNL     1      40.849 -26.350 -16.612  0.00  0.00    +0.188 HD
ENDBRANCH  26  33
ENDBRANCH  24  25
ENDBRANCH   6  24
TORSDOF 6
ENDMDL
MODEL 6
REMARK VINA RESULT:     -11.0      3.247      5.529
REMARK  Name = 4470378
REMARK  6 active torsions:
REMARK  status: ('A' for Active; 'I' for Inactive)
REMARK    1  A    between atoms: C_5  and  O_10
REMARK    2  A    between atoms: C_6  and  O_24
REMARK    3  A    between atoms: O_10  and  C_11
REMARK    4  A    between atoms: C_12  and  C_19
REMARK    5  A    between atoms: O_24  and  C_25
REMARK    6  A    between atoms: C_26  and  C_33
REMARK                            x       y       z     vdW  Elec       q    Type
REMARK                         _______ _______ _______ _____ _____    ______ ____
ROOT
ATOM      1  F   UNL     1      33.493 -22.599 -19.758  0.00  0.00    -0.221 F 
ATOM      2  F   UNL     1      37.550 -21.035 -17.837  0.00  0.00    -0.199 F 
ATOM      3  N   UNL     1      35.010 -23.274 -16.532  0.00  0.00    -0.331 NA
ATOM      4  C   UNL     1      35.532 -21.788 -18.842  0.00  0.00    +0.031 C 
ATOM      5  C   UNL     1      34.163 -23.273 -17.586  0.00  0.00    +0.298 C 
ATOM      6  C   UNL     1      36.114 -22.516 -16.668  0.00  0.00    +0.312 C 
ATOM      7  C   UNL     1      34.375 -22.555 -18.752  0.00  0.00    +0.270 C 
ATOM      8  C   UNL     1      36.428 -21.763 -17.778  0.00  0.00    +0.201 C 
ATOM      9  C   UNL     1      35.810 -20.995 -20.073  0.00  0.00    +0.032 C 
ENDROOT
BRANCH   5  10
ATOM     10  O   UNL     1      33.031 -24.035 -17.471  0.00  0.00    -0.428 OA
BRANCH  10  11
ATOM     11  C   UNL     1      32.089 -23.639 -16.543  0.00  0.00    +0.148 C 
ATOM     12  C   UNL     1      29.823 -23.066 -16.003  0.00  0.00    +0.032 C 
ATOM     13  C   UNL     1      30.774 -23.468 -16.942  0.00  0.00    +0.040 C 
ATOM     14  C   UNL     1      32.480 -23.420 -15.232  0.00  0.00    +0.038 C 
ATOM     15  C   UNL     1      30.201 -22.842 -14.680  0.00  0.00    +0.003 C 
ATOM     16  C   UNL     1      31.530 -23.019 -14.294  0.00  0.00    +0.003 C 
BRANCH  12  19
ATOM     17  N   UNL     1      27.543 -22.394 -15.534  0.00  0.00    -0.387 N 
ATOM     18  N   UNL     1      28.048 -23.201 -17.646  0.00  0.00    -0.345 N 
ATOM     19  C   UNL     1      28.446 -22.883 -16.403  0.00  0.00    +0.096 C 
ATOM     20  H   UNL     1      26.607 -22.272 -15.814  0.00  0.00    +0.157 HD
ATOM     21  H   UNL     1      27.819 -22.157 -14.619  0.00  0.00    +0.157 HD
ATOM     22  H   UNL     1      27.108 -23.074 -17.911  0.00  0.00    +0.144 HD
ATOM     23  H   UNL     1      28.697 -23.562 -18.293  0.00  0.00    +0.144 HD
ENDBRANCH  12  19
ENDBRANCH  10  11
ENDBRANCH   5  10
BRANCH   6  24
ATOM     24  O   UNL     1      36.988 -22.508 -15.594  0.00  0.00    -0.426 OA
BRANCH  24  25
ATOM     25  C   UNL     1      36.981 -23.587 -14.765  0.00  0.00    +0.148 C 
ATOM     26  C   UNL     1      36.493 -24.567 -12.610  0.00  0.00    +0.034 C 
ATOM     27  C   UNL     1      36.499 -23.462 -13.461  0.00  0.00    +0.040 C 
ATOM     28  C   UNL     1      37.458 -24.817 -15.216  0.00  0.00    +0.038 C 
ATOM     29  C   UNL     1      36.970 -25.797 -13.062  0.00  0.00    +0.003 C 
ATOM     30  C   UNL     1      37.452 -25.922 -14.365  0.00  0.00    +0.003 C 
BRANCH  26  33
ATOM     31  N   UNL     1      36.427 -23.412 -10.413  0.00  0.00    -0.343 N 
ATOM     32  N   UNL     1      35.106 -25.302 -10.791  0.00  0.00    -0.285 NA
ATOM     33  C   UNL     1      35.991 -24.436 -11.252  0.00  0.00    +0.117 C 
ATOM     34  H   UNL     1      36.075 -23.342  -9.497  0.00  0.00    +0.144 HD
ATOM     35  H   UNL     1      37.089 -22.758 -10.737  0.00  0.00    +0.144 HD
ATOM     36  H   UNL     1      34.766 -25.215  -9.872  0.00  0.00    +0.188 HD
ENDBRANCH  26  33
ENDBRANCH  24  25
ENDBRANCH   6  24
TORSDOF 6
ENDMDL
MODEL 7
REMARK VINA RESULT:     -10.8      2.508      3.043
REMARK  Name = 4470378
REMARK  6 active torsions:
REMARK  status: ('A' for Active; 'I' for Inactive)
REMARK    1  A    between atoms: C_5  and  O_10
REMARK    2  A    between atoms: C_6  and  O_24
REMARK    3  A    between atoms: O_10  and  C_11
REMARK    4  A    between atoms: C_12  and  C_19
REMARK    5  A    between atoms: O_24  and  C_25
REMARK    6  A    between atoms: C_26  and  C_33
REMARK                            x       y       z     vdW  Elec       q    Type
REMARK                         _______ _______ _______ _____ _____    ______ ____
ROOT
ATOM      1  F   UNL     1      30.382 -22.046 -17.592  0.00  0.00    -0.221 F 
ATOM      2  F   UNL     1      32.478 -24.631 -14.199  0.00  0.00    -0.199 F 
ATOM      3  N   UNL     1      33.595 -23.731 -17.531  0.00  0.00    -0.331 NA
ATOM      4  C   UNL     1      31.388 -23.332 -15.863  0.00  0.00    +0.031 C 
ATOM      5  C   UNL     1      32.525 -23.004 -17.926  0.00  0.00    +0.298 C 
ATOM      6  C   UNL     1      33.527 -24.246 -16.290  0.00  0.00    +0.312 C 
ATOM      7  C   UNL     1      31.409 -22.776 -17.138  0.00  0.00    +0.270 C 
ATOM      8  C   UNL     1      32.469 -24.086 -15.421  0.00  0.00    +0.201 C 
ATOM      9  C   UNL     1      30.210 -23.120 -14.974  0.00  0.00    +0.032 C 
ENDROOT
BRANCH   5  10
ATOM     10  O   UNL     1      32.570 -22.469 -19.186  0.00  0.00    -0.428 OA
BRANCH  10  11
ATOM     11  C   UNL     1      33.737 -21.838 -19.567  0.00  0.00    +0.148 C 
ATOM     12  C   UNL     1      34.854 -20.133 -20.832  0.00  0.00    +0.032 C 
ATOM     13  C   UNL     1      33.674 -20.770 -20.447  0.00  0.00    +0.040 C 
ATOM     14  C   UNL     1      34.946 -22.287 -19.062  0.00  0.00    +0.038 C 
ATOM     15  C   UNL     1      36.080 -20.573 -20.333  0.00  0.00    +0.003 C 
ATOM     16  C   UNL     1      36.126 -21.651 -19.448  0.00  0.00    +0.003 C 
BRANCH  12  19
ATOM     17  N   UNL     1      35.097 -17.774 -21.327  0.00  0.00    -0.387 N 
ATOM     18  N   UNL     1      34.470 -19.206 -23.036  0.00  0.00    -0.345 N 
ATOM     19  C   UNL     1      34.807 -19.017 -21.749  0.00  0.00    +0.096 C 
ATOM     20  H   UNL     1      35.062 -17.019 -21.957  0.00  0.00    +0.157 HD
ATOM     21  H   UNL     1      35.345 -17.620 -20.386  0.00  0.00    +0.157 HD
ATOM     22  H   UNL     1      34.438 -18.440 -23.655  0.00  0.00    +0.144 HD
ATOM     23  H   UNL     1      34.253 -20.110 -23.361  0.00  0.00    +0.144 HD
ENDBRANCH  12  19
ENDBRANCH  10  11
ENDBRANCH   5  10
BRANCH   6  24
ATOM     24  O   UNL     1      34.616 -24.994 -15.876  0.00  0.00    -0.426 OA
BRANCH  24  25
ATOM     25  C   UNL     1      35.459 -24.434 -14.967  0.00  0.00    +0.148 C 
ATOM     26  C   UNL     1      36.115 -24.063 -12.671  0.00  0.00    +0.034 C 
ATOM     27  C   UNL     1      35.251 -24.639 -13.603  0.00  0.00    +0.040 C 
ATOM     28  C   UNL     1      36.530 -23.651 -15.399  0.00  0.00    +0.038 C 
ATOM     29  C   UNL     1      37.186 -23.281 -13.102  0.00  0.00    +0.003 C 
ATOM     30  C   UNL     1      37.394 -23.075 -14.467  0.00  0.00    +0.003 C 
BRANCH  26  33
ATOM     31  N   UNL     1      36.404 -23.394 -10.297  0.00  0.00    -0.343 N 
ATOM     32  N   UNL     1      35.213 -25.331 -10.838  0.00  0.00    -0.285 NA
ATOM     33  C   UNL     1      35.897 -24.278 -11.248  0.00  0.00    +0.117 C 
ATOM     34  H   UNL     1      36.246 -23.558  -9.340  0.00  0.00    +0.144 HD
ATOM     35  H   UNL     1      36.920 -22.605 -10.582  0.00  0.00    +0.144 HD
ATOM     36  H   UNL     1      35.065 -25.477  -9.876  0.00  0.00    +0.188 HD
ENDBRANCH  26  33
ENDBRANCH  24  25
ENDBRANCH   6  24
TORSDOF 6
ENDMDL
MODEL 8
REMARK VINA RESULT:     -10.8     10.937     14.997
REMARK  Name = 4470378
REMARK  6 active torsions:
REMARK  status: ('A' for Active; 'I' for Inactive)
REMARK    1  A    between atoms: C_5  and  O_10
REMARK    2  A    between atoms: C_6  and  O_24
REMARK    3  A    between atoms: O_10  and  C_11
REMARK    4  A    between atoms: C_12  and  C_19
REMARK    5  A    between atoms: O_24  and  C_25
REMARK    6  A    between atoms: C_26  and  C_33
REMARK                            x       y       z     vdW  Elec       q    Type
REMARK                         _______ _______ _______ _____ _____    ______ ____
ROOT
ATOM      1  F   UNL     1      35.988  -9.188 -26.620  0.00  0.00    -0.221 F 
ATOM      2  F   UNL     1      33.281 -13.082 -26.315  0.00  0.00    -0.199 F 
ATOM      3  N   UNL     1      34.109 -10.564 -23.838  0.00  0.00    -0.331 NA
ATOM      4  C   UNL     1      34.645 -11.147 -26.519  0.00  0.00    +0.031 C 
ATOM      5  C   UNL     1      34.900  -9.771 -24.596  0.00  0.00    +0.298 C 
ATOM      6  C   UNL     1      33.601 -11.645 -24.456  0.00  0.00    +0.312 C 
ATOM      7  C   UNL     1      35.196 -10.015 -25.928  0.00  0.00    +0.270 C 
ATOM      8  C   UNL     1      33.827 -11.987 -25.772  0.00  0.00    +0.201 C 
ATOM      9  C   UNL     1      34.932 -11.459 -27.949  0.00  0.00    +0.032 C 
ENDROOT
BRANCH   5  10
ATOM     10  O   UNL     1      35.431  -8.663 -23.990  0.00  0.00    -0.428 OA
BRANCH  10  11
ATOM     11  C   UNL     1      34.655  -7.523 -23.958  0.00  0.00    +0.148 C 
ATOM     12  C   UNL     1      34.004  -5.430 -24.934  0.00  0.00    +0.032 C 
ATOM     13  C   UNL     1      34.788  -6.584 -24.967  0.00  0.00    +0.040 C 
ATOM     14  C   UNL     1      33.759  -7.341 -22.917  0.00  0.00    +0.038 C 
ATOM     15  C   UNL     1      33.097  -5.233 -23.893  0.00  0.00    +0.003 C 
ATOM     16  C   UNL     1      32.975  -6.188 -22.884  0.00  0.00    +0.003 C 
BRANCH  12  19
ATOM     17  N   UNL     1      33.229  -3.449 -26.093  0.00  0.00    -0.387 N 
ATOM     18  N   UNL     1      35.149  -4.498 -26.854  0.00  0.00    -0.345 N 
ATOM     19  C   UNL     1      34.130  -4.440 -25.980  0.00  0.00    +0.096 C 
ATOM     20  H   UNL     1      33.322  -2.778 -26.807  0.00  0.00    +0.157 HD
ATOM     21  H   UNL     1      32.476  -3.393 -25.460  0.00  0.00    +0.157 HD
ATOM     22  H   UNL     1      35.228  -3.820 -27.564  0.00  0.00    +0.144 HD
ATOM     23  H   UNL     1      35.816  -5.219 -26.785  0.00  0.00    +0.144 HD
ENDBRANCH  12  19
ENDBRANCH  10  11
ENDBRANCH   5  10
BRANCH   6  24
ATOM     24  O   UNL     1      32.791 -12.466 -23.689  0.00  0.00    -0.426 OA
BRANCH  24  25
ATOM     25  C   UNL     1      33.377 -13.513 -23.048  0.00  0.00    +0.148 C 
ATOM     26  C   UNL     1      34.564 -15.616 -23.129  0.00  0.00    +0.034 C 
ATOM     27  C   UNL     1      33.964 -14.542 -23.785  0.00  0.00    +0.040 C 
ATOM     28  C   UNL     1      33.390 -13.559 -21.654  0.00  0.00    +0.038 C 
ATOM     29  C   UNL     1      34.577 -15.663 -21.735  0.00  0.00    +0.003 C 
ATOM     30  C   UNL     1      33.991 -14.633 -20.998  0.00  0.00    +0.003 C 
BRANCH  26  33
ATOM     31  N   UNL     1      35.923 -17.689 -23.278  0.00  0.00    -0.343 N 
ATOM     32  N   UNL     1      35.031 -16.724 -25.210  0.00  0.00    -0.285 NA
ATOM     33  C   UNL     1      35.175 -16.689 -23.898  0.00  0.00    +0.117 C 
ATOM     34  H   UNL     1      36.328 -18.406 -23.817  0.00  0.00    +0.144 HD
ATOM     35  H   UNL     1      36.045 -17.680 -22.301  0.00  0.00    +0.144 HD
ATOM     36  H   UNL     1      35.444 -17.449 -25.731  0.00  0.00    +0.188 HD
ENDBRANCH  26  33
ENDBRANCH  24  25
ENDBRANCH   6  24
TORSDOF 6
ENDMDL
MODEL 9
REMARK VINA RESULT:     -10.7      3.061      7.839
REMARK  Name = 4470378
REMARK  6 active torsions:
REMARK  status: ('A' for Active; 'I' for Inactive)
REMARK    1  A    between atoms: C_5  and  O_10
REMARK    2  A    between atoms: C_6  and  O_24
REMARK    3  A    between atoms: O_10  and  C_11
REMARK    4  A    between atoms: C_12  and  C_19
REMARK    5  A    between atoms: O_24  and  C_25
REMARK    6  A    between atoms: C_26  and  C_33
REMARK                            x       y       z     vdW  Elec       q    Type
REMARK                         _______ _______ _______ _____ _____    ______ ____
ROOT
ATOM      1  F   UNL     1      37.276 -20.714 -18.533  0.00  0.00    -0.221 F 
ATOM      2  F   UNL     1      33.130 -22.691 -19.756  0.00  0.00    -0.199 F 
ATOM      3  N   UNL     1      35.216 -23.165 -16.826  0.00  0.00    -0.331 NA
ATOM      4  C   UNL     1      35.203 -21.674 -19.191  0.00  0.00    +0.031 C 
ATOM      5  C   UNL     1      36.215 -22.306 -17.134  0.00  0.00    +0.298 C 
ATOM      6  C   UNL     1      34.222 -23.254 -17.728  0.00  0.00    +0.312 C 
ATOM      7  C   UNL     1      36.255 -21.545 -18.290  0.00  0.00    +0.270 C 
ATOM      8  C   UNL     1      34.157 -22.547 -18.910  0.00  0.00    +0.201 C 
ATOM      9  C   UNL     1      35.195 -20.880 -20.452  0.00  0.00    +0.032 C 
ENDROOT
BRANCH   5  10
ATOM     10  O   UNL     1      37.240 -22.199 -16.231  0.00  0.00    -0.428 OA
BRANCH  10  11
ATOM     11  C   UNL     1      37.406 -23.233 -15.333  0.00  0.00    +0.148 C 
ATOM     12  C   UNL     1      36.824 -24.296 -13.262  0.00  0.00    +0.032 C 
ATOM     13  C   UNL     1      36.654 -23.250 -14.170  0.00  0.00    +0.040 C 
ATOM     14  C   UNL     1      38.323 -24.234 -15.614  0.00  0.00    +0.038 C 
ATOM     15  C   UNL     1      37.743 -25.310 -13.530  0.00  0.00    +0.003 C 
ATOM     16  C   UNL     1      38.493 -25.279 -14.706  0.00  0.00    +0.003 C 
BRANCH  12  19
ATOM     17  N   UNL     1      36.501 -23.729 -10.929  0.00  0.00    -0.387 N 
ATOM     18  N   UNL     1      34.861 -24.959 -12.008  0.00  0.00    -0.345 N 
ATOM     19  C   UNL     1      36.047 -24.328 -12.044  0.00  0.00    +0.096 C 
ATOM     20  H   UNL     1      35.966 -23.755 -10.103  0.00  0.00    +0.157 HD
ATOM     21  H   UNL     1      37.369 -23.263 -10.940  0.00  0.00    +0.157 HD
ATOM     22  H   UNL     1      34.338 -24.978 -11.174  0.00  0.00    +0.144 HD
ATOM     23  H   UNL     1      34.516 -25.404 -12.815  0.00  0.00    +0.144 HD
ENDBRANCH  12  19
ENDBRANCH  10  11
ENDBRANCH   5  10
BRANCH   6  24
ATOM     24  O   UNL     1      33.195 -24.132 -17.425  0.00  0.00    -0.426 OA
BRANCH  24  25
ATOM     25  C   UNL     1      32.277 -23.736 -16.502  0.00  0.00    +0.148 C 
ATOM     26  C   UNL     1      30.020 -23.078 -15.945  0.00  0.00    +0.034 C 
ATOM     27  C   UNL     1      30.961 -23.485 -16.891  0.00  0.00    +0.040 C 
ATOM     28  C   UNL     1      32.652 -23.578 -15.168  0.00  0.00    +0.038 C 
ATOM     29  C   UNL     1      30.395 -22.920 -14.611  0.00  0.00    +0.003 C 
ATOM     30  C   UNL     1      31.711 -23.171 -14.222  0.00  0.00    +0.003 C 
BRANCH  26  33
ATOM     31  N   UNL     1      28.149 -23.287 -17.564  0.00  0.00    -0.343 N 
ATOM     32  N   UNL     1      27.851 -22.115 -15.564  0.00  0.00    -0.285 NA
ATOM     33  C   UNL     1      28.647 -22.816 -16.351  0.00  0.00    +0.117 C 
ATOM     34  H   UNL     1      27.217 -23.098 -17.819  0.00  0.00    +0.144 HD
ATOM     35  H   UNL     1      28.727 -23.808 -18.166  0.00  0.00    +0.144 HD
ATOM     36  H   UNL     1      26.922 -21.937 -15.837  0.00  0.00    +0.188 HD
ENDBRANCH  26  33
ENDBRANCH  24  25
ENDBRANCH   6  24
TORSDOF 6
ENDMDL
