MODEL 1
REMARK VINA RESULT:     -13.1      0.000      0.000
REMARK  Name = 4369496
REMARK  6 active torsions:
REMARK  status: ('A' for Active; 'I' for Inactive)
REMARK    1  A    between atoms: N_2  and  C_21
REMARK    2  A    between atoms: C_3  and  C_10
REMARK    3  A    between atoms: C_5  and  C_11
REMARK    4  A    between atoms: C_11  and  N_12
REMARK    5  A    between atoms: C_23  and  N_27
REMARK    6  A    between atoms: C_31  and  C_36
REMARK                            x       y       z     vdW  Elec       q    Type
REMARK                         _______ _______ _______ _____ _____    ______ ____
ROOT
ATOM      1  O   UNL     1      36.441 -18.280 -22.431  0.00  0.00    -0.270 OA
ATOM      2  N   UNL     1      34.240 -18.846 -21.848  0.00  0.00    -0.280 N 
ATOM      3  C   UNL     1      35.218 -18.071 -22.487  0.00  0.00    +0.249 C 
ATOM      4  H   UNL     1      33.310 -18.557 -21.985  0.00  0.00    +0.155 HD
ENDROOT
BRANCH   3  10
ATOM      5  C   UNL     1      33.794 -14.750 -24.685  0.00  0.00    -0.043 C 
ATOM      6  C   UNL     1      34.200 -14.575 -23.369  0.00  0.00    -0.006 C 
ATOM      7  C   UNL     1      33.848 -15.997 -25.290  0.00  0.00    -0.006 C 
ATOM      8  C   UNL     1      34.671 -15.670 -22.645  0.00  0.00    +0.004 C 
ATOM      9  C   UNL     1      34.319 -17.092 -24.566  0.00  0.00    +0.004 C 
ATOM     10  C   UNL     1      34.730 -16.929 -23.243  0.00  0.00    +0.054 C 
BRANCH   5  11
ATOM     11  C   UNL     1      33.287 -13.568 -25.468  0.00  0.00    -0.050 C 
BRANCH  11  12
ATOM     12  N   UNL     1      34.033 -12.350 -25.158  0.00  0.00    +0.387 N 
ATOM     13  N   UNL     1      34.411  -9.483 -25.184  0.00  0.00    +0.383 N 
ATOM     14  C   UNL     1      33.254 -11.471 -24.279  0.00  0.00    -0.100 C 
ATOM     15  C   UNL     1      34.408 -11.641 -26.388  0.00  0.00    -0.100 C 
ATOM     16  C   UNL     1      34.034 -10.192 -23.955  0.00  0.00    -0.101 C 
ATOM     17  C   UNL     1      35.189 -10.363 -26.066  0.00  0.00    -0.101 C 
ATOM     18  C   UNL     1      35.158  -8.266 -24.874  0.00  0.00    -0.101 C 
ATOM     19  H   UNL     1      34.886 -12.618 -24.669  0.00  0.00    -0.079 HD
ATOM     20  H   UNL     1      33.557  -9.212 -25.673  0.00  0.00    -0.080 HD
ENDBRANCH  11  12
ENDBRANCH   5  11
ENDBRANCH   3  10
BRANCH   2  21
ATOM     21  C   UNL     1      34.416 -19.990 -21.031  0.00  0.00    +0.052 C 
ATOM     22  C   UNL     1      33.317 -20.539 -20.392  0.00  0.00    +0.030 C 
ATOM     23  C   UNL     1      33.491 -21.665 -19.586  0.00  0.00    +0.059 C 
ATOM     24  C   UNL     1      35.681 -20.533 -20.892  0.00  0.00    +0.015 C 
ATOM     25  C   UNL     1      34.759 -22.225 -19.434  0.00  0.00    +0.015 C 
ATOM     26  C   UNL     1      35.855 -21.659 -20.087  0.00  0.00    +0.003 C 
BRANCH  23  27
ATOM     27  N   UNL     1      32.383 -22.239 -18.928  0.00  0.00    -0.247 N 
ATOM     28  N   UNL     1      33.338 -22.926 -16.897  0.00  0.00    -0.337 NA
ATOM     29  N   UNL     1      31.001 -23.299 -17.356  0.00  0.00    -0.170 NA
ATOM     30  C   UNL     1      32.234 -22.850 -17.668  0.00  0.00    +0.149 C 
ATOM     31  C   UNL     1      33.158 -23.518 -15.698  0.00  0.00    +0.147 C 
ATOM     32  C   UNL     1      31.948 -24.017 -15.263  0.00  0.00    +0.055 C 
ATOM     33  C   UNL     1      30.894 -23.879 -16.142  0.00  0.00    +0.114 C 
ATOM     34  H   UNL     1      31.551 -22.206 -19.453  0.00  0.00    +0.165 HD
BRANCH  31  36
ATOM     35  N   UNL     1      35.376 -24.341 -12.818  0.00  0.00    -0.242 NA
ATOM     36  C   UNL     1      34.339 -23.599 -14.872  0.00  0.00    +0.050 C 
ATOM     37  C   UNL     1      35.546 -23.047 -15.290  0.00  0.00    +0.006 C 
ATOM     38  C   UNL     1      34.308 -24.229 -13.639  0.00  0.00    +0.101 C 
ATOM     39  C   UNL     1      36.667 -23.141 -14.472  0.00  0.00    +0.021 C 
ATOM     40  C   UNL     1      36.530 -23.792 -13.257  0.00  0.00    +0.099 C 
ENDBRANCH  31  36
ENDBRANCH  23  27
ENDBRANCH   2  21
TORSDOF 6
ENDMDL
MODEL 2
REMARK VINA RESULT:     -12.9      1.251      1.717
REMARK  Name = 4369496
REMARK  6 active torsions:
REMARK  status: ('A' for Active; 'I' for Inactive)
REMARK    1  A    between atoms: N_2  and  C_21
REMARK    2  A    between atoms: C_3  and  C_10
REMARK    3  A    between atoms: C_5  and  C_11
REMARK    4  A    between atoms: C_11  and  N_12
REMARK    5  A    between atoms: C_23  and  N_27
REMARK    6  A    between atoms: C_31  and  C_36
REMARK                            x       y       z     vdW  Elec       q    Type
REMARK                         _______ _______ _______ _____ _____    ______ ____
ROOT
ATOM      1  O   UNL     1      35.470 -19.405 -23.617  0.00  0.00    -0.270 OA
ATOM      2  N   UNL     1      34.330 -18.892 -21.632  0.00  0.00    -0.280 N 
ATOM      3  C   UNL     1      34.820 -18.613 -22.916  0.00  0.00    +0.249 C 
ATOM      4  H   UNL     1      33.830 -18.163 -21.199  0.00  0.00    +0.155 HD
ENDROOT
BRANCH   3  10
ATOM      5  C   UNL     1      34.030 -14.728 -24.389  0.00  0.00    -0.043 C 
ATOM      6  C   UNL     1      34.533 -14.883 -23.106  0.00  0.00    -0.006 C 
ATOM      7  C   UNL     1      33.782 -15.829 -25.198  0.00  0.00    -0.006 C 
ATOM      8  C   UNL     1      34.794 -16.164 -22.620  0.00  0.00    +0.004 C 
ATOM      9  C   UNL     1      34.044 -17.110 -24.712  0.00  0.00    +0.004 C 
ATOM     10  C   UNL     1      34.550 -17.278 -23.423  0.00  0.00    +0.054 C 
BRANCH   5  11
ATOM     11  C   UNL     1      33.749 -13.345 -24.915  0.00  0.00    -0.050 C 
BRANCH  11  12
ATOM     12  N   UNL     1      33.445 -12.405 -23.838  0.00  0.00    +0.387 N 
ATOM     13  N   UNL     1      31.792 -10.417 -22.544  0.00  0.00    +0.383 N 
ATOM     14  C   UNL     1      32.197 -12.776 -23.159  0.00  0.00    -0.100 C 
ATOM     15  C   UNL     1      33.360 -11.033 -24.352  0.00  0.00    -0.100 C 
ATOM     16  C   UNL     1      31.876 -11.790 -22.031  0.00  0.00    -0.101 C 
ATOM     17  C   UNL     1      33.040 -10.046 -23.224  0.00  0.00    -0.101 C 
ATOM     18  C   UNL     1      31.490  -9.478 -21.466  0.00  0.00    -0.101 C 
ATOM     19  H   UNL     1      34.204 -12.448 -23.159  0.00  0.00    -0.079 HD
ATOM     20  H   UNL     1      31.031 -10.373 -23.222  0.00  0.00    -0.080 HD
ENDBRANCH  11  12
ENDBRANCH   5  11
ENDBRANCH   3  10
BRANCH   2  21
ATOM     21  C   UNL     1      34.458 -20.084 -20.878  0.00  0.00    +0.052 C 
ATOM     22  C   UNL     1      33.342 -20.610 -20.250  0.00  0.00    +0.030 C 
ATOM     23  C   UNL     1      33.470 -21.783 -19.505  0.00  0.00    +0.059 C 
ATOM     24  C   UNL     1      35.697 -20.695 -20.787  0.00  0.00    +0.015 C 
ATOM     25  C   UNL     1      34.711 -22.412 -19.402  0.00  0.00    +0.015 C 
ATOM     26  C   UNL     1      35.824 -21.868 -20.043  0.00  0.00    +0.003 C 
BRANCH  23  27
ATOM     27  N   UNL     1      32.344 -22.334 -18.859  0.00  0.00    -0.247 N 
ATOM     28  N   UNL     1      33.252 -23.000 -16.800  0.00  0.00    -0.337 NA
ATOM     29  N   UNL     1      30.921 -23.355 -17.297  0.00  0.00    -0.170 NA
ATOM     30  C   UNL     1      32.164 -22.924 -17.593  0.00  0.00    +0.149 C 
ATOM     31  C   UNL     1      33.044 -23.571 -15.596  0.00  0.00    +0.147 C 
ATOM     32  C   UNL     1      31.820 -24.049 -15.176  0.00  0.00    +0.055 C 
ATOM     33  C   UNL     1      30.785 -23.914 -16.077  0.00  0.00    +0.114 C 
ATOM     34  H   UNL     1      31.522 -22.301 -19.400  0.00  0.00    +0.165 HD
BRANCH  31  36
ATOM     35  N   UNL     1      36.557 -23.185 -14.412  0.00  0.00    -0.242 NA
ATOM     36  C   UNL     1      34.208 -23.651 -14.747  0.00  0.00    +0.050 C 
ATOM     37  C   UNL     1      34.140 -24.242 -13.489  0.00  0.00    +0.006 C 
ATOM     38  C   UNL     1      35.430 -23.143 -15.157  0.00  0.00    +0.101 C 
ATOM     39  C   UNL     1      35.279 -24.305 -12.693  0.00  0.00    +0.021 C 
ATOM     40  C   UNL     1      36.451 -23.766 -13.197  0.00  0.00    +0.099 C 
ENDBRANCH  31  36
ENDBRANCH  23  27
ENDBRANCH   2  21
TORSDOF 6
ENDMDL
MODEL 3
REMARK VINA RESULT:     -12.5      2.690      6.029
REMARK  Name = 4369496
REMARK  6 active torsions:
REMARK  status: ('A' for Active; 'I' for Inactive)
REMARK    1  A    between atoms: N_2  and  C_21
REMARK    2  A    between atoms: C_3  and  C_10
REMARK    3  A    between atoms: C_5  and  C_11
REMARK    4  A    between atoms: C_11  and  N_12
REMARK    5  A    between atoms: C_23  and  N_27
REMARK    6  A    between atoms: C_31  and  C_36
REMARK                            x       y       z     vdW  Elec       q    Type
REMARK                         _______ _______ _______ _____ _____    ______ ____
ROOT
ATOM      1  O   UNL     1      33.515 -23.946 -19.263  0.00  0.00    -0.270 OA
ATOM      2  N   UNL     1      33.257 -22.399 -17.518  0.00  0.00    -0.280 N 
ATOM      3  C   UNL     1      33.645 -22.800 -18.805  0.00  0.00    +0.249 C 
ATOM      4  H   UNL     1      33.424 -21.455 -17.297  0.00  0.00    +0.155 HD
ENDROOT
BRANCH   3  10
ATOM      5  C   UNL     1      35.451 -19.817 -21.198  0.00  0.00    -0.043 C 
ATOM      6  C   UNL     1      36.251 -20.674 -20.456  0.00  0.00    -0.006 C 
ATOM      7  C   UNL     1      34.068 -19.923 -21.168  0.00  0.00    -0.006 C 
ATOM      8  C   UNL     1      35.655 -21.658 -19.667  0.00  0.00    +0.004 C 
ATOM      9  C   UNL     1      33.472 -20.908 -20.380  0.00  0.00    +0.004 C 
ATOM     10  C   UNL     1      34.266 -21.775 -19.629  0.00  0.00    +0.054 C 
BRANCH   5  11
ATOM     11  C   UNL     1      36.094 -18.755 -22.051  0.00  0.00    -0.050 C 
BRANCH  11  12
ATOM     12  N   UNL     1      35.100 -17.884 -22.676  0.00  0.00    +0.387 N 
ATOM     13  N   UNL     1      34.303 -15.729 -24.430  0.00  0.00    +0.383 N 
ATOM     14  C   UNL     1      35.108 -18.047 -24.134  0.00  0.00    -0.100 C 
ATOM     15  C   UNL     1      35.338 -16.481 -22.316  0.00  0.00    -0.100 C 
ATOM     16  C   UNL     1      34.068 -17.132 -24.791  0.00  0.00    -0.101 C 
ATOM     17  C   UNL     1      34.297 -15.566 -22.971  0.00  0.00    -0.101 C 
ATOM     18  C   UNL     1      33.309 -14.859 -25.054  0.00  0.00    -0.101 C 
ATOM     19  H   UNL     1      34.181 -18.154 -22.328  0.00  0.00    -0.079 HD
ATOM     20  H   UNL     1      35.223 -15.457 -24.781  0.00  0.00    -0.080 HD
ENDBRANCH  11  12
ENDBRANCH   5  11
ENDBRANCH   3  10
BRANCH   2  21
ATOM     21  C   UNL     1      32.657 -23.175 -16.496  0.00  0.00    +0.052 C 
ATOM     22  C   UNL     1      33.219 -23.177 -15.231  0.00  0.00    +0.030 C 
ATOM     23  C   UNL     1      32.629 -23.943 -14.225  0.00  0.00    +0.059 C 
ATOM     24  C   UNL     1      31.523 -23.913 -16.786  0.00  0.00    +0.015 C 
ATOM     25  C   UNL     1      31.485 -24.693 -14.500  0.00  0.00    +0.015 C 
ATOM     26  C   UNL     1      30.932 -24.678 -15.780  0.00  0.00    +0.003 C 
BRANCH  23  27
ATOM     27  N   UNL     1      33.187 -23.956 -12.929  0.00  0.00    -0.247 N 
ATOM     28  N   UNL     1      35.462 -24.296 -13.394  0.00  0.00    -0.337 NA
ATOM     29  N   UNL     1      34.681 -24.077 -11.125  0.00  0.00    -0.170 NA
ATOM     30  C   UNL     1      34.505 -24.118 -12.461  0.00  0.00    +0.149 C 
ATOM     31  C   UNL     1      36.712 -24.447 -12.909  0.00  0.00    +0.147 C 
ATOM     32  C   UNL     1      37.021 -24.424 -11.565  0.00  0.00    +0.055 C 
ATOM     33  C   UNL     1      35.955 -24.235 -10.710  0.00  0.00    +0.114 C 
ATOM     34  H   UNL     1      32.525 -23.828 -12.212  0.00  0.00    +0.165 HD
BRANCH  31  36
ATOM     35  N   UNL     1      38.747 -23.937 -15.990  0.00  0.00    -0.242 NA
ATOM     36  C   UNL     1      37.737 -24.637 -13.907  0.00  0.00    +0.050 C 
ATOM     37  C   UNL     1      38.681 -25.652 -13.783  0.00  0.00    +0.006 C 
ATOM     38  C   UNL     1      37.814 -23.815 -15.020  0.00  0.00    +0.101 C 
ATOM     39  C   UNL     1      39.656 -25.810 -14.762  0.00  0.00    +0.021 C 
ATOM     40  C   UNL     1      39.646 -24.935 -15.835  0.00  0.00    +0.099 C 
ENDBRANCH  31  36
ENDBRANCH  23  27
ENDBRANCH   2  21
TORSDOF 6
ENDMDL
MODEL 4
REMARK VINA RESULT:     -12.4      2.940     12.470
REMARK  Name = 4369496
REMARK  6 active torsions:
REMARK  status: ('A' for Active; 'I' for Inactive)
REMARK    1  A    between atoms: N_2  and  C_21
REMARK    2  A    between atoms: C_3  and  C_10
REMARK    3  A    between atoms: C_5  and  C_11
REMARK    4  A    between atoms: C_11  and  N_12
REMARK    5  A    between atoms: C_23  and  N_27
REMARK    6  A    between atoms: C_31  and  C_36
REMARK                            x       y       z     vdW  Elec       q    Type
REMARK                         _______ _______ _______ _____ _____    ______ ____
ROOT
ATOM      1  O   UNL     1      32.801 -13.860 -23.150  0.00  0.00    -0.270 OA
ATOM      2  N   UNL     1      34.156 -13.979 -25.061  0.00  0.00    -0.280 N 
ATOM      3  C   UNL     1      33.686 -14.421 -23.816  0.00  0.00    +0.249 C 
ATOM      4  H   UNL     1      34.862 -14.529 -25.470  0.00  0.00    +0.155 HD
ENDROOT
BRANCH   3  10
ATOM      5  C   UNL     1      35.534 -17.895 -22.268  0.00  0.00    -0.043 C 
ATOM      6  C   UNL     1      35.331 -17.781 -23.636  0.00  0.00    -0.006 C 
ATOM      7  C   UNL     1      35.141 -16.887 -21.400  0.00  0.00    -0.006 C 
ATOM      8  C   UNL     1      34.722 -16.635 -24.146  0.00  0.00    +0.004 C 
ATOM      9  C   UNL     1      34.532 -15.740 -21.911  0.00  0.00    +0.004 C 
ATOM     10  C   UNL     1      34.322 -15.614 -23.284  0.00  0.00    +0.054 C 
BRANCH   5  11
ATOM     11  C   UNL     1      36.193 -19.132 -21.716  0.00  0.00    -0.050 C 
BRANCH  11  12
ATOM     12  N   UNL     1      35.361 -19.788 -20.709  0.00  0.00    +0.387 N 
ATOM     13  N   UNL     1      33.832 -22.019 -19.687  0.00  0.00    +0.383 N 
ATOM     14  C   UNL     1      36.022 -20.991 -20.190  0.00  0.00    -0.100 C 
ATOM     15  C   UNL     1      34.044 -20.126 -21.262  0.00  0.00    -0.100 C 
ATOM     16  C   UNL     1      35.150 -21.681 -19.136  0.00  0.00    -0.101 C 
ATOM     17  C   UNL     1      33.170 -20.816 -20.208  0.00  0.00    -0.101 C 
ATOM     18  C   UNL     1      33.000 -22.673 -18.679  0.00  0.00    -0.101 C 
ATOM     19  H   UNL     1      35.228 -19.136 -19.937  0.00  0.00    -0.079 HD
ATOM     20  H   UNL     1      33.964 -22.673 -20.459  0.00  0.00    -0.080 HD
ENDBRANCH  11  12
ENDBRANCH   5  11
ENDBRANCH   3  10
BRANCH   2  21
ATOM     21  C   UNL     1      33.748 -12.846 -25.807  0.00  0.00    +0.052 C 
ATOM     22  C   UNL     1      34.106 -11.583 -25.369  0.00  0.00    +0.030 C 
ATOM     23  C   UNL     1      33.703 -10.467 -26.103  0.00  0.00    +0.059 C 
ATOM     24  C   UNL     1      33.000 -13.029 -26.958  0.00  0.00    +0.015 C 
ATOM     25  C   UNL     1      32.949 -10.633 -27.265  0.00  0.00    +0.015 C 
ATOM     26  C   UNL     1      32.598 -11.913 -27.692  0.00  0.00    +0.003 C 
BRANCH  23  27
ATOM     27  N   UNL     1      34.060  -9.172 -25.671  0.00  0.00    -0.247 N 
ATOM     28  N   UNL     1      33.060  -9.084 -23.550  0.00  0.00    -0.337 NA
ATOM     29  N   UNL     1      34.302  -7.208 -24.413  0.00  0.00    -0.170 NA
ATOM     30  C   UNL     1      33.794  -8.455 -24.490  0.00  0.00    +0.149 C 
ATOM     31  C   UNL     1      32.825  -8.366 -22.432  0.00  0.00    +0.147 C 
ATOM     32  C   UNL     1      33.290  -7.083 -22.233  0.00  0.00    +0.055 C 
ATOM     33  C   UNL     1      34.030  -6.548 -23.268  0.00  0.00    +0.114 C 
ATOM     34  H   UNL     1      34.599  -8.673 -26.326  0.00  0.00    +0.165 HD
BRANCH  31  36
ATOM     35  N   UNL     1      31.318  -9.184 -19.123  0.00  0.00    -0.242 NA
ATOM     36  C   UNL     1      32.040  -9.040 -21.426  0.00  0.00    +0.050 C 
ATOM     37  C   UNL     1      31.267 -10.152 -21.744  0.00  0.00    +0.006 C 
ATOM     38  C   UNL     1      32.031  -8.600 -20.112  0.00  0.00    +0.101 C 
ATOM     39  C   UNL     1      30.521 -10.780 -20.753  0.00  0.00    +0.021 C 
ATOM     40  C   UNL     1      30.580 -10.261 -19.470  0.00  0.00    +0.099 C 
ENDBRANCH  31  36
ENDBRANCH  23  27
ENDBRANCH   2  21
TORSDOF 6
ENDMDL
MODEL 5
REMARK VINA RESULT:     -11.6      3.000     14.607
REMARK  Name = 4369496
REMARK  6 active torsions:
REMARK  status: ('A' for Active; 'I' for Inactive)
REMARK    1  A    between atoms: N_2  and  C_21
REMARK    2  A    between atoms: C_3  and  C_10
REMARK    3  A    between atoms: C_5  and  C_11
REMARK    4  A    between atoms: C_11  and  N_12
REMARK    5  A    between atoms: C_23  and  N_27
REMARK    6  A    between atoms: C_31  and  C_36
REMARK                            x       y       z     vdW  Elec       q    Type
REMARK                         _______ _______ _______ _____ _____    ______ ____
ROOT
ATOM      1  O   UNL     1      32.677 -13.600 -22.608  0.00  0.00    -0.270 OA
ATOM      2  N   UNL     1      34.223 -13.343 -24.353  0.00  0.00    -0.280 N 
ATOM      3  C   UNL     1      33.635 -14.021 -23.276  0.00  0.00    +0.249 C 
ATOM      4  H   UNL     1      34.976 -13.803 -24.787  0.00  0.00    +0.155 HD
ENDROOT
BRANCH   3  10
ATOM      5  C   UNL     1      35.373 -17.741 -22.262  0.00  0.00    -0.043 C 
ATOM      6  C   UNL     1      35.167 -17.424 -23.597  0.00  0.00    -0.006 C 
ATOM      7  C   UNL     1      35.017 -16.856 -21.254  0.00  0.00    -0.006 C 
ATOM      8  C   UNL     1      34.595 -16.197 -23.932  0.00  0.00    +0.004 C 
ATOM      9  C   UNL     1      34.445 -15.629 -21.589  0.00  0.00    +0.004 C 
ATOM     10  C   UNL     1      34.233 -15.299 -22.927  0.00  0.00    +0.054 C 
BRANCH   5  11
ATOM     11  C   UNL     1      35.992 -19.065 -21.901  0.00  0.00    -0.050 C 
BRANCH  11  12
ATOM     12  N   UNL     1      35.250 -19.740 -20.837  0.00  0.00    +0.387 N 
ATOM     13  N   UNL     1      33.872 -22.014 -19.701  0.00  0.00    +0.383 N 
ATOM     14  C   UNL     1      35.987 -20.912 -20.351  0.00  0.00    -0.100 C 
ATOM     15  C   UNL     1      33.914 -20.132 -21.302  0.00  0.00    -0.100 C 
ATOM     16  C   UNL     1      35.209 -21.623 -19.238  0.00  0.00    -0.101 C 
ATOM     17  C   UNL     1      33.135 -20.842 -20.190  0.00  0.00    -0.101 C 
ATOM     18  C   UNL     1      33.131 -22.688 -18.637  0.00  0.00    -0.101 C 
ATOM     19  H   UNL     1      35.142 -19.085 -20.064  0.00  0.00    -0.079 HD
ATOM     20  H   UNL     1      33.980 -22.671 -20.474  0.00  0.00    -0.080 HD
ENDBRANCH  11  12
ENDBRANCH   5  11
ENDBRANCH   3  10
BRANCH   2  21
ATOM     21  C   UNL     1      33.875 -12.083 -24.899  0.00  0.00    +0.052 C 
ATOM     22  C   UNL     1      33.432 -11.079 -24.054  0.00  0.00    +0.030 C 
ATOM     23  C   UNL     1      33.087  -9.839 -24.592  0.00  0.00    +0.059 C 
ATOM     24  C   UNL     1      33.985 -11.884 -26.264  0.00  0.00    +0.015 C 
ATOM     25  C   UNL     1      33.192  -9.621 -25.965  0.00  0.00    +0.015 C 
ATOM     26  C   UNL     1      33.641 -10.643 -26.802  0.00  0.00    +0.003 C 
BRANCH  23  27
ATOM     27  N   UNL     1      32.635  -8.804 -23.746  0.00  0.00    -0.247 N 
ATOM     28  N   UNL     1      33.408  -6.896 -24.871  0.00  0.00    -0.337 NA
ATOM     29  N   UNL     1      32.185  -6.704 -22.803  0.00  0.00    -0.170 NA
ATOM     30  C   UNL     1      32.748  -7.402 -23.810  0.00  0.00    +0.149 C 
ATOM     31  C   UNL     1      33.497  -5.550 -24.900  0.00  0.00    +0.147 C 
ATOM     32  C   UNL     1      32.962  -4.725 -23.931  0.00  0.00    +0.055 C 
ATOM     33  C   UNL     1      32.311  -5.363 -22.896  0.00  0.00    +0.114 C 
ATOM     34  H   UNL     1      32.145  -9.127 -22.955  0.00  0.00    +0.165 HD
BRANCH  31  36
ATOM     35  N   UNL     1      34.241  -3.468 -27.900  0.00  0.00    -0.242 NA
ATOM     36  C   UNL     1      34.202  -5.007 -26.035  0.00  0.00    +0.050 C 
ATOM     37  C   UNL     1      35.474  -5.459 -26.374  0.00  0.00    +0.006 C 
ATOM     38  C   UNL     1      33.636  -4.019 -26.825  0.00  0.00    +0.101 C 
ATOM     39  C   UNL     1      36.129  -4.916 -27.474  0.00  0.00    +0.021 C 
ATOM     40  C   UNL     1      35.475  -3.932 -28.197  0.00  0.00    +0.099 C 
ENDBRANCH  31  36
ENDBRANCH  23  27
ENDBRANCH   2  21
TORSDOF 6
ENDMDL
MODEL 6
REMARK VINA RESULT:     -11.4      2.255     13.060
REMARK  Name = 4369496
REMARK  6 active torsions:
REMARK  status: ('A' for Active; 'I' for Inactive)
REMARK    1  A    between atoms: N_2  and  C_21
REMARK    2  A    between atoms: C_3  and  C_10
REMARK    3  A    between atoms: C_5  and  C_11
REMARK    4  A    between atoms: C_11  and  N_12
REMARK    5  A    between atoms: C_23  and  N_27
REMARK    6  A    between atoms: C_31  and  C_36
REMARK                            x       y       z     vdW  Elec       q    Type
REMARK                         _______ _______ _______ _____ _____    ______ ____
ROOT
ATOM      1  O   UNL     1      34.709 -17.386 -24.257  0.00  0.00    -0.270 OA
ATOM      2  N   UNL     1      34.458 -16.030 -22.359  0.00  0.00    -0.280 N 
ATOM      3  C   UNL     1      34.777 -17.220 -23.029  0.00  0.00    +0.249 C 
ATOM      4  H   UNL     1      34.562 -16.050 -21.381  0.00  0.00    +0.155 HD
ENDROOT
BRANCH   3  10
ATOM      5  C   UNL     1      35.988 -20.451 -20.583  0.00  0.00    -0.043 C 
ATOM      6  C   UNL     1      36.919 -19.494 -20.960  0.00  0.00    -0.006 C 
ATOM      7  C   UNL     1      34.666 -20.366 -20.996  0.00  0.00    -0.006 C 
ATOM      8  C   UNL     1      36.519 -18.427 -21.765  0.00  0.00    +0.004 C 
ATOM      9  C   UNL     1      34.267 -19.299 -21.802  0.00  0.00    +0.004 C 
ATOM     10  C   UNL     1      35.193 -18.330 -22.187  0.00  0.00    +0.054 C 
BRANCH   5  11
ATOM     11  C   UNL     1      36.419 -21.602 -19.712  0.00  0.00    -0.050 C 
BRANCH  11  12
ATOM     12  N   UNL     1      35.487 -21.827 -18.608  0.00  0.00    +0.387 N 
ATOM     13  N   UNL     1      34.150 -23.499 -16.666  0.00  0.00    +0.383 N 
ATOM     14  C   UNL     1      36.193 -22.335 -17.426  0.00  0.00    -0.100 C 
ATOM     15  C   UNL     1      34.422 -22.754 -19.006  0.00  0.00    -0.100 C 
ATOM     16  C   UNL     1      35.217 -22.573 -16.269  0.00  0.00    -0.101 C 
ATOM     17  C   UNL     1      33.445 -22.992 -17.850  0.00  0.00    -0.101 C 
ATOM     18  C   UNL     1      33.219 -23.722 -15.562  0.00  0.00    -0.101 C 
ATOM     19  H   UNL     1      35.062 -20.932 -18.368  0.00  0.00    -0.079 HD
ATOM     20  H   UNL     1      34.576 -24.396 -16.905  0.00  0.00    -0.080 HD
ENDBRANCH  11  12
ENDBRANCH   5  11
ENDBRANCH   3  10
BRANCH   2  21
ATOM     21  C   UNL     1      34.005 -14.804 -22.906  0.00  0.00    +0.052 C 
ATOM     22  C   UNL     1      33.292 -13.929 -22.104  0.00  0.00    +0.030 C 
ATOM     23  C   UNL     1      32.845 -12.722 -22.644  0.00  0.00    +0.059 C 
ATOM     24  C   UNL     1      34.285 -14.511 -24.229  0.00  0.00    +0.015 C 
ATOM     25  C   UNL     1      33.119 -12.410 -23.976  0.00  0.00    +0.015 C 
ATOM     26  C   UNL     1      33.839 -13.304 -24.768  0.00  0.00    +0.003 C 
BRANCH  23  27
ATOM     27  N   UNL     1      32.118 -11.818 -21.842  0.00  0.00    -0.247 N 
ATOM     28  N   UNL     1      32.777  -9.751 -22.737  0.00  0.00    -0.337 NA
ATOM     29  N   UNL     1      31.224  -9.865 -20.898  0.00  0.00    -0.170 NA
ATOM     30  C   UNL     1      32.037 -10.412 -21.825  0.00  0.00    +0.149 C 
ATOM     31  C   UNL     1      32.674  -8.406 -22.691  0.00  0.00    +0.147 C 
ATOM     32  C   UNL     1      31.878  -7.729 -21.792  0.00  0.00    +0.055 C 
ATOM     33  C   UNL     1      31.169  -8.517 -20.909  0.00  0.00    +0.114 C 
ATOM     34  H   UNL     1      31.560 -12.255 -21.159  0.00  0.00    +0.165 HD
BRANCH  31  36
ATOM     35  N   UNL     1      35.038  -7.778 -25.504  0.00  0.00    -0.242 NA
ATOM     36  C   UNL     1      33.466  -7.698 -23.668  0.00  0.00    +0.050 C 
ATOM     37  C   UNL     1      33.445  -6.309 -23.739  0.00  0.00    +0.006 C 
ATOM     38  C   UNL     1      34.273  -8.380 -24.565  0.00  0.00    +0.101 C 
ATOM     39  C   UNL     1      34.219  -5.655 -24.691  0.00  0.00    +0.021 C 
ATOM     40  C   UNL     1      34.991  -6.428 -25.542  0.00  0.00    +0.099 C 
ENDBRANCH  31  36
ENDBRANCH  23  27
ENDBRANCH   2  21
TORSDOF 6
ENDMDL
MODEL 7
REMARK VINA RESULT:     -11.4      1.990     13.322
REMARK  Name = 4369496
REMARK  6 active torsions:
REMARK  status: ('A' for Active; 'I' for Inactive)
REMARK    1  A    between atoms: N_2  and  C_21
REMARK    2  A    between atoms: C_3  and  C_10
REMARK    3  A    between atoms: C_5  and  C_11
REMARK    4  A    between atoms: C_11  and  N_12
REMARK    5  A    between atoms: C_23  and  N_27
REMARK    6  A    between atoms: C_31  and  C_36
REMARK                            x       y       z     vdW  Elec       q    Type
REMARK                         _______ _______ _______ _____ _____    ______ ____
ROOT
ATOM      1  O   UNL     1      35.350 -16.809 -23.695  0.00  0.00    -0.270 OA
ATOM      2  N   UNL     1      34.289 -15.982 -21.774  0.00  0.00    -0.280 N 
ATOM      3  C   UNL     1      35.000 -16.938 -22.511  0.00  0.00    +0.249 C 
ATOM      4  H   UNL     1      34.082 -16.227 -20.844  0.00  0.00    +0.155 HD
ENDROOT
BRANCH   3  10
ATOM      5  C   UNL     1      35.910 -20.532 -20.476  0.00  0.00    -0.043 C 
ATOM      6  C   UNL     1      34.607 -20.289 -20.884  0.00  0.00    -0.006 C 
ATOM      7  C   UNL     1      36.921 -19.615 -20.726  0.00  0.00    -0.006 C 
ATOM      8  C   UNL     1      34.307 -19.105 -21.556  0.00  0.00    +0.004 C 
ATOM      9  C   UNL     1      36.621 -18.430 -21.398  0.00  0.00    +0.004 C 
ATOM     10  C   UNL     1      35.314 -18.174 -21.813  0.00  0.00    +0.054 C 
BRANCH   5  11
ATOM     11  C   UNL     1      36.235 -21.812 -19.752  0.00  0.00    -0.050 C 
BRANCH  11  12
ATOM     12  N   UNL     1      35.455 -21.955 -18.524  0.00  0.00    +0.387 N 
ATOM     13  N   UNL     1      34.441 -23.467 -16.278  0.00  0.00    +0.383 N 
ATOM     14  C   UNL     1      36.321 -22.317 -17.396  0.00  0.00    -0.100 C 
ATOM     15  C   UNL     1      34.393 -22.954 -18.695  0.00  0.00    -0.100 C 
ATOM     16  C   UNL     1      35.505 -22.469 -16.108  0.00  0.00    -0.101 C 
ATOM     17  C   UNL     1      33.575 -23.107 -17.408  0.00  0.00    -0.101 C 
ATOM     18  C   UNL     1      33.661 -23.609 -15.050  0.00  0.00    -0.101 C 
ATOM     19  H   UNL     1      35.021 -21.056 -18.320  0.00  0.00    -0.079 HD
ATOM     20  H   UNL     1      34.875 -24.368 -16.480  0.00  0.00    -0.080 HD
ENDBRANCH  11  12
ENDBRANCH   5  11
ENDBRANCH   3  10
BRANCH   2  21
ATOM     21  C   UNL     1      33.828 -14.709 -22.192  0.00  0.00    +0.052 C 
ATOM     22  C   UNL     1      34.386 -14.123 -23.316  0.00  0.00    +0.030 C 
ATOM     23  C   UNL     1      33.934 -12.869 -23.726  0.00  0.00    +0.059 C 
ATOM     24  C   UNL     1      32.831 -14.080 -21.466  0.00  0.00    +0.015 C 
ATOM     25  C   UNL     1      32.929 -12.221 -23.007  0.00  0.00    +0.015 C 
ATOM     26  C   UNL     1      32.378 -12.826 -21.877  0.00  0.00    +0.003 C 
BRANCH  23  27
ATOM     27  N   UNL     1      34.490 -12.258 -24.869  0.00  0.00    -0.247 N 
ATOM     28  N   UNL     1      34.097  -9.985 -24.435  0.00  0.00    -0.337 NA
ATOM     29  N   UNL     1      35.206 -10.686 -26.456  0.00  0.00    -0.170 NA
ATOM     30  C   UNL     1      34.602 -10.913 -25.272  0.00  0.00    +0.149 C 
ATOM     31  C   UNL     1      34.222  -8.709 -24.852  0.00  0.00    +0.147 C 
ATOM     32  C   UNL     1      34.819  -8.347 -26.042  0.00  0.00    +0.055 C 
ATOM     33  C   UNL     1      35.297  -9.387 -26.812  0.00  0.00    +0.114 C 
ATOM     34  H   UNL     1      34.874 -12.897 -25.512  0.00  0.00    +0.165 HD
BRANCH  31  36
ATOM     35  N   UNL     1      32.769  -7.171 -21.784  0.00  0.00    -0.242 NA
ATOM     36  C   UNL     1      33.682  -7.715 -23.956  0.00  0.00    +0.050 C 
ATOM     37  C   UNL     1      33.546  -6.388 -24.353  0.00  0.00    +0.006 C 
ATOM     38  C   UNL     1      33.282  -8.051 -22.673  0.00  0.00    +0.101 C 
ATOM     39  C   UNL     1      33.022  -5.454 -23.466  0.00  0.00    +0.021 C 
ATOM     40  C   UNL     1      32.652  -5.892 -22.205  0.00  0.00    +0.099 C 
ENDBRANCH  31  36
ENDBRANCH  23  27
ENDBRANCH   2  21
TORSDOF 6
ENDMDL
MODEL 8
REMARK VINA RESULT:     -11.1      3.799     13.092
REMARK  Name = 4369496
REMARK  6 active torsions:
REMARK  status: ('A' for Active; 'I' for Inactive)
REMARK    1  A    between atoms: N_2  and  C_21
REMARK    2  A    between atoms: C_3  and  C_10
REMARK    3  A    between atoms: C_5  and  C_11
REMARK    4  A    between atoms: C_11  and  N_12
REMARK    5  A    between atoms: C_23  and  N_27
REMARK    6  A    between atoms: C_31  and  C_36
REMARK                            x       y       z     vdW  Elec       q    Type
REMARK                         _______ _______ _______ _____ _____    ______ ____
ROOT
ATOM      1  O   UNL     1      32.733 -11.926 -23.490  0.00  0.00    -0.270 OA
ATOM      2  N   UNL     1      32.685 -12.270 -21.170  0.00  0.00    -0.280 N 
ATOM      3  C   UNL     1      32.976 -12.627 -22.494  0.00  0.00    +0.249 C 
ATOM      4  H   UNL     1      32.937 -12.930 -20.485  0.00  0.00    +0.155 HD
ENDROOT
BRANCH   3  10
ATOM      5  C   UNL     1      34.749 -16.428 -23.037  0.00  0.00    -0.043 C 
ATOM      6  C   UNL     1      34.271 -15.734 -24.139  0.00  0.00    -0.006 C 
ATOM      7  C   UNL     1      34.655 -15.895 -21.759  0.00  0.00    -0.006 C 
ATOM      8  C   UNL     1      33.687 -14.480 -23.960  0.00  0.00    +0.004 C 
ATOM      9  C   UNL     1      34.071 -14.641 -21.580  0.00  0.00    +0.004 C 
ATOM     10  C   UNL     1      33.587 -13.933 -22.680  0.00  0.00    +0.054 C 
BRANCH   5  11
ATOM     11  C   UNL     1      35.381 -17.782 -23.229  0.00  0.00    -0.050 C 
BRANCH  11  12
ATOM     12  N   UNL     1      35.446 -18.534 -21.978  0.00  0.00    +0.387 N 
ATOM     13  N   UNL     1      36.005 -20.909 -20.426  0.00  0.00    +0.383 N 
ATOM     14  C   UNL     1      36.824 -18.950 -21.691  0.00  0.00    -0.100 C 
ATOM     15  C   UNL     1      34.558 -19.702 -22.026  0.00  0.00    -0.100 C 
ATOM     16  C   UNL     1      36.893 -19.741 -20.381  0.00  0.00    -0.101 C 
ATOM     17  C   UNL     1      34.626 -20.494 -20.715  0.00  0.00    -0.101 C 
ATOM     18  C   UNL     1      36.070 -21.660 -19.175  0.00  0.00    -0.101 C 
ATOM     19  H   UNL     1      35.132 -17.923 -21.226  0.00  0.00    -0.079 HD
ATOM     20  H   UNL     1      36.320 -21.523 -21.179  0.00  0.00    -0.080 HD
ENDBRANCH  11  12
ENDBRANCH   5  11
ENDBRANCH   3  10
BRANCH   2  21
ATOM     21  C   UNL     1      32.075 -11.086 -20.689  0.00  0.00    +0.052 C 
ATOM     22  C   UNL     1      32.365  -9.879 -21.301  0.00  0.00    +0.030 C 
ATOM     23  C   UNL     1      31.766  -8.712 -20.826  0.00  0.00    +0.059 C 
ATOM     24  C   UNL     1      31.203 -11.163 -19.617  0.00  0.00    +0.015 C 
ATOM     25  C   UNL     1      30.884  -8.771 -19.746  0.00  0.00    +0.015 C 
ATOM     26  C   UNL     1      30.603  -9.996 -19.142  0.00  0.00    +0.003 C 
BRANCH  23  27
ATOM     27  N   UNL     1      32.049  -7.473 -21.439  0.00  0.00    -0.247 N 
ATOM     28  N   UNL     1      33.049  -8.154 -23.450  0.00  0.00    -0.337 NA
ATOM     29  N   UNL     1      32.765  -5.816 -22.937  0.00  0.00    -0.170 NA
ATOM     30  C   UNL     1      32.650  -7.132 -22.666  0.00  0.00    +0.149 C 
ATOM     31  C   UNL     1      33.620  -7.790 -24.617  0.00  0.00    +0.147 C 
ATOM     32  C   UNL     1      33.795  -6.479 -25.009  0.00  0.00    +0.055 C 
ATOM     33  C   UNL     1      33.345  -5.525 -24.120  0.00  0.00    +0.114 C 
ATOM     34  H   UNL     1      31.773  -6.695 -20.902  0.00  0.00    +0.165 HD
BRANCH  31  36
ATOM     35  N   UNL     1      33.459 -10.709 -26.929  0.00  0.00    -0.242 NA
ATOM     36  C   UNL     1      34.047  -8.883 -25.457  0.00  0.00    +0.050 C 
ATOM     37  C   UNL     1      35.397  -9.179 -25.618  0.00  0.00    +0.006 C 
ATOM     38  C   UNL     1      33.126  -9.672 -26.128  0.00  0.00    +0.101 C 
ATOM     39  C   UNL     1      35.777 -10.239 -26.434  0.00  0.00    +0.021 C 
ATOM     40  C   UNL     1      34.779 -10.966 -27.061  0.00  0.00    +0.099 C 
ENDBRANCH  31  36
ENDBRANCH  23  27
ENDBRANCH   2  21
TORSDOF 6
ENDMDL
MODEL 9
REMARK VINA RESULT:     -11.0      1.342      2.733
REMARK  Name = 4369496
REMARK  6 active torsions:
REMARK  status: ('A' for Active; 'I' for Inactive)
REMARK    1  A    between atoms: N_2  and  C_21
REMARK    2  A    between atoms: C_3  and  C_10
REMARK    3  A    between atoms: C_5  and  C_11
REMARK    4  A    between atoms: C_11  and  N_12
REMARK    5  A    between atoms: C_23  and  N_27
REMARK    6  A    between atoms: C_31  and  C_36
REMARK                            x       y       z     vdW  Elec       q    Type
REMARK                         _______ _______ _______ _____ _____    ______ ____
ROOT
ATOM      1  O   UNL     1      36.192 -18.247 -22.384  0.00  0.00    -0.270 OA
ATOM      2  N   UNL     1      33.921 -18.622 -21.932  0.00  0.00    -0.280 N 
ATOM      3  C   UNL     1      34.997 -17.932 -22.506  0.00  0.00    +0.249 C 
ATOM      4  H   UNL     1      33.028 -18.251 -22.118  0.00  0.00    +0.155 HD
ENDROOT
BRANCH   3  10
ATOM      5  C   UNL     1      34.003 -14.485 -24.746  0.00  0.00    -0.043 C 
ATOM      6  C   UNL     1      33.984 -15.728 -25.361  0.00  0.00    -0.006 C 
ATOM      7  C   UNL     1      34.343 -14.354 -23.407  0.00  0.00    -0.006 C 
ATOM      8  C   UNL     1      34.311 -16.865 -24.622  0.00  0.00    +0.004 C 
ATOM      9  C   UNL     1      34.670 -15.491 -22.668  0.00  0.00    +0.004 C 
ATOM     10  C   UNL     1      34.654 -16.747 -23.276  0.00  0.00    +0.054 C 
BRANCH   5  11
ATOM     11  C   UNL     1      33.649 -13.257 -25.543  0.00  0.00    -0.050 C 
BRANCH  11  12
ATOM     12  N   UNL     1      34.268 -12.053 -24.992  0.00  0.00    +0.387 N 
ATOM     13  N   UNL     1      34.553  -9.187 -24.741  0.00  0.00    +0.383 N 
ATOM     14  C   UNL     1      33.283 -11.251 -24.256  0.00  0.00    -0.100 C 
ATOM     15  C   UNL     1      34.888 -11.253 -26.055  0.00  0.00    -0.100 C 
ATOM     16  C   UNL     1      33.930  -9.987 -23.680  0.00  0.00    -0.101 C 
ATOM     17  C   UNL     1      35.537  -9.989 -25.479  0.00  0.00    -0.101 C 
ATOM     18  C   UNL     1      35.173  -7.984 -24.189  0.00  0.00    -0.101 C 
ATOM     19  H   UNL     1      34.996 -12.343 -24.341  0.00  0.00    -0.079 HD
ATOM     20  H   UNL     1      33.824  -8.894 -25.393  0.00  0.00    -0.080 HD
ENDBRANCH  11  12
ENDBRANCH   5  11
ENDBRANCH   3  10
BRANCH   2  21
ATOM     21  C   UNL     1      33.949 -19.782 -21.120  0.00  0.00    +0.052 C 
ATOM     22  C   UNL     1      35.103 -20.091 -20.422  0.00  0.00    +0.030 C 
ATOM     23  C   UNL     1      35.131 -21.235 -19.623  0.00  0.00    +0.059 C 
ATOM     24  C   UNL     1      32.820 -20.580 -21.044  0.00  0.00    +0.015 C 
ATOM     25  C   UNL     1      34.003 -22.051 -19.535  0.00  0.00    +0.015 C 
ATOM     26  C   UNL     1      32.848 -21.724 -20.245  0.00  0.00    +0.003 C 
BRANCH  23  27
ATOM     27  N   UNL     1      36.298 -21.564 -18.903  0.00  0.00    -0.247 N 
ATOM     28  N   UNL     1      35.407 -22.594 -16.993  0.00  0.00    -0.337 NA
ATOM     29  N   UNL     1      37.788 -22.353 -17.272  0.00  0.00    -0.170 NA
ATOM     30  C   UNL     1      36.507 -22.200 -17.664  0.00  0.00    +0.149 C 
ATOM     31  C   UNL     1      35.644 -23.199 -15.810  0.00  0.00    +0.147 C 
ATOM     32  C   UNL     1      36.907 -23.415 -15.300  0.00  0.00    +0.055 C 
ATOM     33  C   UNL     1      37.952 -22.966 -16.081  0.00  0.00    +0.114 C 
ATOM     34  H   UNL     1      37.131 -21.296 -19.356  0.00  0.00    +0.165 HD
BRANCH  31  36
ATOM     35  N   UNL     1      33.498 -24.571 -13.089  0.00  0.00    -0.242 NA
ATOM     36  C   UNL     1      34.466 -23.622 -15.091  0.00  0.00    +0.050 C 
ATOM     37  C   UNL     1      33.200 -23.505 -15.656  0.00  0.00    +0.006 C 
ATOM     38  C   UNL     1      34.560 -24.157 -13.817  0.00  0.00    +0.101 C 
ATOM     39  C   UNL     1      32.084 -23.921 -14.938  0.00  0.00    +0.021 C 
ATOM     40  C   UNL     1      32.285 -24.442 -13.671  0.00  0.00    +0.099 C 
ENDBRANCH  31  36
ENDBRANCH  23  27
ENDBRANCH   2  21
TORSDOF 6
ENDMDL
