MODEL 1
REMARK VINA RESULT:     -10.3      0.000      0.000
REMARK  Name = 22479942
REMARK  4 active torsions:
REMARK  status: ('A' for Active; 'I' for Inactive)
REMARK    1  A    between atoms: C_4  and  C_17
REMARK    2  A    between atoms: C_7  and  C_14
REMARK    3  A    between atoms: C_20  and  N_24
REMARK    4  A    between atoms: C_25  and  C_28
REMARK                            x       y       z     vdW  Elec       q    Type
REMARK                         _______ _______ _______ _____ _____    ______ ____
ROOT
ATOM      1  N   UNL     1      36.377 -23.680 -15.356  0.00  0.00    -0.276 N 
ATOM      2  N   UNL     1      35.338 -24.157 -14.650  0.00  0.00    -0.173 NA
ATOM      3  C   UNL     1      34.631 -23.078 -16.539  0.00  0.00    +0.036 A 
ATOM      4  C   UNL     1      34.279 -23.789 -15.372  0.00  0.00    +0.102 A 
ATOM      5  C   UNL     1      36.019 -23.021 -16.502  0.00  0.00    +0.075 A 
ATOM      6  C   UNL     1      33.946 -22.481 -17.611  0.00  0.00    +0.006 C 
ATOM      7  C   UNL     1      34.693 -21.847 -18.612  0.00  0.00    +0.033 C 
ATOM      8  C   UNL     1      36.783 -22.394 -17.489  0.00  0.00    +0.019 C 
ATOM      9  C   UNL     1      36.088 -21.805 -18.549  0.00  0.00    +0.004 C 
ATOM     10  H   UNL     1      37.313 -23.795 -15.075  0.00  0.00    +0.189 HD
ENDROOT
BRANCH   7  14
ATOM     11  N   UNL     1      32.662 -21.288 -19.891  0.00  0.00    -0.218 N 
ATOM     12  N   UNL     1      34.548 -20.538 -20.702  0.00  0.00    -0.206 NA
ATOM     13  N   UNL     1      32.281 -20.632 -20.998  0.00  0.00    -0.157 NA
ATOM     14  C   UNL     1      34.010 -21.227 -19.722  0.00  0.00    +0.149 C 
ATOM     15  C   UNL     1      33.459 -20.197 -21.452  0.00  0.00    +0.218 C 
ATOM     16  H   UNL     1      32.045 -21.752 -19.280  0.00  0.00    +0.176 HD
ENDBRANCH   7  14
BRANCH   4  17
ATOM     17  C   UNL     1      32.949 -24.129 -14.930  0.00  0.00    +0.021 C 
ATOM     18  C   UNL     1      31.840 -23.543 -15.542  0.00  0.00    +0.016 C 
ATOM     19  C   UNL     1      32.772 -25.042 -13.893  0.00  0.00    +0.002 C 
ATOM     20  C   UNL     1      30.554 -23.871 -15.114  0.00  0.00    +0.051 C 
ATOM     21  C   UNL     1      31.485 -25.371 -13.465  0.00  0.00    +0.001 C 
ATOM     22  C   UNL     1      30.376 -24.786 -14.076  0.00  0.00    +0.015 C 
BRANCH  20  24
ATOM     23  O   UNL     1      28.397 -25.114 -16.723  0.00  0.00    -0.266 OA
ATOM     24  N   UNL     1      29.444 -23.287 -15.726  0.00  0.00    -0.278 N 
ATOM     25  C   UNL     1      28.433 -23.908 -16.486  0.00  0.00    +0.284 C 
ATOM     26  H   UNL     1      29.356 -22.314 -15.609  0.00  0.00    +0.155 HD
BRANCH  25  28
ATOM     27  O   UNL     1      27.168 -23.046 -18.368  0.00  0.00    -0.446 OA
ATOM     28  C   UNL     1      27.413 -22.998 -17.032  0.00  0.00    +0.199 C 
ATOM     29  C   UNL     1      26.613 -22.056 -16.428  0.00  0.00    +0.045 C 
ATOM     30  C   UNL     1      25.825 -21.489 -17.458  0.00  0.00    +0.044 C 
ATOM     31  C   UNL     1      26.200 -22.125 -18.619  0.00  0.00    +0.180 C 
ENDBRANCH  25  28
ENDBRANCH  20  24
ENDBRANCH   4  17
TORSDOF 4
ENDMDL
MODEL 2
REMARK VINA RESULT:      -9.9     11.733     15.842
REMARK  Name = 22479942
REMARK  4 active torsions:
REMARK  status: ('A' for Active; 'I' for Inactive)
REMARK    1  A    between atoms: C_4  and  C_17
REMARK    2  A    between atoms: C_7  and  C_14
REMARK    3  A    between atoms: C_20  and  N_24
REMARK    4  A    between atoms: C_25  and  C_28
REMARK                            x       y       z     vdW  Elec       q    Type
REMARK                         _______ _______ _______ _____ _____    ______ ____
ROOT
ATOM      1  N   UNL     1      32.064  -8.676 -22.017  0.00  0.00    -0.276 N 
ATOM      2  N   UNL     1      32.258  -9.891 -22.558  0.00  0.00    -0.173 NA
ATOM      3  C   UNL     1      33.103  -8.242 -23.899  0.00  0.00    +0.036 A 
ATOM      4  C   UNL     1      32.890  -9.623 -23.702  0.00  0.00    +0.102 A 
ATOM      5  C   UNL     1      32.548  -7.643 -22.774  0.00  0.00    +0.075 A 
ATOM      6  C   UNL     1      33.693  -7.436 -24.888  0.00  0.00    +0.006 C 
ATOM      7  C   UNL     1      33.702  -6.047 -24.701  0.00  0.00    +0.033 C 
ATOM      8  C   UNL     1      32.546  -6.261 -22.569  0.00  0.00    +0.019 C 
ATOM      9  C   UNL     1      33.137  -5.473 -23.560  0.00  0.00    +0.004 C 
ATOM     10  H   UNL     1      31.613  -8.542 -21.153  0.00  0.00    +0.189 HD
ENDROOT
BRANCH   7  14
ATOM     11  N   UNL     1      35.478  -5.497 -26.318  0.00  0.00    -0.218 N 
ATOM     12  N   UNL     1      33.837  -4.062 -26.165  0.00  0.00    -0.206 NA
ATOM     13  N   UNL     1      35.815  -4.549 -27.206  0.00  0.00    -0.157 NA
ATOM     14  C   UNL     1      34.302  -5.201 -25.704  0.00  0.00    +0.149 C 
ATOM     15  C   UNL     1      34.790  -3.704 -27.075  0.00  0.00    +0.218 C 
ATOM     16  H   UNL     1      36.013  -6.303 -26.136  0.00  0.00    +0.176 HD
ENDBRANCH   7  14
BRANCH   4  17
ATOM     17  C   UNL     1      33.279 -10.696 -24.582  0.00  0.00    +0.021 C 
ATOM     18  C   UNL     1      33.592 -11.950 -24.056  0.00  0.00    +0.016 C 
ATOM     19  C   UNL     1      33.341 -10.481 -25.958  0.00  0.00    +0.002 C 
ATOM     20  C   UNL     1      33.969 -12.988 -24.907  0.00  0.00    +0.051 C 
ATOM     21  C   UNL     1      33.718 -11.521 -26.809  0.00  0.00    +0.001 C 
ATOM     22  C   UNL     1      34.031 -12.774 -26.285  0.00  0.00    +0.015 C 
BRANCH  20  24
ATOM     23  O   UNL     1      33.421 -15.692 -25.992  0.00  0.00    -0.266 OA
ATOM     24  N   UNL     1      34.281 -14.243 -24.383  0.00  0.00    -0.278 N 
ATOM     25  C   UNL     1      34.006 -15.514 -24.926  0.00  0.00    +0.284 C 
ATOM     26  H   UNL     1      34.758 -14.239 -23.521  0.00  0.00    +0.155 HD
BRANCH  25  28
ATOM     27  O   UNL     1      34.979 -16.387 -22.882  0.00  0.00    -0.446 OA
ATOM     28  C   UNL     1      34.436 -16.654 -24.099  0.00  0.00    +0.199 C 
ATOM     29  C   UNL     1      34.396 -18.011 -24.322  0.00  0.00    +0.045 C 
ATOM     30  C   UNL     1      34.950 -18.616 -23.169  0.00  0.00    +0.044 C 
ATOM     31  C   UNL     1      35.288 -17.586 -22.322  0.00  0.00    +0.180 C 
ENDBRANCH  25  28
ENDBRANCH  20  24
ENDBRANCH   4  17
TORSDOF 4
ENDMDL
MODEL 3
REMARK VINA RESULT:      -9.8     10.424     14.955
REMARK  Name = 22479942
REMARK  4 active torsions:
REMARK  status: ('A' for Active; 'I' for Inactive)
REMARK    1  A    between atoms: C_4  and  C_17
REMARK    2  A    between atoms: C_7  and  C_14
REMARK    3  A    between atoms: C_20  and  N_24
REMARK    4  A    between atoms: C_25  and  C_28
REMARK                            x       y       z     vdW  Elec       q    Type
REMARK                         _______ _______ _______ _____ _____    ______ ____
ROOT
ATOM      1  N   UNL     1      33.690  -7.028 -24.989  0.00  0.00    -0.276 N 
ATOM      2  N   UNL     1      33.849  -8.068 -25.824  0.00  0.00    -0.173 NA
ATOM      3  C   UNL     1      33.073  -8.753 -23.784  0.00  0.00    +0.036 A 
ATOM      4  C   UNL     1      33.473  -9.115 -25.088  0.00  0.00    +0.102 A 
ATOM      5  C   UNL     1      33.226  -7.372 -23.747  0.00  0.00    +0.075 A 
ATOM      6  C   UNL     1      32.604  -9.425 -22.642  0.00  0.00    +0.006 C 
ATOM      7  C   UNL     1      32.306  -8.671 -21.499  0.00  0.00    +0.033 C 
ATOM      8  C   UNL     1      32.935  -6.602 -22.619  0.00  0.00    +0.019 C 
ATOM      9  C   UNL     1      32.469  -7.284 -21.491  0.00  0.00    +0.004 C 
ATOM     10  H   UNL     1      33.888  -6.099 -25.248  0.00  0.00    +0.189 HD
ENDROOT
BRANCH   7  14
ATOM     11  N   UNL     1      32.509  -9.355 -19.140  0.00  0.00    -0.218 N 
ATOM     12  N   UNL     1      30.704 -10.012 -20.181  0.00  0.00    -0.206 NA
ATOM     13  N   UNL     1      31.846 -10.044 -18.199  0.00  0.00    -0.157 NA
ATOM     14  C   UNL     1      31.824  -9.340 -20.315  0.00  0.00    +0.149 C 
ATOM     15  C   UNL     1      30.761 -10.421 -18.879  0.00  0.00    +0.218 C 
ATOM     16  H   UNL     1      33.379  -8.915 -18.998  0.00  0.00    +0.176 HD
ENDBRANCH   7  14
BRANCH   4  17
ATOM     17  C   UNL     1      33.503 -10.442 -25.650  0.00  0.00    +0.021 C 
ATOM     18  C   UNL     1      33.863 -11.529 -24.853  0.00  0.00    +0.016 C 
ATOM     19  C   UNL     1      33.171 -10.639 -26.990  0.00  0.00    +0.002 C 
ATOM     20  C   UNL     1      33.891 -12.813 -25.397  0.00  0.00    +0.051 C 
ATOM     21  C   UNL     1      33.199 -11.924 -27.534  0.00  0.00    +0.001 C 
ATOM     22  C   UNL     1      33.559 -13.011 -26.738  0.00  0.00    +0.015 C 
BRANCH  20  24
ATOM     23  O   UNL     1      33.545 -15.717 -25.880  0.00  0.00    -0.266 OA
ATOM     24  N   UNL     1      34.251 -13.902 -24.601  0.00  0.00    -0.278 N 
ATOM     25  C   UNL     1      34.071 -15.275 -24.861  0.00  0.00    +0.284 C 
ATOM     26  H   UNL     1      34.687 -13.680 -23.747  0.00  0.00    +0.155 HD
BRANCH  25  28
ATOM     27  O   UNL     1      34.545 -15.699 -22.519  0.00  0.00    -0.446 OA
ATOM     28  C   UNL     1      34.527 -16.178 -23.791  0.00  0.00    +0.199 C 
ATOM     29  C   UNL     1      34.964 -17.482 -23.821  0.00  0.00    +0.045 C 
ATOM     30  C   UNL     1      35.268 -17.827 -22.483  0.00  0.00    +0.044 C 
ATOM     31  C   UNL     1      34.996 -16.708 -21.729  0.00  0.00    +0.180 C 
ENDBRANCH  25  28
ENDBRANCH  20  24
ENDBRANCH   4  17
TORSDOF 4
ENDMDL
MODEL 4
REMARK VINA RESULT:      -9.8      5.866     10.190
REMARK  Name = 22479942
REMARK  4 active torsions:
REMARK  status: ('A' for Active; 'I' for Inactive)
REMARK    1  A    between atoms: C_4  and  C_17
REMARK    2  A    between atoms: C_7  and  C_14
REMARK    3  A    between atoms: C_20  and  N_24
REMARK    4  A    between atoms: C_25  and  C_28
REMARK                            x       y       z     vdW  Elec       q    Type
REMARK                         _______ _______ _______ _____ _____    ______ ____
ROOT
ATOM      1  N   UNL     1      37.902 -19.015 -21.385  0.00  0.00    -0.276 N 
ATOM      2  N   UNL     1      37.313 -18.415 -22.433  0.00  0.00    -0.173 NA
ATOM      3  C   UNL     1      35.829 -19.727 -21.287  0.00  0.00    +0.036 A 
ATOM      4  C   UNL     1      36.053 -18.850 -22.370  0.00  0.00    +0.102 A 
ATOM      5  C   UNL     1      37.065 -19.818 -20.656  0.00  0.00    +0.075 A 
ATOM      6  C   UNL     1      34.739 -20.447 -20.772  0.00  0.00    +0.006 C 
ATOM      7  C   UNL     1      34.938 -21.236 -19.631  0.00  0.00    +0.033 C 
ATOM      8  C   UNL     1      37.285 -20.598 -19.519  0.00  0.00    +0.019 C 
ATOM      9  C   UNL     1      36.190 -21.309 -19.018  0.00  0.00    +0.004 C 
ATOM     10  H   UNL     1      38.851 -18.889 -21.161  0.00  0.00    +0.189 HD
ENDROOT
BRANCH   7  14
ATOM     11  N   UNL     1      32.534 -21.602 -19.225  0.00  0.00    -0.218 N 
ATOM     12  N   UNL     1      33.889 -23.104 -18.399  0.00  0.00    -0.206 NA
ATOM     13  N   UNL     1      31.703 -22.468 -18.626  0.00  0.00    -0.157 NA
ATOM     14  C   UNL     1      33.831 -21.986 -19.086  0.00  0.00    +0.149 C 
ATOM     15  C   UNL     1      32.573 -23.358 -18.142  0.00  0.00    +0.218 C 
ATOM     16  H   UNL     1      32.242 -20.792 -19.704  0.00  0.00    +0.176 HD
ENDBRANCH   7  14
BRANCH   4  17
ATOM     17  C   UNL     1      35.089 -18.415 -23.348  0.00  0.00    +0.021 C 
ATOM     18  C   UNL     1      35.054 -17.078 -23.747  0.00  0.00    +0.016 C 
ATOM     19  C   UNL     1      34.191 -19.329 -23.897  0.00  0.00    +0.002 C 
ATOM     20  C   UNL     1      34.121 -16.656 -24.693  0.00  0.00    +0.051 C 
ATOM     21  C   UNL     1      33.257 -18.907 -24.844  0.00  0.00    +0.001 C 
ATOM     22  C   UNL     1      33.222 -17.571 -25.243  0.00  0.00    +0.015 C 
BRANCH  20  24
ATOM     23  O   UNL     1      33.112 -14.268 -23.258  0.00  0.00    -0.266 OA
ATOM     24  N   UNL     1      34.086 -15.320 -25.094  0.00  0.00    -0.278 N 
ATOM     25  C   UNL     1      33.598 -14.204 -24.384  0.00  0.00    +0.284 C 
ATOM     26  H   UNL     1      34.451 -15.133 -25.989  0.00  0.00    +0.155 HD
BRANCH  25  28
ATOM     27  O   UNL     1      33.483 -12.944 -26.454  0.00  0.00    -0.446 OA
ATOM     28  C   UNL     1      33.668 -12.924 -25.108  0.00  0.00    +0.199 C 
ATOM     29  C   UNL     1      33.895 -11.640 -24.671  0.00  0.00    +0.045 C 
ATOM     30  C   UNL     1      33.847 -10.817 -25.822  0.00  0.00    +0.044 C 
ATOM     31  C   UNL     1      33.593 -11.659 -26.881  0.00  0.00    +0.180 C 
ENDBRANCH  25  28
ENDBRANCH  20  24
ENDBRANCH   4  17
TORSDOF 4
ENDMDL
MODEL 5
REMARK VINA RESULT:      -9.7      9.149     13.302
REMARK  Name = 22479942
REMARK  4 active torsions:
REMARK  status: ('A' for Active; 'I' for Inactive)
REMARK    1  A    between atoms: C_4  and  C_17
REMARK    2  A    between atoms: C_7  and  C_14
REMARK    3  A    between atoms: C_20  and  N_24
REMARK    4  A    between atoms: C_25  and  C_28
REMARK                            x       y       z     vdW  Elec       q    Type
REMARK                         _______ _______ _______ _____ _____    ______ ____
ROOT
ATOM      1  N   UNL     1      30.964 -11.646 -21.127  0.00  0.00    -0.276 N 
ATOM      2  N   UNL     1      31.411 -12.827 -21.587  0.00  0.00    -0.173 NA
ATOM      3  C   UNL     1      32.405 -11.081 -22.682  0.00  0.00    +0.036 A 
ATOM      4  C   UNL     1      32.286 -12.479 -22.532  0.00  0.00    +0.102 A 
ATOM      5  C   UNL     1      31.522 -10.558 -21.744  0.00  0.00    +0.075 A 
ATOM      6  C   UNL     1      33.146 -10.206 -23.493  0.00  0.00    +0.006 C 
ATOM      7  C   UNL     1      32.969  -8.826 -23.325  0.00  0.00    +0.033 C 
ATOM      8  C   UNL     1      31.329  -9.187 -21.561  0.00  0.00    +0.019 C 
ATOM      9  C   UNL     1      32.075  -8.328 -22.375  0.00  0.00    +0.004 C 
ATOM     10  H   UNL     1      30.295 -11.570 -20.410  0.00  0.00    +0.189 HD
ENDROOT
BRANCH   7  14
ATOM     11  N   UNL     1      33.771  -6.571 -23.911  0.00  0.00    -0.218 N 
ATOM     12  N   UNL     1      34.439  -8.198 -25.208  0.00  0.00    -0.206 NA
ATOM     13  N   UNL     1      34.534  -5.945 -24.819  0.00  0.00    -0.157 NA
ATOM     14  C   UNL     1      33.720  -7.909 -24.147  0.00  0.00    +0.149 C 
ATOM     15  C   UNL     1      34.915  -6.974 -25.581  0.00  0.00    +0.218 C 
ATOM     16  H   UNL     1      33.309  -6.119 -23.167  0.00  0.00    +0.176 HD
ENDBRANCH   7  14
BRANCH   4  17
ATOM     17  C   UNL     1      32.994 -13.495 -23.270  0.00  0.00    +0.021 C 
ATOM     18  C   UNL     1      33.619 -14.542 -22.592  0.00  0.00    +0.016 C 
ATOM     19  C   UNL     1      33.052 -13.432 -24.661  0.00  0.00    +0.002 C 
ATOM     20  C   UNL     1      34.303 -15.525 -23.306  0.00  0.00    +0.051 C 
ATOM     21  C   UNL     1      33.737 -14.416 -25.376  0.00  0.00    +0.001 C 
ATOM     22  C   UNL     1      34.362 -15.462 -24.699  0.00  0.00    +0.015 C 
BRANCH  20  24
ATOM     23  O   UNL     1      34.109 -18.451 -23.738  0.00  0.00    -0.266 OA
ATOM     24  N   UNL     1      34.929 -16.573 -22.630  0.00  0.00    -0.278 N 
ATOM     25  C   UNL     1      34.815 -17.959 -22.861  0.00  0.00    +0.284 C 
ATOM     26  H   UNL     1      35.529 -16.309 -21.895  0.00  0.00    +0.155 HD
BRANCH  25  28
ATOM     27  O   UNL     1      34.951 -19.886 -21.394  0.00  0.00    -0.446 OA
ATOM     28  C   UNL     1      35.581 -18.812 -21.937  0.00  0.00    +0.199 C 
ATOM     29  C   UNL     1      36.879 -18.736 -21.488  0.00  0.00    +0.045 C 
ATOM     30  C   UNL     1      37.058 -19.834 -20.614  0.00  0.00    +0.044 C 
ATOM     31  C   UNL     1      35.856 -20.504 -20.591  0.00  0.00    +0.180 C 
ENDBRANCH  25  28
ENDBRANCH  20  24
ENDBRANCH   4  17
TORSDOF 4
ENDMDL
MODEL 6
REMARK VINA RESULT:      -9.7     13.194     17.039
REMARK  Name = 22479942
REMARK  4 active torsions:
REMARK  status: ('A' for Active; 'I' for Inactive)
REMARK    1  A    between atoms: C_4  and  C_17
REMARK    2  A    between atoms: C_7  and  C_14
REMARK    3  A    between atoms: C_20  and  N_24
REMARK    4  A    between atoms: C_25  and  C_28
REMARK                            x       y       z     vdW  Elec       q    Type
REMARK                         _______ _______ _______ _____ _____    ______ ____
ROOT
ATOM      1  N   UNL     1      31.275  -9.919 -20.849  0.00  0.00    -0.276 N 
ATOM      2  N   UNL     1      31.688  -8.809 -21.484  0.00  0.00    -0.173 NA
ATOM      3  C   UNL     1      32.381 -10.696 -22.576  0.00  0.00    +0.036 A 
ATOM      4  C   UNL     1      32.360  -9.285 -22.534  0.00  0.00    +0.102 A 
ATOM      5  C   UNL     1      31.660 -11.086 -21.454  0.00  0.00    +0.075 A 
ATOM      6  C   UNL     1      32.921 -11.678 -23.423  0.00  0.00    +0.006 C 
ATOM      7  C   UNL     1      32.710 -13.026 -23.103  0.00  0.00    +0.033 C 
ATOM      8  C   UNL     1      31.438 -12.423 -21.117  0.00  0.00    +0.019 C 
ATOM      9  C   UNL     1      31.981 -13.389 -21.969  0.00  0.00    +0.004 C 
ATOM     10  H   UNL     1      30.743  -9.895 -20.022  0.00  0.00    +0.189 HD
ENDROOT
BRANCH   7  14
ATOM     11  N   UNL     1      32.879 -14.217 -25.255  0.00  0.00    -0.218 N 
ATOM     12  N   UNL     1      34.161 -14.951 -23.645  0.00  0.00    -0.206 NA
ATOM     13  N   UNL     1      33.534 -15.238 -25.826  0.00  0.00    -0.157 NA
ATOM     14  C   UNL     1      33.257 -14.052 -23.959  0.00  0.00    +0.149 C 
ATOM     15  C   UNL     1      34.298 -15.648 -24.810  0.00  0.00    +0.218 C 
ATOM     16  H   UNL     1      32.211 -13.658 -25.715  0.00  0.00    +0.176 HD
ENDBRANCH   7  14
BRANCH   4  17
ATOM     17  C   UNL     1      32.966  -8.378 -23.476  0.00  0.00    +0.021 C 
ATOM     18  C   UNL     1      32.226  -7.315 -23.995  0.00  0.00    +0.016 C 
ATOM     19  C   UNL     1      34.290  -8.563 -23.868  0.00  0.00    +0.002 C 
ATOM     20  C   UNL     1      32.812  -6.438 -24.906  0.00  0.00    +0.051 C 
ATOM     21  C   UNL     1      34.877  -7.686 -24.781  0.00  0.00    +0.001 C 
ATOM     22  C   UNL     1      34.138  -6.623 -25.300  0.00  0.00    +0.015 C 
BRANCH  20  24
ATOM     23  O   UNL     1      32.183  -3.799 -23.711  0.00  0.00    -0.266 OA
ATOM     24  N   UNL     1      32.074  -5.373 -25.425  0.00  0.00    -0.278 N 
ATOM     25  C   UNL     1      31.793  -4.127 -24.829  0.00  0.00    +0.284 C 
ATOM     26  H   UNL     1      31.703  -5.511 -26.327  0.00  0.00    +0.155 HD
BRANCH  25  28
ATOM     27  O   UNL     1      29.738  -2.870 -25.118  0.00  0.00    -0.446 OA
ATOM     28  C   UNL     1      30.945  -3.229 -25.630  0.00  0.00    +0.199 C 
ATOM     29  C   UNL     1      31.139  -2.646 -26.861  0.00  0.00    +0.045 C 
ATOM     30  C   UNL     1      29.977  -1.880 -27.122  0.00  0.00    +0.044 C 
ATOM     31  C   UNL     1      29.156  -2.049 -26.030  0.00  0.00    +0.180 C 
ENDBRANCH  25  28
ENDBRANCH  20  24
ENDBRANCH   4  17
TORSDOF 4
ENDMDL
MODEL 7
REMARK VINA RESULT:      -9.6      8.701     12.885
REMARK  Name = 22479942
REMARK  4 active torsions:
REMARK  status: ('A' for Active; 'I' for Inactive)
REMARK    1  A    between atoms: C_4  and  C_17
REMARK    2  A    between atoms: C_7  and  C_14
REMARK    3  A    between atoms: C_20  and  N_24
REMARK    4  A    between atoms: C_25  and  C_28
REMARK                            x       y       z     vdW  Elec       q    Type
REMARK                         _______ _______ _______ _____ _____    ______ ____
ROOT
ATOM      1  N   UNL     1      33.534 -13.829 -26.765  0.00  0.00    -0.276 N 
ATOM      2  N   UNL     1      33.446 -14.571 -25.648  0.00  0.00    -0.173 NA
ATOM      3  C   UNL     1      33.860 -12.375 -25.155  0.00  0.00    +0.036 A 
ATOM      4  C   UNL     1      33.644 -13.684 -24.672  0.00  0.00    +0.102 A 
ATOM      5  C   UNL     1      33.782 -12.502 -26.538  0.00  0.00    +0.075 A 
ATOM      6  C   UNL     1      34.110 -11.113 -24.592  0.00  0.00    +0.006 C 
ATOM      7  C   UNL     1      34.272 -10.018 -25.452  0.00  0.00    +0.033 C 
ATOM      8  C   UNL     1      33.941 -11.424 -27.412  0.00  0.00    +0.019 C 
ATOM      9  C   UNL     1      34.188 -10.174 -26.837  0.00  0.00    +0.004 C 
ATOM     10  H   UNL     1      33.429 -14.207 -27.668  0.00  0.00    +0.189 HD
ENDROOT
BRANCH   7  14
ATOM     11  N   UNL     1      33.783  -7.616 -25.195  0.00  0.00    -0.218 N 
ATOM     12  N   UNL     1      35.481  -8.381 -24.051  0.00  0.00    -0.206 NA
ATOM     13  N   UNL     1      34.231  -6.529 -24.548  0.00  0.00    -0.157 NA
ATOM     14  C   UNL     1      34.530  -8.712 -24.895  0.00  0.00    +0.149 C 
ATOM     15  C   UNL     1      35.259  -7.045 -23.869  0.00  0.00    +0.218 C 
ATOM     16  H   UNL     1      33.012  -7.619 -25.808  0.00  0.00    +0.176 HD
ENDBRANCH   7  14
BRANCH   4  17
ATOM     17  C   UNL     1      33.621 -14.108 -23.294  0.00  0.00    +0.021 C 
ATOM     18  C   UNL     1      34.270 -15.283 -22.916  0.00  0.00    +0.016 C 
ATOM     19  C   UNL     1      32.951 -13.343 -22.341  0.00  0.00    +0.002 C 
ATOM     20  C   UNL     1      34.248 -15.693 -21.583  0.00  0.00    +0.051 C 
ATOM     21  C   UNL     1      32.929 -13.753 -21.008  0.00  0.00    +0.001 C 
ATOM     22  C   UNL     1      33.577 -14.928 -20.628  0.00  0.00    +0.015 C 
BRANCH  20  24
ATOM     23  O   UNL     1      34.379 -18.320 -22.949  0.00  0.00    -0.266 OA
ATOM     24  N   UNL     1      34.897 -16.868 -21.202  0.00  0.00    -0.278 N 
ATOM     25  C   UNL     1      34.940 -18.105 -21.877  0.00  0.00    +0.284 C 
ATOM     26  H   UNL     1      35.390 -16.827 -20.351  0.00  0.00    +0.155 HD
BRANCH  25  28
ATOM     27  O   UNL     1      34.981 -20.226 -20.700  0.00  0.00    -0.446 OA
ATOM     28  C   UNL     1      35.685 -19.170 -21.184  0.00  0.00    +0.199 C 
ATOM     29  C   UNL     1      37.025 -19.318 -20.913  0.00  0.00    +0.045 C 
ATOM     30  C   UNL     1      37.153 -20.545 -20.218  0.00  0.00    +0.044 C 
ATOM     31  C   UNL     1      35.881 -21.059 -20.114  0.00  0.00    +0.180 C 
ENDBRANCH  25  28
ENDBRANCH  20  24
ENDBRANCH   4  17
TORSDOF 4
ENDMDL
MODEL 8
REMARK VINA RESULT:      -9.3      3.057      6.640
REMARK  Name = 22479942
REMARK  4 active torsions:
REMARK  status: ('A' for Active; 'I' for Inactive)
REMARK    1  A    between atoms: C_4  and  C_17
REMARK    2  A    between atoms: C_7  and  C_14
REMARK    3  A    between atoms: C_20  and  N_24
REMARK    4  A    between atoms: C_25  and  C_28
REMARK                            x       y       z     vdW  Elec       q    Type
REMARK                         _______ _______ _______ _____ _____    ______ ____
ROOT
ATOM      1  N   UNL     1      34.065 -25.085 -12.898  0.00  0.00    -0.276 N 
ATOM      2  N   UNL     1      35.125 -24.597 -13.564  0.00  0.00    -0.173 NA
ATOM      3  C   UNL     1      33.175 -24.180 -14.686  0.00  0.00    +0.036 A 
ATOM      4  C   UNL     1      34.579 -24.047 -14.650  0.00  0.00    +0.102 A 
ATOM      5  C   UNL     1      32.864 -24.868 -13.519  0.00  0.00    +0.075 A 
ATOM      6  C   UNL     1      32.140 -23.803 -15.559  0.00  0.00    +0.006 C 
ATOM      7  C   UNL     1      30.823 -24.137 -15.218  0.00  0.00    +0.033 C 
ATOM      8  C   UNL     1      31.559 -25.211 -13.160  0.00  0.00    +0.019 C 
ATOM      9  C   UNL     1      30.540 -24.830 -14.039  0.00  0.00    +0.004 C 
ATOM     10  H   UNL     1      34.146 -25.558 -12.038  0.00  0.00    +0.189 HD
ENDROOT
BRANCH   7  14
ATOM     11  N   UNL     1      29.744 -22.608 -16.821  0.00  0.00    -0.218 N 
ATOM     12  N   UNL     1      28.643 -24.434 -16.342  0.00  0.00    -0.206 NA
ATOM     13  N   UNL     1      28.629 -22.496 -17.559  0.00  0.00    -0.157 NA
ATOM     14  C   UNL     1      29.745 -23.761 -16.101  0.00  0.00    +0.149 C 
ATOM     15  C   UNL     1      27.997 -23.627 -17.234  0.00  0.00    +0.218 C 
ATOM     16  H   UNL     1      30.467 -21.940 -16.804  0.00  0.00    +0.176 HD
ENDBRANCH   7  14
BRANCH   4  17
ATOM     17  C   UNL     1      35.416 -23.403 -15.632  0.00  0.00    +0.021 C 
ATOM     18  C   UNL     1      34.843 -22.835 -16.771  0.00  0.00    +0.016 C 
ATOM     19  C   UNL     1      36.795 -23.347 -15.443  0.00  0.00    +0.002 C 
ATOM     20  C   UNL     1      35.652 -22.212 -17.721  0.00  0.00    +0.051 C 
ATOM     21  C   UNL     1      37.605 -22.723 -16.393  0.00  0.00    +0.001 C 
ATOM     22  C   UNL     1      37.034 -22.156 -17.532  0.00  0.00    +0.015 C 
BRANCH  20  24
ATOM     23  O   UNL     1      36.870 -20.478 -19.793  0.00  0.00    -0.266 OA
ATOM     24  N   UNL     1      35.082 -21.643 -18.860  0.00  0.00    -0.278 N 
ATOM     25  C   UNL     1      35.690 -20.820 -19.829  0.00  0.00    +0.284 C 
ATOM     26  H   UNL     1      34.129 -21.843 -19.005  0.00  0.00    +0.155 HD
BRANCH  25  28
ATOM     27  O   UNL     1      35.362 -19.789 -22.000  0.00  0.00    -0.446 OA
ATOM     28  C   UNL     1      34.796 -20.346 -20.898  0.00  0.00    +0.199 C 
ATOM     29  C   UNL     1      33.425 -20.353 -21.011  0.00  0.00    +0.045 C 
ATOM     30  C   UNL     1      33.130 -19.763 -22.263  0.00  0.00    +0.044 C 
ATOM     31  C   UNL     1      34.342 -19.438 -22.827  0.00  0.00    +0.180 C 
ENDBRANCH  25  28
ENDBRANCH  20  24
ENDBRANCH   4  17
TORSDOF 4
ENDMDL
MODEL 9
REMARK VINA RESULT:      -9.2     10.782     14.822
REMARK  Name = 22479942
REMARK  4 active torsions:
REMARK  status: ('A' for Active; 'I' for Inactive)
REMARK    1  A    between atoms: C_4  and  C_17
REMARK    2  A    between atoms: C_7  and  C_14
REMARK    3  A    between atoms: C_20  and  N_24
REMARK    4  A    between atoms: C_25  and  C_28
REMARK                            x       y       z     vdW  Elec       q    Type
REMARK                         _______ _______ _______ _____ _____    ______ ____
ROOT
ATOM      1  N   UNL     1      31.526 -10.246 -20.949  0.00  0.00    -0.276 N 
ATOM      2  N   UNL     1      31.918 -11.325 -21.647  0.00  0.00    -0.173 NA
ATOM      3  C   UNL     1      32.461  -9.389 -22.738  0.00  0.00    +0.036 A 
ATOM      4  C   UNL     1      32.486 -10.800 -22.734  0.00  0.00    +0.102 A 
ATOM      5  C   UNL     1      31.823  -9.052 -21.551  0.00  0.00    +0.075 A 
ATOM      6  C   UNL     1      32.899  -8.368 -23.599  0.00  0.00    +0.006 C 
ATOM      7  C   UNL     1      32.674  -7.036 -23.224  0.00  0.00    +0.033 C 
ATOM      8  C   UNL     1      31.589  -7.732 -21.159  0.00  0.00    +0.019 C 
ATOM      9  C   UNL     1      32.030  -6.727 -22.025  0.00  0.00    +0.004 C 
ATOM     10  H   UNL     1      31.067 -10.308 -20.081  0.00  0.00    +0.189 HD
ENDROOT
BRANCH   7  14
ATOM     11  N   UNL     1      32.523  -4.747 -24.126  0.00  0.00    -0.218 N 
ATOM     12  N   UNL     1      34.106  -6.006 -24.955  0.00  0.00    -0.206 NA
ATOM     13  N   UNL     1      33.120  -3.942 -25.018  0.00  0.00    -0.157 NA
ATOM     14  C   UNL     1      33.115  -5.972 -24.094  0.00  0.00    +0.149 C 
ATOM     15  C   UNL     1      34.071  -4.751 -25.492  0.00  0.00    +0.218 C 
ATOM     16  H   UNL     1      31.757  -4.485 -23.566  0.00  0.00    +0.176 HD
ENDBRANCH   7  14
BRANCH   4  17
ATOM     17  C   UNL     1      33.043 -11.662 -23.746  0.00  0.00    +0.021 C 
ATOM     18  C   UNL     1      33.400 -12.973 -23.426  0.00  0.00    +0.016 C 
ATOM     19  C   UNL     1      33.225 -11.186 -25.044  0.00  0.00    +0.002 C 
ATOM     20  C   UNL     1      33.939 -13.806 -24.406  0.00  0.00    +0.051 C 
ATOM     21  C   UNL     1      33.764 -12.021 -26.023  0.00  0.00    +0.001 C 
ATOM     22  C   UNL     1      34.121 -13.331 -25.705  0.00  0.00    +0.015 C 
BRANCH  20  24
ATOM     23  O   UNL     1      33.398 -16.330 -25.863  0.00  0.00    -0.266 OA
ATOM     24  N   UNL     1      34.295 -15.118 -24.088  0.00  0.00    -0.278 N 
ATOM     25  C   UNL     1      34.022 -16.300 -24.805  0.00  0.00    +0.284 C 
ATOM     26  H   UNL     1      34.806 -15.231 -23.254  0.00  0.00    +0.155 HD
BRANCH  25  28
ATOM     27  O   UNL     1      35.457 -17.433 -23.211  0.00  0.00    -0.446 OA
ATOM     28  C   UNL     1      34.505 -17.539 -24.175  0.00  0.00    +0.199 C 
ATOM     29  C   UNL     1      34.168 -18.858 -24.377  0.00  0.00    +0.045 C 
ATOM     30  C   UNL     1      34.964 -19.609 -23.480  0.00  0.00    +0.044 C 
ATOM     31  C   UNL     1      35.730 -18.696 -22.793  0.00  0.00    +0.180 C 
ENDBRANCH  25  28
ENDBRANCH  20  24
ENDBRANCH   4  17
TORSDOF 4
ENDMDL
