MODEL 1
REMARK VINA RESULT:     -12.0      0.000      0.000
REMARK  Name = 16040279
REMARK  5 active torsions:
REMARK  status: ('A' for Active; 'I' for Inactive)
REMARK    1  A    between atoms: N_2  and  C_21
REMARK    2  A    between atoms: C_3  and  C_11
REMARK    3  A    between atoms: C_4  and  N_17
REMARK    4  A    between atoms: C_21  and  C_22
REMARK    5  A    between atoms: C_22  and  C_25
REMARK                            x       y       z     vdW  Elec       q    Type
REMARK                         _______ _______ _______ _____ _____    ______ ____
ROOT
ATOM      1  O   UNL     1      34.238 -17.464 -25.547  0.00  0.00    -0.275 OA
ATOM      2  N   UNL     1      34.859 -17.285 -23.318  0.00  0.00    -0.281 N 
ATOM      3  C   UNL     1      33.598 -14.705 -23.215  0.00  0.00    +0.015 C 
ATOM      4  C   UNL     1      34.678 -15.056 -22.176  0.00  0.00    -0.041 C 
ATOM      5  C   UNL     1      34.750 -16.576 -22.045  0.00  0.00    +0.072 C 
ATOM      6  C   UNL     1      34.000 -15.319 -24.559  0.00  0.00    +0.088 C 
ATOM      7  C   UNL     1      34.344 -16.796 -24.516  0.00  0.00    +0.226 C 
ENDROOT
BRANCH   3  11
ATOM      8  F   UNL     1      31.636 -13.292 -21.728  0.00  0.00    -0.204 F 
ATOM      9  F   UNL     1      34.580 -10.408 -25.324  0.00  0.00    -0.202 F 
ATOM     10  F   UNL     1      32.655  -9.174 -23.825  0.00  0.00    -0.202 F 
ATOM     11  C   UNL     1      33.342 -13.215 -23.377  0.00  0.00    +0.006 C 
ATOM     12  C   UNL     1      32.361 -12.592 -22.612  0.00  0.00    +0.138 C 
ATOM     13  C   UNL     1      34.092 -12.484 -24.293  0.00  0.00    +0.030 C 
ATOM     14  C   UNL     1      33.860 -11.116 -24.445  0.00  0.00    +0.167 C 
ATOM     15  C   UNL     1      32.128 -11.225 -22.764  0.00  0.00    +0.061 C 
ATOM     16  C   UNL     1      32.878 -10.487 -23.680  0.00  0.00    +0.170 C 
ENDBRANCH   3  11
BRANCH   4  17
ATOM     17  N   UNL     1      34.377 -14.493 -20.858  0.00  0.00    +0.383 N 
ATOM     18  H   UNL     1      34.724 -13.534 -20.811  0.00  0.00    -0.089 HD
ATOM     19  H   UNL     1      34.831 -15.055 -20.136  0.00  0.00    -0.089 HD
ATOM     20  H   UNL     1      33.368 -14.497 -20.708  0.00  0.00    -0.089 HD
ENDBRANCH   4  17
BRANCH   2  21
ATOM     21  C   UNL     1      35.298 -18.672 -23.238  0.00  0.00    +0.098 C 
BRANCH  21  22
ATOM     22  C   UNL     1      35.824 -19.041 -21.851  0.00  0.00    +0.048 C 
BRANCH  22  25
ATOM     23  O   UNL     1      34.866 -22.717 -18.697  0.00  0.00    -0.435 OA
ATOM     24  O   UNL     1      32.484 -22.497 -18.984  0.00  0.00    -0.435 OA
ATOM     25  C   UNL     1      34.894 -19.956 -21.094  0.00  0.00    -0.017 C 
ATOM     26  C   UNL     1      35.431 -20.911 -20.241  0.00  0.00    +0.036 C 
ATOM     27  C   UNL     1      33.515 -19.818 -21.270  0.00  0.00    -0.001 C 
ATOM     28  C   UNL     1      34.541 -21.725 -19.570  0.00  0.00    +0.176 C 
ATOM     29  C   UNL     1      33.179 -21.600 -19.735  0.00  0.00    +0.176 C 
ATOM     30  C   UNL     1      32.635 -20.654 -20.579  0.00  0.00    +0.040 C 
ATOM     31  C   UNL     1      33.558 -23.200 -18.329  0.00  0.00    +0.429 C 
ENDBRANCH  22  25
ENDBRANCH  21  22
ENDBRANCH   2  21
TORSDOF 5
ENDMDL
MODEL 2
REMARK VINA RESULT:     -11.7      0.924      1.536
REMARK  Name = 16040279
REMARK  5 active torsions:
REMARK  status: ('A' for Active; 'I' for Inactive)
REMARK    1  A    between atoms: N_2  and  C_21
REMARK    2  A    between atoms: C_3  and  C_11
REMARK    3  A    between atoms: C_4  and  N_17
REMARK    4  A    between atoms: C_21  and  C_22
REMARK    5  A    between atoms: C_22  and  C_25
REMARK                            x       y       z     vdW  Elec       q    Type
REMARK                         _______ _______ _______ _____ _____    ______ ____
ROOT
ATOM      1  O   UNL     1      33.599 -16.610 -25.760  0.00  0.00    -0.275 OA
ATOM      2  N   UNL     1      34.509 -16.577 -23.626  0.00  0.00    -0.281 N 
ATOM      3  C   UNL     1      33.245 -14.037 -23.169  0.00  0.00    +0.015 C 
ATOM      4  C   UNL     1      34.457 -14.439 -22.310  0.00  0.00    -0.041 C 
ATOM      5  C   UNL     1      34.562 -15.963 -22.301  0.00  0.00    +0.072 C 
ATOM      6  C   UNL     1      33.472 -14.546 -24.595  0.00  0.00    +0.088 C 
ATOM      7  C   UNL     1      33.834 -16.015 -24.706  0.00  0.00    +0.226 C 
ENDROOT
BRANCH   3  11
ATOM      8  F   UNL     1      31.359 -12.798 -21.448  0.00  0.00    -0.204 F 
ATOM      9  F   UNL     1      34.018  -9.557 -24.961  0.00  0.00    -0.202 F 
ATOM     10  F   UNL     1      32.173  -8.497 -23.245  0.00  0.00    -0.202 F 
ATOM     11  C   UNL     1      32.954 -12.545 -23.188  0.00  0.00    +0.006 C 
ATOM     12  C   UNL     1      32.014 -12.010 -22.312  0.00  0.00    +0.138 C 
ATOM     13  C   UNL     1      33.632 -11.723 -24.083  0.00  0.00    +0.030 C 
ATOM     14  C   UNL     1      33.368 -10.353 -24.102  0.00  0.00    +0.167 C 
ATOM     15  C   UNL     1      31.749 -10.640 -22.331  0.00  0.00    +0.061 C 
ATOM     16  C   UNL     1      32.427  -9.812 -23.226  0.00  0.00    +0.170 C 
ENDBRANCH   3  11
BRANCH   4  17
ATOM     17  N   UNL     1      34.329 -13.977 -20.926  0.00  0.00    +0.383 N 
ATOM     18  H   UNL     1      35.158 -14.249 -20.398  0.00  0.00    -0.089 HD
ATOM     19  H   UNL     1      33.501 -14.399 -20.502  0.00  0.00    -0.089 HD
ATOM     20  H   UNL     1      34.236 -12.960 -20.914  0.00  0.00    -0.089 HD
ENDBRANCH   4  17
BRANCH   2  21
ATOM     21  C   UNL     1      34.969 -17.958 -23.705  0.00  0.00    +0.098 C 
BRANCH  21  22
ATOM     22  C   UNL     1      36.044 -18.277 -22.668  0.00  0.00    +0.048 C 
BRANCH  22  25
ATOM     23  O   UNL     1      32.658 -21.023 -20.349  0.00  0.00    -0.435 OA
ATOM     24  O   UNL     1      34.321 -22.179 -19.044  0.00  0.00    -0.435 OA
ATOM     25  C   UNL     1      35.615 -19.335 -21.682  0.00  0.00    -0.017 C 
ATOM     26  C   UNL     1      34.264 -19.625 -21.544  0.00  0.00    +0.036 C 
ATOM     27  C   UNL     1      36.590 -19.997 -20.930  0.00  0.00    -0.001 C 
ATOM     28  C   UNL     1      33.920 -20.599 -20.629  0.00  0.00    +0.176 C 
ATOM     29  C   UNL     1      34.871 -21.259 -19.883  0.00  0.00    +0.176 C 
ATOM     30  C   UNL     1      36.216 -20.980 -20.011  0.00  0.00    +0.040 C 
ATOM     31  C   UNL     1      32.920 -22.024 -19.344  0.00  0.00    +0.429 C 
ENDBRANCH  22  25
ENDBRANCH  21  22
ENDBRANCH   2  21
TORSDOF 5
ENDMDL
MODEL 3
REMARK VINA RESULT:     -11.7      3.652      5.854
REMARK  Name = 16040279
REMARK  5 active torsions:
REMARK  status: ('A' for Active; 'I' for Inactive)
REMARK    1  A    between atoms: N_2  and  C_21
REMARK    2  A    between atoms: C_3  and  C_11
REMARK    3  A    between atoms: C_4  and  N_17
REMARK    4  A    between atoms: C_21  and  C_22
REMARK    5  A    between atoms: C_22  and  C_25
REMARK                            x       y       z     vdW  Elec       q    Type
REMARK                         _______ _______ _______ _____ _____    ______ ____
ROOT
ATOM      1  O   UNL     1      32.829 -21.327 -19.804  0.00  0.00    -0.275 OA
ATOM      2  N   UNL     1      35.146 -21.220 -19.864  0.00  0.00    -0.281 N 
ATOM      3  C   UNL     1      34.955 -18.814 -21.424  0.00  0.00    +0.015 C 
ATOM      4  C   UNL     1      36.253 -19.639 -21.470  0.00  0.00    -0.041 C 
ATOM      5  C   UNL     1      36.353 -20.461 -20.187  0.00  0.00    +0.072 C 
ATOM      6  C   UNL     1      33.770 -19.780 -21.338  0.00  0.00    +0.088 C 
ATOM      7  C   UNL     1      33.866 -20.823 -20.241  0.00  0.00    +0.226 C 
ENDROOT
BRANCH   3  11
ATOM      8  F   UNL     1      34.459 -19.694 -24.076  0.00  0.00    -0.204 F 
ATOM      9  F   UNL     1      34.744 -14.293 -23.265  0.00  0.00    -0.202 F 
ATOM     10  F   UNL     1      34.271 -15.280 -25.770  0.00  0.00    -0.202 F 
ATOM     11  C   UNL     1      34.771 -17.864 -22.596  0.00  0.00    +0.006 C 
ATOM     12  C   UNL     1      34.530 -18.372 -23.870  0.00  0.00    +0.138 C 
ATOM     13  C   UNL     1      34.844 -16.491 -22.387  0.00  0.00    +0.030 C 
ATOM     14  C   UNL     1      34.675 -15.615 -23.461  0.00  0.00    +0.167 C 
ATOM     15  C   UNL     1      34.362 -17.498 -24.944  0.00  0.00    +0.061 C 
ATOM     16  C   UNL     1      34.434 -16.119 -24.739  0.00  0.00    +0.170 C 
ENDBRANCH   3  11
BRANCH   4  17
ATOM     17  N   UNL     1      37.442 -18.789 -21.567  0.00  0.00    +0.383 N 
ATOM     18  H   UNL     1      38.021 -19.101 -22.348  0.00  0.00    -0.089 HD
ATOM     19  H   UNL     1      37.977 -18.853 -20.700  0.00  0.00    -0.089 HD
ATOM     20  H   UNL     1      37.158 -17.822 -21.721  0.00  0.00    -0.089 HD
ENDBRANCH   4  17
BRANCH   2  21
ATOM     21  C   UNL     1      35.309 -22.286 -18.883  0.00  0.00    +0.098 C 
BRANCH  21  22
ATOM     22  C   UNL     1      36.425 -21.994 -17.882  0.00  0.00    +0.048 C 
BRANCH  22  25
ATOM     23  O   UNL     1      38.072 -24.106 -13.734  0.00  0.00    -0.435 OA
ATOM     24  O   UNL     1      35.844 -24.618 -12.972  0.00  0.00    -0.435 OA
ATOM     25  C   UNL     1      36.232 -22.700 -16.563  0.00  0.00    -0.017 C 
ATOM     26  C   UNL     1      37.346 -23.044 -15.809  0.00  0.00    +0.036 C 
ATOM     27  C   UNL     1      34.934 -22.992 -16.134  0.00  0.00    -0.001 C 
ATOM     28  C   UNL     1      37.118 -23.689 -14.610  0.00  0.00    +0.176 C 
ATOM     29  C   UNL     1      35.845 -23.982 -14.175  0.00  0.00    +0.176 C 
ATOM     30  C   UNL     1      34.731 -23.645 -14.916  0.00  0.00    +0.040 C 
ATOM     31  C   UNL     1      37.257 -24.693 -12.699  0.00  0.00    +0.429 C 
ENDBRANCH  22  25
ENDBRANCH  21  22
ENDBRANCH   2  21
TORSDOF 5
ENDMDL
MODEL 4
REMARK VINA RESULT:     -11.4      4.198      6.975
REMARK  Name = 16040279
REMARK  5 active torsions:
REMARK  status: ('A' for Active; 'I' for Inactive)
REMARK    1  A    between atoms: N_2  and  C_21
REMARK    2  A    between atoms: C_3  and  C_11
REMARK    3  A    between atoms: C_4  and  N_17
REMARK    4  A    between atoms: C_21  and  C_22
REMARK    5  A    between atoms: C_22  and  C_25
REMARK                            x       y       z     vdW  Elec       q    Type
REMARK                         _______ _______ _______ _____ _____    ______ ____
ROOT
ATOM      1  O   UNL     1      32.298 -22.161 -19.195  0.00  0.00    -0.275 OA
ATOM      2  N   UNL     1      34.602 -22.102 -18.927  0.00  0.00    -0.281 N 
ATOM      3  C   UNL     1      34.708 -19.830 -20.684  0.00  0.00    +0.015 C 
ATOM      4  C   UNL     1      35.975 -20.680 -20.476  0.00  0.00    -0.041 C 
ATOM      5  C   UNL     1      35.865 -21.394 -19.131  0.00  0.00    +0.072 C 
ATOM      6  C   UNL     1      33.495 -20.764 -20.694  0.00  0.00    +0.088 C 
ATOM      7  C   UNL     1      33.402 -21.714 -19.516  0.00  0.00    +0.226 C 
ENDROOT
BRANCH   3  11
ATOM      8  F   UNL     1      35.270 -17.048 -20.672  0.00  0.00    -0.204 F 
ATOM      9  F   UNL     1      34.201 -19.345 -25.519  0.00  0.00    -0.202 F 
ATOM     10  F   UNL     1      34.758 -16.673 -25.361  0.00  0.00    -0.202 F 
ATOM     11  C   UNL     1      34.722 -18.977 -21.942  0.00  0.00    +0.006 C 
ATOM     12  C   UNL     1      35.006 -17.618 -21.857  0.00  0.00    +0.138 C 
ATOM     13  C   UNL     1      34.449 -19.564 -23.174  0.00  0.00    +0.030 C 
ATOM     14  C   UNL     1      34.462 -18.785 -24.332  0.00  0.00    +0.167 C 
ATOM     15  C   UNL     1      35.018 -16.838 -23.013  0.00  0.00    +0.061 C 
ATOM     16  C   UNL     1      34.746 -17.422 -24.251  0.00  0.00    +0.170 C 
ENDBRANCH   3  11
BRANCH   4  17
ATOM     17  N   UNL     1      37.190 -19.863 -20.467  0.00  0.00    +0.383 N 
ATOM     18  H   UNL     1      36.937 -18.876 -20.530  0.00  0.00    -0.089 HD
ATOM     19  H   UNL     1      37.776 -20.116 -21.264  0.00  0.00    -0.089 HD
ATOM     20  H   UNL     1      37.704 -20.026 -19.601  0.00  0.00    -0.089 HD
ENDBRANCH   4  17
BRANCH   2  21
ATOM     21  C   UNL     1      34.591 -23.085 -17.851  0.00  0.00    +0.098 C 
BRANCH  21  22
ATOM     22  C   UNL     1      35.290 -22.582 -16.590  0.00  0.00    +0.048 C 
BRANCH  22  25
ATOM     23  O   UNL     1      39.493 -24.540 -14.893  0.00  0.00    -0.435 OA
ATOM     24  O   UNL     1      38.370 -26.486 -14.023  0.00  0.00    -0.435 OA
ATOM     25  C   UNL     1      36.090 -23.654 -15.892  0.00  0.00    -0.017 C 
ATOM     26  C   UNL     1      37.463 -23.498 -15.763  0.00  0.00    +0.036 C 
ATOM     27  C   UNL     1      35.426 -24.778 -15.393  0.00  0.00    -0.001 C 
ATOM     28  C   UNL     1      38.151 -24.505 -15.118  0.00  0.00    +0.176 C 
ATOM     29  C   UNL     1      37.510 -25.618 -14.621  0.00  0.00    +0.176 C 
ATOM     30  C   UNL     1      36.146 -25.783 -14.743  0.00  0.00    +0.040 C 
ATOM     31  C   UNL     1      39.624 -25.797 -14.199  0.00  0.00    +0.429 C 
ENDBRANCH  22  25
ENDBRANCH  21  22
ENDBRANCH   2  21
TORSDOF 5
ENDMDL
MODEL 5
REMARK VINA RESULT:     -11.3      1.604      2.763
REMARK  Name = 16040279
REMARK  5 active torsions:
REMARK  status: ('A' for Active; 'I' for Inactive)
REMARK    1  A    between atoms: N_2  and  C_21
REMARK    2  A    between atoms: C_3  and  C_11
REMARK    3  A    between atoms: C_4  and  N_17
REMARK    4  A    between atoms: C_21  and  C_22
REMARK    5  A    between atoms: C_22  and  C_25
REMARK                            x       y       z     vdW  Elec       q    Type
REMARK                         _______ _______ _______ _____ _____    ______ ____
ROOT
ATOM      1  O   UNL     1      34.935 -16.269 -20.549  0.00  0.00    -0.275 OA
ATOM      2  N   UNL     1      34.615 -16.530 -22.833  0.00  0.00    -0.281 N 
ATOM      3  C   UNL     1      33.891 -13.754 -23.008  0.00  0.00    +0.015 C 
ATOM      4  C   UNL     1      33.433 -14.722 -24.113  0.00  0.00    -0.041 C 
ATOM      5  C   UNL     1      34.385 -15.916 -24.139  0.00  0.00    +0.072 C 
ATOM      6  C   UNL     1      33.832 -14.489 -21.666  0.00  0.00    +0.088 C 
ATOM      7  C   UNL     1      34.541 -15.829 -21.632  0.00  0.00    +0.226 C 
ENDROOT
BRANCH   3  11
ATOM      8  F   UNL     1      34.572 -11.417 -24.466  0.00  0.00    -0.204 F 
ATOM      9  F   UNL     1      30.150 -11.143 -21.259  0.00  0.00    -0.202 F 
ATOM     10  F   UNL     1      30.921  -8.964 -22.720  0.00  0.00    -0.202 F 
ATOM     11  C   UNL     1      33.093 -12.463 -22.932  0.00  0.00    +0.006 C 
ATOM     12  C   UNL     1      33.490 -11.357 -23.678  0.00  0.00    +0.138 C 
ATOM     13  C   UNL     1      31.969 -12.395 -22.115  0.00  0.00    +0.030 C 
ATOM     14  C   UNL     1      31.233 -11.212 -22.043  0.00  0.00    +0.167 C 
ATOM     15  C   UNL     1      32.755 -10.172 -23.606  0.00  0.00    +0.061 C 
ATOM     16  C   UNL     1      31.627 -10.101 -22.788  0.00  0.00    +0.170 C 
ENDBRANCH   3  11
BRANCH   4  17
ATOM     17  N   UNL     1      33.446 -14.093 -25.436  0.00  0.00    +0.383 N 
ATOM     18  H   UNL     1      34.317 -13.575 -25.557  0.00  0.00    -0.089 HD
ATOM     19  H   UNL     1      32.655 -13.452 -25.515  0.00  0.00    -0.089 HD
ATOM     20  H   UNL     1      33.375 -14.812 -26.156  0.00  0.00    -0.089 HD
ENDBRANCH   4  17
BRANCH   2  21
ATOM     21  C   UNL     1      35.200 -17.864 -22.852  0.00  0.00    +0.098 C 
BRANCH  21  22
ATOM     22  C   UNL     1      34.145 -18.967 -22.779  0.00  0.00    +0.048 C 
BRANCH  22  25
ATOM     23  O   UNL     1      32.583 -22.063 -19.264  0.00  0.00    -0.435 OA
ATOM     24  O   UNL     1      34.824 -22.510 -18.500  0.00  0.00    -0.435 OA
ATOM     25  C   UNL     1      34.365 -19.917 -21.628  0.00  0.00    -0.017 C 
ATOM     26  C   UNL     1      33.267 -20.519 -21.029  0.00  0.00    +0.036 C 
ATOM     27  C   UNL     1      35.670 -20.166 -21.195  0.00  0.00    -0.001 C 
ATOM     28  C   UNL     1      33.518 -21.380 -19.979  0.00  0.00    +0.176 C 
ATOM     29  C   UNL     1      34.798 -21.635 -19.542  0.00  0.00    +0.176 C 
ATOM     30  C   UNL     1      35.897 -21.042 -20.130  0.00  0.00    +0.040 C 
ATOM     31  C   UNL     1      33.418 -22.776 -18.330  0.00  0.00    +0.429 C 
ENDBRANCH  22  25
ENDBRANCH  21  22
ENDBRANCH   2  21
TORSDOF 5
ENDMDL
MODEL 6
REMARK VINA RESULT:     -11.3      3.479      5.779
REMARK  Name = 16040279
REMARK  5 active torsions:
REMARK  status: ('A' for Active; 'I' for Inactive)
REMARK    1  A    between atoms: N_2  and  C_21
REMARK    2  A    between atoms: C_3  and  C_11
REMARK    3  A    between atoms: C_4  and  N_17
REMARK    4  A    between atoms: C_21  and  C_22
REMARK    5  A    between atoms: C_22  and  C_25
REMARK                            x       y       z     vdW  Elec       q    Type
REMARK                         _______ _______ _______ _____ _____    ______ ____
ROOT
ATOM      1  O   UNL     1      32.832 -21.309 -19.825  0.00  0.00    -0.275 OA
ATOM      2  N   UNL     1      35.149 -21.201 -19.897  0.00  0.00    -0.281 N 
ATOM      3  C   UNL     1      34.949 -18.790 -21.448  0.00  0.00    +0.015 C 
ATOM      4  C   UNL     1      36.248 -19.615 -21.504  0.00  0.00    -0.041 C 
ATOM      5  C   UNL     1      36.354 -20.440 -20.224  0.00  0.00    +0.072 C 
ATOM      6  C   UNL     1      33.765 -19.757 -21.359  0.00  0.00    +0.088 C 
ATOM      7  C   UNL     1      33.867 -20.803 -20.266  0.00  0.00    +0.226 C 
ENDROOT
BRANCH   3  11
ATOM      8  F   UNL     1      34.437 -19.663 -24.100  0.00  0.00    -0.204 F 
ATOM      9  F   UNL     1      34.731 -14.264 -23.276  0.00  0.00    -0.202 F 
ATOM     10  F   UNL     1      34.243 -15.244 -25.781  0.00  0.00    -0.202 F 
ATOM     11  C   UNL     1      34.759 -17.837 -22.617  0.00  0.00    +0.006 C 
ATOM     12  C   UNL     1      34.510 -18.341 -23.891  0.00  0.00    +0.138 C 
ATOM     13  C   UNL     1      34.835 -16.464 -22.405  0.00  0.00    +0.030 C 
ATOM     14  C   UNL     1      34.659 -15.586 -23.476  0.00  0.00    +0.167 C 
ATOM     15  C   UNL     1      34.336 -17.464 -24.962  0.00  0.00    +0.061 C 
ATOM     16  C   UNL     1      34.410 -16.086 -24.753  0.00  0.00    +0.170 C 
ENDBRANCH   3  11
BRANCH   4  17
ATOM     17  N   UNL     1      37.436 -18.764 -21.605  0.00  0.00    +0.383 N 
ATOM     18  H   UNL     1      37.248 -17.864 -21.163  0.00  0.00    -0.089 HD
ATOM     19  H   UNL     1      37.667 -18.619 -22.589  0.00  0.00    -0.089 HD
ATOM     20  H   UNL     1      38.220 -19.217 -21.135  0.00  0.00    -0.089 HD
ENDBRANCH   4  17
BRANCH   2  21
ATOM     21  C   UNL     1      35.317 -22.269 -18.920  0.00  0.00    +0.098 C 
BRANCH  21  22
ATOM     22  C   UNL     1      36.460 -21.995 -17.943  0.00  0.00    +0.048 C 
BRANCH  22  25
ATOM     23  O   UNL     1      33.655 -23.820 -14.313  0.00  0.00    -0.435 OA
ATOM     24  O   UNL     1      35.570 -24.423 -12.980  0.00  0.00    -0.435 OA
ATOM     25  C   UNL     1      36.256 -22.652 -16.600  0.00  0.00    -0.017 C 
ATOM     26  C   UNL     1      34.964 -22.898 -16.156  0.00  0.00    +0.036 C 
ATOM     27  C   UNL     1      37.376 -22.995 -15.837  0.00  0.00    -0.001 C 
ATOM     28  C   UNL     1      34.829 -23.499 -14.921  0.00  0.00    +0.176 C 
ATOM     29  C   UNL     1      35.923 -23.843 -14.159  0.00  0.00    +0.176 C 
ATOM     30  C   UNL     1      37.211 -23.603 -14.590  0.00  0.00    +0.040 C 
ATOM     31  C   UNL     1      34.132 -24.405 -13.084  0.00  0.00    +0.429 C 
ENDBRANCH  22  25
ENDBRANCH  21  22
ENDBRANCH   2  21
TORSDOF 5
ENDMDL
MODEL 7
REMARK VINA RESULT:     -11.3      3.921      6.583
REMARK  Name = 16040279
REMARK  5 active torsions:
REMARK  status: ('A' for Active; 'I' for Inactive)
REMARK    1  A    between atoms: N_2  and  C_21
REMARK    2  A    between atoms: C_3  and  C_11
REMARK    3  A    between atoms: C_4  and  N_17
REMARK    4  A    between atoms: C_21  and  C_22
REMARK    5  A    between atoms: C_22  and  C_25
REMARK                            x       y       z     vdW  Elec       q    Type
REMARK                         _______ _______ _______ _____ _____    ______ ____
ROOT
ATOM      1  O   UNL     1      36.551 -22.265 -18.908  0.00  0.00    -0.275 OA
ATOM      2  N   UNL     1      34.241 -22.254 -19.129  0.00  0.00    -0.281 N 
ATOM      3  C   UNL     1      34.494 -20.344 -21.262  0.00  0.00    +0.015 C 
ATOM      4  C   UNL     1      33.156 -20.459 -20.510  0.00  0.00    -0.041 C 
ATOM      5  C   UNL     1      33.062 -21.854 -19.895  0.00  0.00    +0.072 C 
ATOM      6  C   UNL     1      35.633 -20.542 -20.258  0.00  0.00    +0.088 C 
ATOM      7  C   UNL     1      35.525 -21.786 -19.396  0.00  0.00    +0.226 C 
ENDROOT
BRANCH   3  11
ATOM      8  F   UNL     1      34.819 -20.203 -24.078  0.00  0.00    -0.204 F 
ATOM      9  F   UNL     1      34.891 -15.475 -21.330  0.00  0.00    -0.202 F 
ATOM     10  F   UNL     1      35.193 -15.486 -24.048  0.00  0.00    -0.202 F 
ATOM     11  C   UNL     1      34.683 -19.037 -22.015  0.00  0.00    +0.006 C 
ATOM     12  C   UNL     1      34.836 -19.048 -23.398  0.00  0.00    +0.138 C 
ATOM     13  C   UNL     1      34.701 -17.835 -21.313  0.00  0.00    +0.030 C 
ATOM     14  C   UNL     1      34.874 -16.633 -22.001  0.00  0.00    +0.167 C 
ATOM     15  C   UNL     1      35.009 -17.847 -24.086  0.00  0.00    +0.061 C 
ATOM     16  C   UNL     1      35.027 -16.640 -23.387  0.00  0.00    +0.170 C 
ENDBRANCH   3  11
BRANCH   4  17
ATOM     17  N   UNL     1      32.007 -20.268 -21.398  0.00  0.00    +0.383 N 
ATOM     18  H   UNL     1      31.505 -21.150 -21.500  0.00  0.00    -0.089 HD
ATOM     19  H   UNL     1      32.334 -19.955 -22.314  0.00  0.00    -0.089 HD
ATOM     20  H   UNL     1      31.383 -19.565 -21.002  0.00  0.00    -0.089 HD
ENDBRANCH   4  17
BRANCH   2  21
ATOM     21  C   UNL     1      34.061 -23.388 -18.233  0.00  0.00    +0.098 C 
BRANCH  21  22
ATOM     22  C   UNL     1      33.741 -22.959 -16.802  0.00  0.00    +0.048 C 
BRANCH  22  25
ATOM     23  O   UNL     1      28.830 -22.662 -17.229  0.00  0.00    -0.435 OA
ATOM     24  O   UNL     1      28.463 -24.142 -15.363  0.00  0.00    -0.435 OA
ATOM     25  C   UNL     1      32.331 -23.300 -16.387  0.00  0.00    -0.017 C 
ATOM     26  C   UNL     1      31.267 -22.752 -17.091  0.00  0.00    +0.036 C 
ATOM     27  C   UNL     1      32.132 -24.159 -15.303  0.00  0.00    -0.001 C 
ATOM     28  C   UNL     1      29.996 -23.093 -16.674  0.00  0.00    +0.176 C 
ATOM     29  C   UNL     1      29.786 -23.938 -15.608  0.00  0.00    +0.176 C 
ATOM     30  C   UNL     1      30.835 -24.488 -14.901  0.00  0.00    +0.040 C 
ATOM     31  C   UNL     1      27.864 -23.332 -16.394  0.00  0.00    +0.429 C 
ENDBRANCH  22  25
ENDBRANCH  21  22
ENDBRANCH   2  21
TORSDOF 5
ENDMDL
MODEL 8
REMARK VINA RESULT:     -11.1      1.528      2.715
REMARK  Name = 16040279
REMARK  5 active torsions:
REMARK  status: ('A' for Active; 'I' for Inactive)
REMARK    1  A    between atoms: N_2  and  C_21
REMARK    2  A    between atoms: C_3  and  C_11
REMARK    3  A    between atoms: C_4  and  N_17
REMARK    4  A    between atoms: C_21  and  C_22
REMARK    5  A    between atoms: C_22  and  C_25
REMARK                            x       y       z     vdW  Elec       q    Type
REMARK                         _______ _______ _______ _____ _____    ______ ____
ROOT
ATOM      1  O   UNL     1      33.477 -15.924 -25.984  0.00  0.00    -0.275 OA
ATOM      2  N   UNL     1      34.543 -16.079 -23.928  0.00  0.00    -0.281 N 
ATOM      3  C   UNL     1      32.958 -13.876 -22.984  0.00  0.00    +0.015 C 
ATOM      4  C   UNL     1      34.282 -14.207 -22.274  0.00  0.00    -0.041 C 
ATOM      5  C   UNL     1      34.613 -15.677 -22.525  0.00  0.00    +0.072 C 
ATOM      6  C   UNL     1      33.140 -14.114 -24.486  0.00  0.00    +0.088 C 
ATOM      7  C   UNL     1      33.706 -15.470 -24.860  0.00  0.00    +0.226 C 
ENDROOT
BRANCH   3  11
ATOM      8  F   UNL     1      34.039 -11.584 -24.262  0.00  0.00    -0.204 F 
ATOM      9  F   UNL     1      29.919 -10.762 -20.761  0.00  0.00    -0.202 F 
ATOM     10  F   UNL     1      31.056  -8.643 -22.062  0.00  0.00    -0.202 F 
ATOM     11  C   UNL     1      32.447 -12.465 -22.737  0.00  0.00    +0.006 C 
ATOM     12  C   UNL     1      33.030 -11.390 -23.402  0.00  0.00    +0.138 C 
ATOM     13  C   UNL     1      31.399 -12.259 -21.846  0.00  0.00    +0.030 C 
ATOM     14  C   UNL     1      30.927 -10.965 -21.617  0.00  0.00    +0.167 C 
ATOM     15  C   UNL     1      32.559 -10.096 -23.173  0.00  0.00    +0.061 C 
ATOM     16  C   UNL     1      31.508  -9.885 -22.281  0.00  0.00    +0.170 C 
ENDBRANCH   3  11
BRANCH   4  17
ATOM     17  N   UNL     1      34.200 -13.993 -20.828  0.00  0.00    +0.383 N 
ATOM     18  H   UNL     1      33.731 -14.787 -20.392  0.00  0.00    -0.089 HD
ATOM     19  H   UNL     1      33.670 -13.140 -20.640  0.00  0.00    -0.089 HD
ATOM     20  H   UNL     1      35.140 -13.900 -20.443  0.00  0.00    -0.089 HD
ENDBRANCH   4  17
BRANCH   2  21
ATOM     21  C   UNL     1      35.196 -17.338 -24.262  0.00  0.00    +0.098 C 
BRANCH  21  22
ATOM     22  C   UNL     1      34.433 -18.551 -23.734  0.00  0.00    +0.048 C 
BRANCH  22  25
ATOM     23  O   UNL     1      34.469 -21.574 -19.830  0.00  0.00    -0.435 OA
ATOM     24  O   UNL     1      36.680 -20.881 -19.168  0.00  0.00    -0.435 OA
ATOM     25  C   UNL     1      35.069 -19.159 -22.509  0.00  0.00    -0.017 C 
ATOM     26  C   UNL     1      34.366 -20.110 -21.782  0.00  0.00    +0.036 C 
ATOM     27  C   UNL     1      36.351 -18.747 -22.136  0.00  0.00    -0.001 C 
ATOM     28  C   UNL     1      34.989 -20.637 -20.669  0.00  0.00    +0.176 C 
ATOM     29  C   UNL     1      36.252 -20.241 -20.290  0.00  0.00    +0.176 C 
ATOM     30  C   UNL     1      36.960 -19.297 -21.004  0.00  0.00    +0.040 C 
ATOM     31  C   UNL     1      35.545 -21.724 -18.882  0.00  0.00    +0.429 C 
ENDBRANCH  22  25
ENDBRANCH  21  22
ENDBRANCH   2  21
TORSDOF 5
ENDMDL
MODEL 9
REMARK VINA RESULT:     -11.1      3.421      6.029
REMARK  Name = 16040279
REMARK  5 active torsions:
REMARK  status: ('A' for Active; 'I' for Inactive)
REMARK    1  A    between atoms: N_2  and  C_21
REMARK    2  A    between atoms: C_3  and  C_11
REMARK    3  A    between atoms: C_4  and  N_17
REMARK    4  A    between atoms: C_21  and  C_22
REMARK    5  A    between atoms: C_22  and  C_25
REMARK                            x       y       z     vdW  Elec       q    Type
REMARK                         _______ _______ _______ _____ _____    ______ ____
ROOT
ATOM      1  O   UNL     1      32.394 -21.662 -19.770  0.00  0.00    -0.275 OA
ATOM      2  N   UNL     1      34.712 -21.712 -19.664  0.00  0.00    -0.281 N 
ATOM      3  C   UNL     1      34.791 -19.226 -21.103  0.00  0.00    +0.015 C 
ATOM      4  C   UNL     1      36.033 -20.136 -21.104  0.00  0.00    -0.041 C 
ATOM      5  C   UNL     1      35.985 -21.023 -19.863  0.00  0.00    +0.072 C 
ATOM      6  C   UNL     1      33.543 -20.111 -21.151  0.00  0.00    +0.088 C 
ATOM      7  C   UNL     1      33.491 -21.210 -20.108  0.00  0.00    +0.226 C 
ENDROOT
BRANCH   3  11
ATOM      8  F   UNL     1      34.635 -19.951 -23.843  0.00  0.00    -0.204 F 
ATOM      9  F   UNL     1      34.807 -14.606 -22.695  0.00  0.00    -0.202 F 
ATOM     10  F   UNL     1      34.656 -15.447 -25.292  0.00  0.00    -0.202 F 
ATOM     11  C   UNL     1      34.755 -18.210 -22.234  0.00  0.00    +0.006 C 
ATOM     12  C   UNL     1      34.678 -18.643 -23.554  0.00  0.00    +0.138 C 
ATOM     13  C   UNL     1      34.799 -16.851 -21.939  0.00  0.00    +0.030 C 
ATOM     14  C   UNL     1      34.765 -15.915 -22.974  0.00  0.00    +0.167 C 
ATOM     15  C   UNL     1      34.645 -17.708 -24.589  0.00  0.00    +0.061 C 
ATOM     16  C   UNL     1      34.688 -16.344 -24.299  0.00  0.00    +0.170 C 
ENDBRANCH   3  11
BRANCH   4  17
ATOM     17  N   UNL     1      37.279 -19.366 -21.074  0.00  0.00    +0.383 N 
ATOM     18  H   UNL     1      37.090 -18.427 -20.723  0.00  0.00    -0.089 HD
ATOM     19  H   UNL     1      37.664 -19.305 -22.017  0.00  0.00    -0.089 HD
ATOM     20  H   UNL     1      37.951 -19.829 -20.461  0.00  0.00    -0.089 HD
ENDBRANCH   4  17
BRANCH   2  21
ATOM     21  C   UNL     1      34.733 -22.833 -18.733  0.00  0.00    +0.098 C 
BRANCH  21  22
ATOM     22  C   UNL     1      35.250 -22.436 -17.351  0.00  0.00    +0.048 C 
BRANCH  22  25
ATOM     23  O   UNL     1      31.192 -24.360 -15.298  0.00  0.00    -0.435 OA
ATOM     24  O   UNL     1      32.347 -24.914 -13.258  0.00  0.00    -0.435 OA
ATOM     25  C   UNL     1      34.498 -23.105 -16.227  0.00  0.00    -0.017 C 
ATOM     26  C   UNL     1      33.149 -23.390 -16.390  0.00  0.00    +0.036 C 
ATOM     27  C   UNL     1      35.180 -23.420 -15.049  0.00  0.00    -0.001 C 
ATOM     28  C   UNL     1      32.504 -24.002 -15.335  0.00  0.00    +0.176 C 
ATOM     29  C   UNL     1      33.164 -24.318 -14.168  0.00  0.00    +0.176 C 
ATOM     30  C   UNL     1      34.504 -24.040 -13.995  0.00  0.00    +0.040 C 
ATOM     31  C   UNL     1      31.100 -24.938 -13.980  0.00  0.00    +0.429 C 
ENDBRANCH  22  25
ENDBRANCH  21  22
ENDBRANCH   2  21
TORSDOF 5
ENDMDL
