MODEL 1
REMARK VINA RESULT:     -11.8      0.000      0.000
REMARK  Name = 11740318
REMARK  5 active torsions:
REMARK  status: ('A' for Active; 'I' for Inactive)
REMARK    1  A    between atoms: N_1  and  C_20
REMARK    2  A    between atoms: C_2  and  O_8
REMARK    3  A    between atoms: O_8  and  C_9
REMARK    4  A    between atoms: C_14  and  N_15
REMARK    5  A    between atoms: C_20  and  C_23
REMARK                            x       y       z     vdW  Elec       q    Type
REMARK                         _______ _______ _______ _____ _____    ______ ____
ROOT
ATOM      1  N   UNL     1      33.471 -23.938 -14.754  0.00  0.00    +0.392 N 
ATOM      2  C   UNL     1      33.393 -23.120 -17.090  0.00  0.00    +0.145 C 
ATOM      3  C   UNL     1      33.958 -24.164 -16.121  0.00  0.00    -0.032 C 
ATOM      4  C   UNL     1      31.868 -23.098 -17.048  0.00  0.00    +0.039 C 
ATOM      5  C   UNL     1      31.376 -22.941 -15.616  0.00  0.00    -0.019 C 
ATOM      6  C   UNL     1      32.004 -23.991 -14.696  0.00  0.00    -0.077 C 
ATOM      7  H   UNL     1      33.763 -23.004 -14.468  0.00  0.00    -0.079 HD
ENDROOT
BRANCH   2   8
ATOM      8  O   UNL     1      33.806 -23.424 -18.418  0.00  0.00    -0.481 OA
BRANCH   8   9
ATOM      9  C   UNL     1      34.025 -22.362 -19.253  0.00  0.00    +0.138 C 
ATOM     10  C   UNL     1      35.327 -22.000 -19.580  0.00  0.00    +0.038 C 
ATOM     11  C   UNL     1      32.944 -21.655 -19.768  0.00  0.00    +0.038 C 
ATOM     12  C   UNL     1      35.551 -20.916 -20.431  0.00  0.00    +0.018 C 
ATOM     13  C   UNL     1      33.167 -20.573 -20.619  0.00  0.00    +0.018 C 
ATOM     14  C   UNL     1      34.471 -20.204 -20.951  0.00  0.00    +0.057 C 
BRANCH  14  15
ATOM     15  N   UNL     1      34.692 -19.131 -21.795  0.00  0.00    -0.246 N 
ATOM     16  N   UNL     1      34.719 -17.910 -23.660  0.00  0.00    -0.224 NA
ATOM     17  C   UNL     1      35.253 -17.926 -21.457  0.00  0.00    +0.092 C 
ATOM     18  C   UNL     1      34.389 -19.068 -23.133  0.00  0.00    +0.172 C 
ATOM     19  C   UNL     1      35.258 -17.194 -22.621  0.00  0.00    +0.117 C 
ENDBRANCH  14  15
ENDBRANCH   8   9
ENDBRANCH   2   8
BRANCH   1  20
ATOM     20  C   UNL     1      34.056 -24.914 -13.835  0.00  0.00    -0.050 C 
BRANCH  20  23
ATOM     21  O   UNL     1      38.567 -26.608 -14.909  0.00  0.00    -0.435 OA
ATOM     22  O   UNL     1      39.650 -24.742 -13.836  0.00  0.00    -0.435 OA
ATOM     23  C   UNL     1      35.559 -24.836 -13.816  0.00  0.00    -0.040 C 
ATOM     24  C   UNL     1      36.300 -25.844 -14.422  0.00  0.00    +0.034 C 
ATOM     25  C   UNL     1      36.178 -23.747 -13.190  0.00  0.00    -0.003 C 
ATOM     26  C   UNL     1      37.674 -25.728 -14.379  0.00  0.00    +0.176 C 
ATOM     27  C   UNL     1      37.571 -23.654 -13.161  0.00  0.00    +0.040 C 
ATOM     28  C   UNL     1      38.293 -24.663 -13.766  0.00  0.00    +0.176 C 
ATOM     29  C   UNL     1      39.817 -25.976 -14.562  0.00  0.00    +0.429 C 
ENDBRANCH  20  23
ENDBRANCH   1  20
TORSDOF 5
ENDMDL
MODEL 2
REMARK VINA RESULT:     -11.5      4.471      8.670
REMARK  Name = 11740318
REMARK  5 active torsions:
REMARK  status: ('A' for Active; 'I' for Inactive)
REMARK    1  A    between atoms: N_1  and  C_20
REMARK    2  A    between atoms: C_2  and  O_8
REMARK    3  A    between atoms: O_8  and  C_9
REMARK    4  A    between atoms: C_14  and  N_15
REMARK    5  A    between atoms: C_20  and  C_23
REMARK                            x       y       z     vdW  Elec       q    Type
REMARK                         _______ _______ _______ _____ _____    ______ ____
ROOT
ATOM      1  N   UNL     1      34.859 -19.099 -22.438  0.00  0.00    +0.392 N 
ATOM      2  C   UNL     1      34.598 -16.867 -23.475  0.00  0.00    +0.145 C 
ATOM      3  C   UNL     1      35.376 -17.726 -22.474  0.00  0.00    -0.032 C 
ATOM      4  C   UNL     1      34.612 -17.494 -24.866  0.00  0.00    +0.039 C 
ATOM      5  C   UNL     1      34.148 -18.942 -24.803  0.00  0.00    -0.019 C 
ATOM      6  C   UNL     1      34.941 -19.734 -23.760  0.00  0.00    -0.077 C 
ATOM      7  H   UNL     1      33.876 -19.057 -22.170  0.00  0.00    -0.079 HD
ENDROOT
BRANCH   2   8
ATOM      8  O   UNL     1      35.185 -15.572 -23.556  0.00  0.00    -0.481 OA
BRANCH   8   9
ATOM      9  C   UNL     1      34.390 -14.513 -23.208  0.00  0.00    +0.138 C 
ATOM     10  C   UNL     1      34.170 -13.488 -24.122  0.00  0.00    +0.038 C 
ATOM     11  C   UNL     1      33.810 -14.472 -21.945  0.00  0.00    +0.038 C 
ATOM     12  C   UNL     1      33.359 -12.408 -23.768  0.00  0.00    +0.018 C 
ATOM     13  C   UNL     1      33.000 -13.393 -21.591  0.00  0.00    +0.018 C 
ATOM     14  C   UNL     1      32.775 -12.361 -22.503  0.00  0.00    +0.057 C 
BRANCH  14  15
ATOM     15  N   UNL     1      31.971 -11.292 -22.152  0.00  0.00    -0.246 N 
ATOM     16  N   UNL     1      30.433 -10.103 -21.061  0.00  0.00    -0.224 NA
ATOM     17  C   UNL     1      31.961 -10.050 -22.734  0.00  0.00    +0.092 C 
ATOM     18  C   UNL     1      31.032 -11.269 -21.150  0.00  0.00    +0.172 C 
ATOM     19  C   UNL     1      31.007  -9.338 -22.046  0.00  0.00    +0.117 C 
ENDBRANCH  14  15
ENDBRANCH   8   9
ENDBRANCH   2   8
BRANCH   1  20
ATOM     20  C   UNL     1      35.582 -19.892 -21.443  0.00  0.00    -0.050 C 
BRANCH  20  23
ATOM     21  O   UNL     1      34.584 -23.233 -17.948  0.00  0.00    -0.435 OA
ATOM     22  O   UNL     1      32.208 -22.859 -18.106  0.00  0.00    -0.435 OA
ATOM     23  C   UNL     1      34.645 -20.673 -20.560  0.00  0.00    -0.040 C 
ATOM     24  C   UNL     1      35.168 -21.599 -19.665  0.00  0.00    +0.034 C 
ATOM     25  C   UNL     1      33.267 -20.448 -20.660  0.00  0.00    -0.003 C 
ATOM     26  C   UNL     1      34.270 -22.290 -18.877  0.00  0.00    +0.176 C 
ATOM     27  C   UNL     1      32.380 -21.161 -19.851  0.00  0.00    +0.040 C 
ATOM     28  C   UNL     1      32.914 -22.077 -18.968  0.00  0.00    +0.176 C 
ATOM     29  C   UNL     1      33.273 -23.588 -17.462  0.00  0.00    +0.429 C 
ENDBRANCH  20  23
ENDBRANCH   1  20
TORSDOF 5
ENDMDL
MODEL 3
REMARK VINA RESULT:     -10.8      8.807     14.443
REMARK  Name = 11740318
REMARK  5 active torsions:
REMARK  status: ('A' for Active; 'I' for Inactive)
REMARK    1  A    between atoms: N_1  and  C_20
REMARK    2  A    between atoms: C_2  and  O_8
REMARK    3  A    between atoms: O_8  and  C_9
REMARK    4  A    between atoms: C_14  and  N_15
REMARK    5  A    between atoms: C_20  and  C_23
REMARK                            x       y       z     vdW  Elec       q    Type
REMARK                         _______ _______ _______ _____ _____    ______ ____
ROOT
ATOM      1  N   UNL     1      33.992  -9.135 -24.802  0.00  0.00    +0.392 N 
ATOM      2  C   UNL     1      34.193 -11.516 -25.449  0.00  0.00    +0.145 C 
ATOM      3  C   UNL     1      33.256 -10.390 -25.002  0.00  0.00    -0.032 C 
ATOM      4  C   UNL     1      34.962 -11.125 -26.707  0.00  0.00    +0.039 C 
ATOM      5  C   UNL     1      35.657  -9.784 -26.514  0.00  0.00    -0.019 C 
ATOM      6  C   UNL     1      34.673  -8.715 -26.034  0.00  0.00    -0.077 C 
ATOM      7  H   UNL     1      34.704  -9.298 -24.090  0.00  0.00    -0.079 HD
ENDROOT
BRANCH   2   8
ATOM      8  O   UNL     1      33.437 -12.689 -25.726  0.00  0.00    -0.481 OA
BRANCH   8   9
ATOM      9  C   UNL     1      33.768 -13.816 -25.023  0.00  0.00    +0.138 C 
ATOM     10  C   UNL     1      34.156 -13.709 -23.692  0.00  0.00    +0.038 C 
ATOM     11  C   UNL     1      33.712 -15.059 -25.646  0.00  0.00    +0.038 C 
ATOM     12  C   UNL     1      34.494 -14.858 -22.975  0.00  0.00    +0.018 C 
ATOM     13  C   UNL     1      34.049 -16.207 -24.930  0.00  0.00    +0.018 C 
ATOM     14  C   UNL     1      34.439 -16.106 -23.594  0.00  0.00    +0.057 C 
BRANCH  14  15
ATOM     15  N   UNL     1      34.773 -17.245 -22.884  0.00  0.00    -0.246 N 
ATOM     16  N   UNL     1      35.418 -18.534 -21.183  0.00  0.00    -0.224 NA
ATOM     17  C   UNL     1      34.761 -18.534 -23.352  0.00  0.00    +0.092 C 
ATOM     18  C   UNL     1      35.176 -17.302 -21.573  0.00  0.00    +0.172 C 
ATOM     19  C   UNL     1      35.161 -19.307 -22.288  0.00  0.00    +0.117 C 
ENDBRANCH  14  15
ENDBRANCH   8   9
ENDBRANCH   2   8
BRANCH   1  20
ATOM     20  C   UNL     1      33.091  -8.083 -24.330  0.00  0.00    -0.050 C 
BRANCH  20  23
ATOM     21  O   UNL     1      30.702 -10.474 -20.731  0.00  0.00    -0.435 OA
ATOM     22  O   UNL     1      31.516  -8.971 -19.034  0.00  0.00    -0.435 OA
ATOM     23  C   UNL     1      32.687  -8.292 -22.895  0.00  0.00    -0.040 C 
ATOM     24  C   UNL     1      31.850  -9.354 -22.572  0.00  0.00    +0.034 C 
ATOM     25  C   UNL     1      33.166  -7.413 -21.916  0.00  0.00    -0.003 C 
ATOM     26  C   UNL     1      31.508  -9.505 -21.244  0.00  0.00    +0.176 C 
ATOM     27  C   UNL     1      32.805  -7.589 -20.579  0.00  0.00    +0.040 C 
ATOM     28  C   UNL     1      31.973  -8.646 -20.274  0.00  0.00    +0.176 C 
ATOM     29  C   UNL     1      30.713 -10.131 -19.331  0.00  0.00    +0.429 C 
ENDBRANCH  20  23
ENDBRANCH   1  20
TORSDOF 5
ENDMDL
MODEL 4
REMARK VINA RESULT:     -10.6      3.644      7.229
REMARK  Name = 11740318
REMARK  5 active torsions:
REMARK  status: ('A' for Active; 'I' for Inactive)
REMARK    1  A    between atoms: N_1  and  C_20
REMARK    2  A    between atoms: C_2  and  O_8
REMARK    3  A    between atoms: O_8  and  C_9
REMARK    4  A    between atoms: C_14  and  N_15
REMARK    5  A    between atoms: C_20  and  C_23
REMARK                            x       y       z     vdW  Elec       q    Type
REMARK                         _______ _______ _______ _____ _____    ______ ____
ROOT
ATOM      1  N   UNL     1      36.259 -23.138 -14.352  0.00  0.00    +0.392 N 
ATOM      2  C   UNL     1      34.284 -23.859 -13.045  0.00  0.00    +0.145 C 
ATOM      3  C   UNL     1      35.085 -24.020 -14.341  0.00  0.00    -0.032 C 
ATOM      4  C   UNL     1      35.163 -24.102 -11.821  0.00  0.00    +0.039 C 
ATOM      5  C   UNL     1      36.415 -23.238 -11.884  0.00  0.00    -0.019 C 
ATOM      6  C   UNL     1      37.147 -23.420 -13.216  0.00  0.00    -0.077 C 
ATOM      7  H   UNL     1      35.930 -22.177 -14.263  0.00  0.00    -0.079 HD
ENDROOT
BRANCH   2   8
ATOM      8  O   UNL     1      33.211 -24.794 -13.024  0.00  0.00    -0.481 OA
BRANCH   8   9
ATOM      9  C   UNL     1      32.110 -24.485 -13.777  0.00  0.00    +0.138 C 
ATOM     10  C   UNL     1      31.112 -25.435 -13.961  0.00  0.00    +0.038 C 
ATOM     11  C   UNL     1      31.999 -23.222 -14.349  0.00  0.00    +0.038 C 
ATOM     12  C   UNL     1      29.989 -25.120 -14.728  0.00  0.00    +0.018 C 
ATOM     13  C   UNL     1      30.877 -22.907 -15.116  0.00  0.00    +0.018 C 
ATOM     14  C   UNL     1      29.872 -23.856 -15.304  0.00  0.00    +0.057 C 
BRANCH  14  15
ATOM     15  N   UNL     1      28.759 -23.542 -16.064  0.00  0.00    -0.246 N 
ATOM     16  N   UNL     1      27.194 -23.701 -17.643  0.00  0.00    -0.224 NA
ATOM     17  C   UNL     1      27.930 -22.463 -15.893  0.00  0.00    +0.092 C 
ATOM     18  C   UNL     1      28.270 -24.255 -17.130  0.00  0.00    +0.172 C 
ATOM     19  C   UNL     1      26.977 -22.584 -16.876  0.00  0.00    +0.117 C 
ENDBRANCH  14  15
ENDBRANCH   8   9
ENDBRANCH   2   8
BRANCH   1  20
ATOM     20  C   UNL     1      36.986 -23.269 -15.615  0.00  0.00    -0.050 C 
BRANCH  20  23
ATOM     21  O   UNL     1      36.347 -20.755 -19.816  0.00  0.00    -0.435 OA
ATOM     22  O   UNL     1      34.046 -21.445 -20.014  0.00  0.00    -0.435 OA
ATOM     23  C   UNL     1      36.166 -22.797 -16.786  0.00  0.00    -0.040 C 
ATOM     24  C   UNL     1      36.751 -21.970 -17.737  0.00  0.00    +0.034 C 
ATOM     25  C   UNL     1      34.830 -23.204 -16.891  0.00  0.00    -0.003 C 
ATOM     26  C   UNL     1      35.960 -21.563 -18.791  0.00  0.00    +0.176 C 
ATOM     27  C   UNL     1      34.051 -22.778 -17.969  0.00  0.00    +0.040 C 
ATOM     28  C   UNL     1      34.646 -21.957 -18.904  0.00  0.00    +0.176 C 
ATOM     29  C   UNL     1      35.130 -20.686 -20.587  0.00  0.00    +0.429 C 
ENDBRANCH  20  23
ENDBRANCH   1  20
TORSDOF 5
ENDMDL
MODEL 5
REMARK VINA RESULT:     -10.5      3.247     10.206
REMARK  Name = 11740318
REMARK  5 active torsions:
REMARK  status: ('A' for Active; 'I' for Inactive)
REMARK    1  A    between atoms: N_1  and  C_20
REMARK    2  A    between atoms: C_2  and  O_8
REMARK    3  A    between atoms: O_8  and  C_9
REMARK    4  A    between atoms: C_14  and  N_15
REMARK    5  A    between atoms: C_20  and  C_23
REMARK                            x       y       z     vdW  Elec       q    Type
REMARK                         _______ _______ _______ _____ _____    ______ ____
ROOT
ATOM      1  N   UNL     1      35.039 -20.078 -21.506  0.00  0.00    +0.392 N 
ATOM      2  C   UNL     1      34.766 -21.913 -19.867  0.00  0.00    +0.145 C 
ATOM      3  C   UNL     1      35.641 -20.752 -20.349  0.00  0.00    -0.032 C 
ATOM      4  C   UNL     1      33.349 -21.441 -19.551  0.00  0.00    +0.039 C 
ATOM      5  C   UNL     1      32.766 -20.676 -20.731  0.00  0.00    -0.019 C 
ATOM      6  C   UNL     1      33.704 -19.555 -21.184  0.00  0.00    -0.077 C 
ATOM      7  H   UNL     1      34.935 -20.767 -22.251  0.00  0.00    -0.079 HD
ENDROOT
BRANCH   2   8
ATOM      8  O   UNL     1      35.327 -22.481 -18.689  0.00  0.00    -0.481 OA
BRANCH   8   9
ATOM      9  C   UNL     1      34.448 -22.862 -17.710  0.00  0.00    +0.138 C 
ATOM     10  C   UNL     1      33.158 -23.251 -18.055  0.00  0.00    +0.038 C 
ATOM     11  C   UNL     1      34.854 -22.858 -16.380  0.00  0.00    +0.038 C 
ATOM     12  C   UNL     1      32.263 -23.640 -17.057  0.00  0.00    +0.018 C 
ATOM     13  C   UNL     1      33.959 -23.246 -15.383  0.00  0.00    +0.018 C 
ATOM     14  C   UNL     1      32.664 -23.637 -15.722  0.00  0.00    +0.057 C 
BRANCH  14  15
ATOM     15  N   UNL     1      31.777 -24.023 -14.733  0.00  0.00    -0.246 N 
ATOM     16  N   UNL     1      30.651 -23.997 -12.809  0.00  0.00    -0.224 NA
ATOM     17  C   UNL     1      30.942 -25.111 -14.762  0.00  0.00    +0.092 C 
ATOM     18  C   UNL     1      31.561 -23.387 -13.535  0.00  0.00    +0.172 C 
ATOM     19  C   UNL     1      30.261 -25.073 -13.568  0.00  0.00    +0.117 C 
ENDBRANCH  14  15
ENDBRANCH   8   9
ENDBRANCH   2   8
BRANCH   1  20
ATOM     20  C   UNL     1      35.909 -19.003 -21.982  0.00  0.00    -0.050 C 
BRANCH  20  23
ATOM     21  O   UNL     1      34.443 -14.678 -23.860  0.00  0.00    -0.435 OA
ATOM     22  O   UNL     1      33.421 -15.725 -25.775  0.00  0.00    -0.435 OA
ATOM     23  C   UNL     1      35.231 -18.151 -23.022  0.00  0.00    -0.040 C 
ATOM     24  C   UNL     1      35.207 -16.770 -22.861  0.00  0.00    +0.034 C 
ATOM     25  C   UNL     1      34.640 -18.769 -24.131  0.00  0.00    -0.003 C 
ATOM     26  C   UNL     1      34.574 -16.033 -23.840  0.00  0.00    +0.176 C 
ATOM     27  C   UNL     1      34.006 -17.999 -25.108  0.00  0.00    +0.040 C 
ATOM     28  C   UNL     1      33.990 -16.631 -24.933  0.00  0.00    +0.176 C 
ATOM     29  C   UNL     1      33.713 -14.490 -25.090  0.00  0.00    +0.429 C 
ENDBRANCH  20  23
ENDBRANCH   1  20
TORSDOF 5
ENDMDL
MODEL 6
REMARK VINA RESULT:     -10.4      3.625     10.603
REMARK  Name = 11740318
REMARK  5 active torsions:
REMARK  status: ('A' for Active; 'I' for Inactive)
REMARK    1  A    between atoms: N_1  and  C_20
REMARK    2  A    between atoms: C_2  and  O_8
REMARK    3  A    between atoms: O_8  and  C_9
REMARK    4  A    between atoms: C_14  and  N_15
REMARK    5  A    between atoms: C_20  and  C_23
REMARK                            x       y       z     vdW  Elec       q    Type
REMARK                         _______ _______ _______ _____ _____    ______ ____
ROOT
ATOM      1  N   UNL     1      35.263 -19.046 -22.099  0.00  0.00    +0.392 N 
ATOM      2  C   UNL     1      35.355 -20.778 -20.332  0.00  0.00    +0.145 C 
ATOM      3  C   UNL     1      34.954 -20.444 -21.773  0.00  0.00    -0.032 C 
ATOM      4  C   UNL     1      36.828 -20.471 -20.085  0.00  0.00    +0.039 C 
ATOM      5  C   UNL     1      37.153 -19.042 -20.501  0.00  0.00    -0.019 C 
ATOM      6  C   UNL     1      36.696 -18.765 -21.935  0.00  0.00    -0.077 C 
ATOM      7  H   UNL     1      34.750 -18.452 -21.448  0.00  0.00    -0.079 HD
ENDROOT
BRANCH   2   8
ATOM      8  O   UNL     1      35.132 -22.161 -20.080  0.00  0.00    -0.481 OA
BRANCH   8   9
ATOM      9  C   UNL     1      34.495 -22.479 -18.911  0.00  0.00    +0.138 C 
ATOM     10  C   UNL     1      33.110 -22.604 -18.892  0.00  0.00    +0.038 C 
ATOM     11  C   UNL     1      35.239 -22.676 -17.752  0.00  0.00    +0.038 C 
ATOM     12  C   UNL     1      32.460 -22.928 -17.700  0.00  0.00    +0.018 C 
ATOM     13  C   UNL     1      34.590 -23.000 -16.561  0.00  0.00    +0.018 C 
ATOM     14  C   UNL     1      33.201 -23.126 -16.535  0.00  0.00    +0.057 C 
BRANCH  14  15
ATOM     15  N   UNL     1      32.558 -23.448 -15.353  0.00  0.00    -0.246 N 
ATOM     16  N   UNL     1      32.183 -24.387 -13.367  0.00  0.00    -0.224 NA
ATOM     17  C   UNL     1      31.333 -22.991 -14.938  0.00  0.00    +0.092 C 
ATOM     18  C   UNL     1      33.025 -24.285 -14.370  0.00  0.00    +0.172 C 
ATOM     19  C   UNL     1      31.126 -23.582 -13.714  0.00  0.00    +0.117 C 
ENDBRANCH  14  15
ENDBRANCH   8   9
ENDBRANCH   2   8
BRANCH   1  20
ATOM     20  C   UNL     1      34.832 -18.731 -23.461  0.00  0.00    -0.050 C 
BRANCH  20  23
ATOM     21  O   UNL     1      33.555 -14.778 -26.129  0.00  0.00    -0.435 OA
ATOM     22  O   UNL     1      33.827 -13.284 -24.259  0.00  0.00    -0.435 OA
ATOM     23  C   UNL     1      34.570 -17.260 -23.640  0.00  0.00    -0.040 C 
ATOM     24  C   UNL     1      34.173 -16.786 -24.885  0.00  0.00    +0.034 C 
ATOM     25  C   UNL     1      34.732 -16.400 -22.547  0.00  0.00    -0.003 C 
ATOM     26  C   UNL     1      33.945 -15.430 -25.000  0.00  0.00    +0.176 C 
ATOM     27  C   UNL     1      34.493 -15.031 -22.690  0.00  0.00    +0.040 C 
ATOM     28  C   UNL     1      34.101 -14.576 -23.932  0.00  0.00    +0.176 C 
ATOM     29  C   UNL     1      33.481 -13.419 -25.652  0.00  0.00    +0.429 C 
ENDBRANCH  20  23
ENDBRANCH   1  20
TORSDOF 5
ENDMDL
MODEL 7
REMARK VINA RESULT:     -10.3      3.860     10.842
REMARK  Name = 11740318
REMARK  5 active torsions:
REMARK  status: ('A' for Active; 'I' for Inactive)
REMARK    1  A    between atoms: N_1  and  C_20
REMARK    2  A    between atoms: C_2  and  O_8
REMARK    3  A    between atoms: O_8  and  C_9
REMARK    4  A    between atoms: C_14  and  N_15
REMARK    5  A    between atoms: C_20  and  C_23
REMARK                            x       y       z     vdW  Elec       q    Type
REMARK                         _______ _______ _______ _____ _____    ______ ____
ROOT
ATOM      1  N   UNL     1      35.119 -18.718 -22.387  0.00  0.00    +0.392 N 
ATOM      2  C   UNL     1      35.118 -20.448 -20.616  0.00  0.00    +0.145 C 
ATOM      3  C   UNL     1      34.657 -20.064 -22.026  0.00  0.00    -0.032 C 
ATOM      4  C   UNL     1      36.634 -20.336 -20.484  0.00  0.00    +0.039 C 
ATOM      5  C   UNL     1      37.109 -18.962 -20.936  0.00  0.00    -0.019 C 
ATOM      6  C   UNL     1      36.585 -18.627 -22.334  0.00  0.00    -0.077 C 
ATOM      7  H   UNL     1      34.739 -18.062 -21.705  0.00  0.00    -0.079 HD
ENDROOT
BRANCH   2   8
ATOM      8  O   UNL     1      34.737 -21.790 -20.335  0.00  0.00    -0.481 OA
BRANCH   8   9
ATOM      9  C   UNL     1      34.819 -22.193 -19.029  0.00  0.00    +0.138 C 
ATOM     10  C   UNL     1      33.719 -22.788 -18.421  0.00  0.00    +0.038 C 
ATOM     11  C   UNL     1      36.002 -22.004 -18.323  0.00  0.00    +0.038 C 
ATOM     12  C   UNL     1      33.803 -23.199 -17.089  0.00  0.00    +0.018 C 
ATOM     13  C   UNL     1      36.086 -22.415 -16.992  0.00  0.00    +0.018 C 
ATOM     14  C   UNL     1      34.986 -23.012 -16.376  0.00  0.00    +0.057 C 
BRANCH  14  15
ATOM     15  N   UNL     1      35.070 -23.420 -15.057  0.00  0.00    -0.246 N 
ATOM     16  N   UNL     1      35.859 -23.642 -12.984  0.00  0.00    -0.224 NA
ATOM     17  C   UNL     1      34.174 -24.214 -14.388  0.00  0.00    +0.092 C 
ATOM     18  C   UNL     1      36.064 -23.104 -14.165  0.00  0.00    +0.172 C 
ATOM     19  C   UNL     1      34.682 -24.335 -13.116  0.00  0.00    +0.117 C 
ENDBRANCH  14  15
ENDBRANCH   8   9
ENDBRANCH   2   8
BRANCH   1  20
ATOM     20  C   UNL     1      34.631 -18.349 -23.716  0.00  0.00    -0.050 C 
BRANCH  20  23
ATOM     21  O   UNL     1      33.450 -14.268 -26.233  0.00  0.00    -0.435 OA
ATOM     22  O   UNL     1      33.847 -12.842 -24.332  0.00  0.00    -0.435 OA
ATOM     23  C   UNL     1      34.430 -16.862 -23.846  0.00  0.00    -0.040 C 
ATOM     24  C   UNL     1      34.016 -16.336 -25.065  0.00  0.00    +0.034 C 
ATOM     25  C   UNL     1      34.664 -16.042 -22.736  0.00  0.00    -0.003 C 
ATOM     26  C   UNL     1      33.845 -14.969 -25.134  0.00  0.00    +0.176 C 
ATOM     27  C   UNL     1      34.483 -14.661 -22.833  0.00  0.00    +0.040 C 
ATOM     28  C   UNL     1      34.073 -14.154 -24.049  0.00  0.00    +0.176 C 
ATOM     29  C   UNL     1      33.452 -12.922 -25.716  0.00  0.00    +0.429 C 
ENDBRANCH  20  23
ENDBRANCH   1  20
TORSDOF 5
ENDMDL
MODEL 8
REMARK VINA RESULT:     -10.3      3.077      5.405
REMARK  Name = 11740318
REMARK  5 active torsions:
REMARK  status: ('A' for Active; 'I' for Inactive)
REMARK    1  A    between atoms: N_1  and  C_20
REMARK    2  A    between atoms: C_2  and  O_8
REMARK    3  A    between atoms: O_8  and  C_9
REMARK    4  A    between atoms: C_14  and  N_15
REMARK    5  A    between atoms: C_20  and  C_23
REMARK                            x       y       z     vdW  Elec       q    Type
REMARK                         _______ _______ _______ _____ _____    ______ ____
ROOT
ATOM      1  N   UNL     1      35.434 -21.051 -19.475  0.00  0.00    +0.392 N 
ATOM      2  C   UNL     1      34.911 -19.530 -21.358  0.00  0.00    +0.145 C 
ATOM      3  C   UNL     1      35.906 -20.532 -20.765  0.00  0.00    -0.032 C 
ATOM      4  C   UNL     1      33.522 -20.146 -21.492  0.00  0.00    +0.039 C 
ATOM      5  C   UNL     1      33.076 -20.750 -20.167  0.00  0.00    -0.019 C 
ATOM      6  C   UNL     1      34.129 -21.713 -19.614  0.00  0.00    -0.077 C 
ATOM      7  H   UNL     1      35.318 -20.259 -18.843  0.00  0.00    -0.079 HD
ENDROOT
BRANCH   2   8
ATOM      8  O   UNL     1      35.351 -19.121 -22.648  0.00  0.00    -0.481 OA
BRANCH   8   9
ATOM      9  C   UNL     1      35.027 -17.848 -23.035  0.00  0.00    +0.138 C 
ATOM     10  C   UNL     1      35.022 -16.822 -22.096  0.00  0.00    +0.038 C 
ATOM     11  C   UNL     1      34.705 -17.592 -24.364  0.00  0.00    +0.038 C 
ATOM     12  C   UNL     1      34.692 -15.525 -22.491  0.00  0.00    +0.018 C 
ATOM     13  C   UNL     1      34.374 -16.296 -24.758  0.00  0.00    +0.018 C 
ATOM     14  C   UNL     1      34.368 -15.262 -23.821  0.00  0.00    +0.057 C 
BRANCH  14  15
ATOM     15  N   UNL     1      34.041 -13.977 -24.213  0.00  0.00    -0.246 N 
ATOM     16  N   UNL     1      33.491 -12.272 -25.540  0.00  0.00    -0.224 NA
ATOM     17  C   UNL     1      33.920 -12.880 -23.399  0.00  0.00    +0.092 C 
ATOM     18  C   UNL     1      33.772 -13.555 -25.491  0.00  0.00    +0.172 C 
ATOM     19  C   UNL     1      33.581 -11.845 -24.238  0.00  0.00    +0.117 C 
ENDBRANCH  14  15
ENDBRANCH   8   9
ENDBRANCH   2   8
BRANCH   1  20
ATOM     20  C   UNL     1      36.416 -21.970 -18.902  0.00  0.00    -0.050 C 
BRANCH  20  23
ATOM     21  O   UNL     1      37.395 -22.911 -14.155  0.00  0.00    -0.435 OA
ATOM     22  O   UNL     1      35.122 -23.566 -13.696  0.00  0.00    -0.435 OA
ATOM     23  C   UNL     1      36.033 -22.405 -17.513  0.00  0.00    -0.040 C 
ATOM     24  C   UNL     1      37.000 -22.420 -16.513  0.00  0.00    +0.034 C 
ATOM     25  C   UNL     1      34.710 -22.784 -17.257  0.00  0.00    -0.003 C 
ATOM     26  C   UNL     1      36.601 -22.826 -15.257  0.00  0.00    +0.176 C 
ATOM     27  C   UNL     1      34.332 -23.190 -15.975  0.00  0.00    +0.040 C 
ATOM     28  C   UNL     1      35.303 -23.201 -14.995  0.00  0.00    +0.176 C 
ATOM     29  C   UNL     1      36.451 -23.379 -13.170  0.00  0.00    +0.429 C 
ENDBRANCH  20  23
ENDBRANCH   1  20
TORSDOF 5
ENDMDL
MODEL 9
REMARK VINA RESULT:     -10.2      3.073      5.557
REMARK  Name = 11740318
REMARK  5 active torsions:
REMARK  status: ('A' for Active; 'I' for Inactive)
REMARK    1  A    between atoms: N_1  and  C_20
REMARK    2  A    between atoms: C_2  and  O_8
REMARK    3  A    between atoms: O_8  and  C_9
REMARK    4  A    between atoms: C_14  and  N_15
REMARK    5  A    between atoms: C_20  and  C_23
REMARK                            x       y       z     vdW  Elec       q    Type
REMARK                         _______ _______ _______ _____ _____    ______ ____
ROOT
ATOM      1  N   UNL     1      34.476 -21.591 -19.162  0.00  0.00    +0.392 N 
ATOM      2  C   UNL     1      34.714 -19.810 -20.866  0.00  0.00    +0.145 C 
ATOM      3  C   UNL     1      35.332 -21.059 -20.229  0.00  0.00    -0.032 C 
ATOM      4  C   UNL     1      33.308 -20.095 -21.383  0.00  0.00    +0.039 C 
ATOM      5  C   UNL     1      32.452 -20.718 -20.289  0.00  0.00    -0.019 C 
ATOM      6  C   UNL     1      33.142 -21.937 -19.673  0.00  0.00    -0.077 C 
ATOM      7  H   UNL     1      34.362 -20.861 -18.458  0.00  0.00    -0.079 HD
ENDROOT
BRANCH   2   8
ATOM      8  O   UNL     1      35.520 -19.378 -21.957  0.00  0.00    -0.481 OA
BRANCH   8   9
ATOM      9  C   UNL     1      35.162 -18.201 -22.558  0.00  0.00    +0.138 C 
ATOM     10  C   UNL     1      34.896 -18.177 -23.923  0.00  0.00    +0.038 C 
ATOM     11  C   UNL     1      35.067 -17.040 -21.799  0.00  0.00    +0.038 C 
ATOM     12  C   UNL     1      34.532 -16.977 -24.536  0.00  0.00    +0.018 C 
ATOM     13  C   UNL     1      34.702 -15.841 -22.411  0.00  0.00    +0.018 C 
ATOM     14  C   UNL     1      34.434 -15.810 -23.780  0.00  0.00    +0.057 C 
BRANCH  14  15
ATOM     15  N   UNL     1      34.072 -14.621 -24.387  0.00  0.00    -0.246 N 
ATOM     16  N   UNL     1      33.736 -12.436 -24.668  0.00  0.00    -0.224 NA
ATOM     17  C   UNL     1      33.565 -14.470 -25.652  0.00  0.00    +0.092 C 
ATOM     18  C   UNL     1      34.154 -13.365 -23.839  0.00  0.00    +0.172 C 
ATOM     19  C   UNL     1      33.367 -13.118 -25.800  0.00  0.00    +0.117 C 
ENDBRANCH  14  15
ENDBRANCH   8   9
ENDBRANCH   2   8
BRANCH   1  20
ATOM     20  C   UNL     1      35.102 -22.754 -18.534  0.00  0.00    -0.050 C 
BRANCH  20  23
ATOM     21  O   UNL     1      31.350 -24.051 -15.598  0.00  0.00    -0.435 OA
ATOM     22  O   UNL     1      32.711 -23.932 -13.613  0.00  0.00    -0.435 OA
ATOM     23  C   UNL     1      34.491 -23.064 -17.194  0.00  0.00    -0.040 C 
ATOM     24  C   UNL     1      33.148 -23.417 -17.123  0.00  0.00    +0.034 C 
ATOM     25  C   UNL     1      35.290 -22.992 -16.046  0.00  0.00    -0.003 C 
ATOM     26  C   UNL     1      32.634 -23.693 -15.873  0.00  0.00    +0.176 C 
ATOM     27  C   UNL     1      34.745 -23.277 -14.793  0.00  0.00    +0.040 C 
ATOM     28  C   UNL     1      33.411 -23.624 -14.739  0.00  0.00    +0.176 C 
ATOM     29  C   UNL     1      31.407 -24.203 -14.165  0.00  0.00    +0.429 C 
ENDBRANCH  20  23
ENDBRANCH   1  20
TORSDOF 5
ENDMDL
