MODEL 1
REMARK VINA RESULT:     -12.3      0.000      0.000
REMARK  Name = 10407120
REMARK  4 active torsions:
REMARK  status: ('A' for Active; 'I' for Inactive)
REMARK    1  A    between atoms: N_2  and  C_19
REMARK    2  A    between atoms: C_3  and  C_6
REMARK    3  A    between atoms: C_5  and  C_16
REMARK    4  A    between atoms: C_19  and  C_21
REMARK                            x       y       z     vdW  Elec       q    Type
REMARK                         _______ _______ _______ _____ _____    ______ ____
ROOT
ATOM      1  O   UNL     1      33.470 -16.218 -25.872  0.00  0.00    -0.270 OA
ATOM      2  N   UNL     1      33.845 -14.205 -24.771  0.00  0.00    -0.267 N 
ATOM      3  C   UNL     1      33.854 -15.599 -24.878  0.00  0.00    +0.250 C 
ATOM      4  C   UNL     1      33.356 -13.406 -25.886  0.00  0.00    +0.116 C 
ENDROOT
BRANCH   3   6
ATOM      5  C   UNL     1      34.565 -17.680 -23.755  0.00  0.00    +0.006 C 
ATOM      6  C   UNL     1      34.340 -16.347 -23.681  0.00  0.00    +0.058 C 
BRANCH   5  16
ATOM      7  O   UNL     1      36.080 -22.477 -17.921  0.00  0.00    -0.275 OA
ATOM      8  N   UNL     1      36.391 -20.851 -19.513  0.00  0.00    -0.270 N 
ATOM      9  N   UNL     1      36.790 -19.231 -21.190  0.00  0.00    -0.229 NA
ATOM     10  C   UNL     1      33.641 -21.040 -20.170  0.00  0.00    +0.039 C 
ATOM     11  C   UNL     1      34.577 -20.175 -20.957  0.00  0.00    +0.010 C 
ATOM     12  C   UNL     1      34.372 -22.238 -19.586  0.00  0.00    +0.090 C 
ATOM     13  C   UNL     1      35.917 -20.072 -20.586  0.00  0.00    +0.130 C 
ATOM     14  C   UNL     1      34.124 -19.375 -22.007  0.00  0.00    +0.000 C 
ATOM     15  C   UNL     1      35.669 -21.856 -18.901  0.00  0.00    +0.227 C 
ATOM     16  C   UNL     1      35.007 -18.519 -22.656  0.00  0.00    +0.019 C 
ATOM     17  C   UNL     1      36.316 -18.483 -22.211  0.00  0.00    +0.100 C 
ATOM     18  H   UNL     1      37.298 -20.668 -19.177  0.00  0.00    +0.156 HD
ENDBRANCH   5  16
ENDBRANCH   3   6
BRANCH   2  19
ATOM     19  C   UNL     1      34.263 -13.451 -23.590  0.00  0.00    +0.158 C 
BRANCH  19  21
ATOM     20  O   UNL     1      33.848 -11.161 -24.179  0.00  0.00    -0.456 OA
ATOM     21  C   UNL     1      33.458 -12.196 -23.412  0.00  0.00    +0.139 A 
ATOM     22  C   UNL     1      32.400 -11.895 -22.621  0.00  0.00    +0.013 A 
ATOM     23  C   UNL     1      32.085 -10.541 -22.909  0.00  0.00    +0.033 A 
ATOM     24  C   UNL     1      33.005 -10.136 -23.872  0.00  0.00    +0.145 A 
ATOM     25  C   UNL     1      31.713 -12.780 -21.660  0.00  0.00    +0.034 C 
ATOM     26  C   UNL     1      31.128  -9.614 -22.464  0.00  0.00    +0.003 C 
ATOM     27  C   UNL     1      33.040  -8.860 -24.432  0.00  0.00    +0.037 C 
ATOM     28  C   UNL     1      31.138  -8.322 -23.008  0.00  0.00    +0.000 C 
ATOM     29  C   UNL     1      32.078  -7.954 -23.973  0.00  0.00    +0.003 C 
ENDBRANCH  19  21
ENDBRANCH   2  19
TORSDOF 4
ENDMDL
MODEL 2
REMARK VINA RESULT:     -11.9      2.399      9.733
REMARK  Name = 10407120
REMARK  4 active torsions:
REMARK  status: ('A' for Active; 'I' for Inactive)
REMARK    1  A    between atoms: N_2  and  C_19
REMARK    2  A    between atoms: C_3  and  C_6
REMARK    3  A    between atoms: C_5  and  C_16
REMARK    4  A    between atoms: C_19  and  C_21
REMARK                            x       y       z     vdW  Elec       q    Type
REMARK                         _______ _______ _______ _____ _____    ______ ____
ROOT
ATOM      1  O   UNL     1      33.818 -16.539 -25.814  0.00  0.00    -0.270 OA
ATOM      2  N   UNL     1      34.664 -17.416 -23.835  0.00  0.00    -0.267 N 
ATOM      3  C   UNL     1      34.165 -16.389 -24.642  0.00  0.00    +0.250 C 
ATOM      4  C   UNL     1      34.795 -18.758 -24.386  0.00  0.00    +0.116 C 
ENDROOT
BRANCH   3   6
ATOM      5  C   UNL     1      32.999 -14.257 -24.201  0.00  0.00    +0.006 C 
ATOM      6  C   UNL     1      34.090 -15.037 -24.014  0.00  0.00    +0.058 C 
BRANCH   5  16
ATOM      7  O   UNL     1      31.580  -7.526 -20.734  0.00  0.00    -0.275 OA
ATOM      8  N   UNL     1      32.387  -9.036 -22.265  0.00  0.00    -0.270 N 
ATOM      9  N   UNL     1      33.312 -10.557 -23.823  0.00  0.00    -0.229 NA
ATOM     10  C   UNL     1      30.941 -11.079 -20.936  0.00  0.00    +0.039 C 
ATOM     11  C   UNL     1      31.872 -11.387 -22.068  0.00  0.00    +0.010 C 
ATOM     12  C   UNL     1      31.407  -9.850 -20.172  0.00  0.00    +0.090 C 
ATOM     13  C   UNL     1      32.540 -10.357 -22.729  0.00  0.00    +0.130 C 
ATOM     14  C   UNL     1      32.018 -12.685 -22.561  0.00  0.00    +0.000 C 
ATOM     15  C   UNL     1      31.761  -8.693 -21.083  0.00  0.00    +0.227 C 
ATOM     16  C   UNL     1      32.823 -12.917 -23.670  0.00  0.00    +0.019 C 
ATOM     17  C   UNL     1      33.440 -11.829 -24.260  0.00  0.00    +0.100 C 
ATOM     18  H   UNL     1      32.751  -8.310 -22.819  0.00  0.00    +0.156 HD
ENDBRANCH   5  16
ENDBRANCH   3   6
BRANCH   2  19
ATOM     19  C   UNL     1      35.113 -17.255 -22.453  0.00  0.00    +0.158 C 
BRANCH  19  21
ATOM     20  O   UNL     1      33.788 -18.979 -21.439  0.00  0.00    -0.456 OA
ATOM     21  C   UNL     1      35.037 -18.542 -21.684  0.00  0.00    +0.139 A 
ATOM     22  C   UNL     1      35.989 -19.363 -21.182  0.00  0.00    +0.013 A 
ATOM     23  C   UNL     1      35.283 -20.425 -20.557  0.00  0.00    +0.033 A 
ATOM     24  C   UNL     1      33.933 -20.141 -20.743  0.00  0.00    +0.145 A 
ATOM     25  C   UNL     1      37.454 -19.198 -21.261  0.00  0.00    +0.034 C 
ATOM     26  C   UNL     1      35.634 -21.591 -19.856  0.00  0.00    +0.003 C 
ATOM     27  C   UNL     1      32.895 -20.945 -20.277  0.00  0.00    +0.037 C 
ATOM     28  C   UNL     1      34.612 -22.419 -19.374  0.00  0.00    +0.000 C 
ATOM     29  C   UNL     1      33.267 -22.100 -19.581  0.00  0.00    +0.003 C 
ENDBRANCH  19  21
ENDBRANCH   2  19
TORSDOF 4
ENDMDL
MODEL 3
REMARK VINA RESULT:     -11.8      2.385     10.152
REMARK  Name = 10407120
REMARK  4 active torsions:
REMARK  status: ('A' for Active; 'I' for Inactive)
REMARK    1  A    between atoms: N_2  and  C_19
REMARK    2  A    between atoms: C_3  and  C_6
REMARK    3  A    between atoms: C_5  and  C_16
REMARK    4  A    between atoms: C_19  and  C_21
REMARK                            x       y       z     vdW  Elec       q    Type
REMARK                         _______ _______ _______ _____ _____    ______ ____
ROOT
ATOM      1  O   UNL     1      33.451 -16.567 -25.895  0.00  0.00    -0.270 OA
ATOM      2  N   UNL     1      34.503 -17.385 -23.990  0.00  0.00    -0.267 N 
ATOM      3  C   UNL     1      33.908 -16.385 -24.765  0.00  0.00    +0.250 C 
ATOM      4  C   UNL     1      34.605 -18.737 -24.524  0.00  0.00    +0.116 C 
ENDROOT
BRANCH   3   6
ATOM      5  C   UNL     1      33.530 -13.949 -24.917  0.00  0.00    +0.006 C 
ATOM      6  C   UNL     1      33.870 -15.021 -24.161  0.00  0.00    +0.058 C 
BRANCH   5  16
ATOM      7  O   UNL     1      33.878  -6.467 -23.119  0.00  0.00    -0.275 OA
ATOM      8  N   UNL     1      33.286  -8.684 -23.020  0.00  0.00    -0.270 N 
ATOM      9  N   UNL     1      32.579 -10.939 -22.924  0.00  0.00    -0.229 NA
ATOM     10  C   UNL     1      35.130  -9.217 -25.105  0.00  0.00    +0.039 C 
ATOM     11  C   UNL     1      34.220 -10.281 -24.572  0.00  0.00    +0.010 C 
ATOM     12  C   UNL     1      34.487  -7.845 -24.984  0.00  0.00    +0.090 C 
ATOM     13  C   UNL     1      33.351 -10.000 -23.519  0.00  0.00    +0.130 C 
ATOM     14  C   UNL     1      34.286 -11.596 -25.034  0.00  0.00    +0.000 C 
ATOM     15  C   UNL     1      33.893  -7.594 -23.613  0.00  0.00    +0.227 C 
ATOM     16  C   UNL     1      33.487 -12.574 -24.453  0.00  0.00    +0.019 C 
ATOM     17  C   UNL     1      32.661 -12.198 -23.409  0.00  0.00    +0.100 C 
ATOM     18  H   UNL     1      32.775  -8.531 -22.194  0.00  0.00    +0.156 HD
ENDBRANCH   5  16
ENDBRANCH   3   6
BRANCH   2  19
ATOM     19  C   UNL     1      35.083 -17.186 -22.663  0.00  0.00    +0.158 C 
BRANCH  19  21
ATOM     20  O   UNL     1      33.823 -18.910 -21.568  0.00  0.00    -0.456 OA
ATOM     21  C   UNL     1      35.055 -18.443 -21.844  0.00  0.00    +0.139 A 
ATOM     22  C   UNL     1      36.039 -19.214 -21.321  0.00  0.00    +0.013 A 
ATOM     23  C   UNL     1      35.373 -20.272 -20.647  0.00  0.00    +0.033 A 
ATOM     24  C   UNL     1      34.013 -20.039 -20.828  0.00  0.00    +0.145 A 
ATOM     25  C   UNL     1      37.497 -19.007 -21.424  0.00  0.00    +0.034 C 
ATOM     26  C   UNL     1      35.769 -21.398 -19.906  0.00  0.00    +0.003 C 
ATOM     27  C   UNL     1      33.006 -20.856 -20.319  0.00  0.00    +0.037 C 
ATOM     28  C   UNL     1      34.778 -22.239 -19.380  0.00  0.00    +0.000 C 
ATOM     29  C   UNL     1      33.422 -21.970 -19.584  0.00  0.00    +0.003 C 
ENDBRANCH  19  21
ENDBRANCH   2  19
TORSDOF 4
ENDMDL
MODEL 4
REMARK VINA RESULT:     -10.9      4.831      7.698
REMARK  Name = 10407120
REMARK  4 active torsions:
REMARK  status: ('A' for Active; 'I' for Inactive)
REMARK    1  A    between atoms: N_2  and  C_19
REMARK    2  A    between atoms: C_3  and  C_6
REMARK    3  A    between atoms: C_5  and  C_16
REMARK    4  A    between atoms: C_19  and  C_21
REMARK                            x       y       z     vdW  Elec       q    Type
REMARK                         _______ _______ _______ _____ _____    ______ ____
ROOT
ATOM      1  O   UNL     1      34.322  -5.805 -25.149  0.00  0.00    -0.270 OA
ATOM      2  N   UNL     1      32.257  -5.831 -24.082  0.00  0.00    -0.267 N 
ATOM      3  C   UNL     1      33.298  -6.404 -24.817  0.00  0.00    +0.250 C 
ATOM      4  C   UNL     1      32.359  -4.438 -23.667  0.00  0.00    +0.116 C 
ENDROOT
BRANCH   3   6
ATOM      5  C   UNL     1      33.881  -8.802 -24.705  0.00  0.00    +0.006 C 
ATOM      6  C   UNL     1      33.105  -7.826 -25.231  0.00  0.00    +0.058 C 
BRANCH   5  16
ATOM      7  O   UNL     1      33.609 -16.440 -25.661  0.00  0.00    -0.275 OA
ATOM      8  N   UNL     1      33.602 -14.201 -26.171  0.00  0.00    -0.270 N 
ATOM      9  N   UNL     1      33.503 -11.907 -26.741  0.00  0.00    -0.229 NA
ATOM     10  C   UNL     1      34.192 -13.633 -23.458  0.00  0.00    +0.039 C 
ATOM     11  C   UNL     1      33.911 -12.541 -24.444  0.00  0.00    +0.010 C 
ATOM     12  C   UNL     1      33.444 -14.903 -23.828  0.00  0.00    +0.090 C 
ATOM     13  C   UNL     1      33.662 -12.849 -25.781  0.00  0.00    +0.130 C 
ATOM     14  C   UNL     1      33.991 -11.195 -24.086  0.00  0.00    +0.000 C 
ATOM     15  C   UNL     1      33.594 -15.266 -25.292  0.00  0.00    +0.227 C 
ATOM     16  C   UNL     1      33.810 -10.210 -25.050  0.00  0.00    +0.019 C 
ATOM     17  C   UNL     1      33.574 -10.615 -26.351  0.00  0.00    +0.100 C 
ATOM     18  H   UNL     1      33.563 -14.400 -27.133  0.00  0.00    +0.156 HD
ENDBRANCH   5  16
ENDBRANCH   3   6
BRANCH   2  19
ATOM     19  C   UNL     1      31.019  -6.511 -23.706  0.00  0.00    +0.158 C 
BRANCH  19  21
ATOM     20  O   UNL     1      30.654  -8.795 -23.065  0.00  0.00    -0.456 OA
ATOM     21  C   UNL     1      31.267  -7.639 -22.748  0.00  0.00    +0.139 A 
ATOM     22  C   UNL     1      31.996  -7.727 -21.610  0.00  0.00    +0.013 A 
ATOM     23  C   UNL     1      31.835  -9.063 -21.158  0.00  0.00    +0.033 A 
ATOM     24  C   UNL     1      31.001  -9.677 -22.087  0.00  0.00    +0.145 A 
ATOM     25  C   UNL     1      32.794  -6.663 -20.968  0.00  0.00    +0.034 C 
ATOM     26  C   UNL     1      32.300  -9.819 -20.069  0.00  0.00    +0.003 C 
ATOM     27  C   UNL     1      30.592 -11.007 -22.010  0.00  0.00    +0.037 C 
ATOM     28  C   UNL     1      31.905 -11.160 -19.964  0.00  0.00    +0.000 C 
ATOM     29  C   UNL     1      31.066 -11.741 -20.918  0.00  0.00    +0.003 C 
ENDBRANCH  19  21
ENDBRANCH   2  19
TORSDOF 4
ENDMDL
MODEL 5
REMARK VINA RESULT:     -10.9      6.236     12.979
REMARK  Name = 10407120
REMARK  4 active torsions:
REMARK  status: ('A' for Active; 'I' for Inactive)
REMARK    1  A    between atoms: N_2  and  C_19
REMARK    2  A    between atoms: C_3  and  C_6
REMARK    3  A    between atoms: C_5  and  C_16
REMARK    4  A    between atoms: C_19  and  C_21
REMARK                            x       y       z     vdW  Elec       q    Type
REMARK                         _______ _______ _______ _____ _____    ______ ____
ROOT
ATOM      1  O   UNL     1      30.497 -24.643 -16.449  0.00  0.00    -0.270 OA
ATOM      2  N   UNL     1      31.680 -24.178 -14.503  0.00  0.00    -0.267 N 
ATOM      3  C   UNL     1      31.374 -24.013 -15.857  0.00  0.00    +0.250 C 
ATOM      4  C   UNL     1      30.932 -25.149 -13.716  0.00  0.00    +0.116 C 
ENDROOT
BRANCH   3   6
ATOM      5  C   UNL     1      32.957 -23.417 -17.657  0.00  0.00    +0.006 C 
ATOM      6  C   UNL     1      32.206 -23.022 -16.603  0.00  0.00    +0.058 C 
BRANCH   5  16
ATOM      7  O   UNL     1      36.827 -18.557 -22.212  0.00  0.00    -0.275 OA
ATOM      8  N   UNL     1      36.423 -20.155 -20.612  0.00  0.00    -0.270 N 
ATOM      9  N   UNL     1      36.054 -21.742 -18.897  0.00  0.00    -0.229 NA
ATOM     10  C   UNL     1      33.688 -20.134 -21.356  0.00  0.00    +0.039 C 
ATOM     11  C   UNL     1      34.177 -20.936 -20.189  0.00  0.00    +0.010 C 
ATOM     12  C   UNL     1      34.546 -18.895 -21.558  0.00  0.00    +0.090 C 
ATOM     13  C   UNL     1      35.534 -20.959 -19.871  0.00  0.00    +0.130 C 
ATOM     14  C   UNL     1      33.319 -21.759 -19.458  0.00  0.00    +0.000 C 
ATOM     15  C   UNL     1      36.030 -19.198 -21.527  0.00  0.00    +0.227 C 
ATOM     16  C   UNL     1      33.827 -22.556 -18.438  0.00  0.00    +0.019 C 
ATOM     17  C   UNL     1      35.189 -22.513 -18.202  0.00  0.00    +0.100 C 
ATOM     18  H   UNL     1      37.387 -20.284 -20.468  0.00  0.00    +0.156 HD
ENDBRANCH   5  16
ENDBRANCH   3   6
BRANCH   2  19
ATOM     19  C   UNL     1      32.739 -23.467 -13.788  0.00  0.00    +0.158 C 
BRANCH  19  21
ATOM     20  O   UNL     1      34.262 -24.940 -14.915  0.00  0.00    -0.456 OA
ATOM     21  C   UNL     1      34.031 -24.230 -13.795  0.00  0.00    +0.139 A 
ATOM     22  C   UNL     1      35.027 -24.348 -12.884  0.00  0.00    +0.013 A 
ATOM     23  C   UNL     1      35.983 -25.213 -13.478  0.00  0.00    +0.033 A 
ATOM     24  C   UNL     1      35.465 -25.549 -14.725  0.00  0.00    +0.145 A 
ATOM     25  C   UNL     1      35.109 -23.715 -11.553  0.00  0.00    +0.034 C 
ATOM     26  C   UNL     1      37.226 -25.749 -13.100  0.00  0.00    +0.003 C 
ATOM     27  C   UNL     1      36.104 -26.389 -15.635  0.00  0.00    +0.037 C 
ATOM     28  C   UNL     1      37.892 -26.598 -13.994  0.00  0.00    +0.000 C 
ATOM     29  C   UNL     1      37.338 -26.912 -15.238  0.00  0.00    +0.003 C 
ENDBRANCH  19  21
ENDBRANCH   2  19
TORSDOF 4
ENDMDL
MODEL 6
REMARK VINA RESULT:     -10.6      4.099      7.545
REMARK  Name = 10407120
REMARK  4 active torsions:
REMARK  status: ('A' for Active; 'I' for Inactive)
REMARK    1  A    between atoms: N_2  and  C_19
REMARK    2  A    between atoms: C_3  and  C_6
REMARK    3  A    between atoms: C_5  and  C_16
REMARK    4  A    between atoms: C_19  and  C_21
REMARK                            x       y       z     vdW  Elec       q    Type
REMARK                         _______ _______ _______ _____ _____    ______ ____
ROOT
ATOM      1  O   UNL     1      32.130 -21.966 -19.116  0.00  0.00    -0.270 OA
ATOM      2  N   UNL     1      33.515 -20.716 -20.502  0.00  0.00    -0.267 N 
ATOM      3  C   UNL     1      33.259 -21.648 -19.492  0.00  0.00    +0.250 C 
ATOM      4  C   UNL     1      32.398 -20.063 -21.171  0.00  0.00    +0.116 C 
ENDROOT
BRANCH   3   6
ATOM      5  C   UNL     1      34.429 -22.557 -17.516  0.00  0.00    +0.006 C 
ATOM      6  C   UNL     1      34.456 -22.250 -18.834  0.00  0.00    +0.058 C 
BRANCH   5  16
ATOM      7  O   UNL     1      39.747 -26.194 -13.293  0.00  0.00    -0.275 OA
ATOM      8  N   UNL     1      38.773 -24.598 -14.628  0.00  0.00    -0.270 N 
ATOM      9  N   UNL     1      37.846 -22.968 -16.069  0.00  0.00    -0.229 NA
ATOM     10  C   UNL     1      36.309 -25.979 -14.393  0.00  0.00    +0.039 C 
ATOM     11  C   UNL     1      36.460 -24.790 -15.293  0.00  0.00    +0.010 C 
ATOM     12  C   UNL     1      37.624 -26.732 -14.268  0.00  0.00    +0.090 C 
ATOM     13  C   UNL     1      37.673 -24.107 -15.358  0.00  0.00    +0.130 C 
ATOM     14  C   UNL     1      35.377 -24.272 -16.005  0.00  0.00    +0.000 C 
ATOM     15  C   UNL     1      38.798 -25.818 -13.982  0.00  0.00    +0.227 C 
ATOM     16  C   UNL     1      35.535 -23.115 -16.760  0.00  0.00    +0.019 C 
ATOM     17  C   UNL     1      36.777 -22.506 -16.756  0.00  0.00    +0.100 C 
ATOM     18  H   UNL     1      39.577 -24.034 -14.574  0.00  0.00    +0.156 HD
ENDBRANCH   5  16
ENDBRANCH   3   6
BRANCH   2  19
ATOM     19  C   UNL     1      34.845 -20.298 -20.942  0.00  0.00    +0.158 C 
BRANCH  19  21
ATOM     20  O   UNL     1      34.759 -17.904 -21.091  0.00  0.00    -0.456 OA
ATOM     21  C   UNL     1      34.793 -19.057 -21.785  0.00  0.00    +0.139 A 
ATOM     22  C   UNL     1      34.775 -18.865 -23.125  0.00  0.00    +0.013 A 
ATOM     23  C   UNL     1      34.724 -17.457 -23.305  0.00  0.00    +0.033 A 
ATOM     24  C   UNL     1      34.715 -16.913 -22.025  0.00  0.00    +0.145 A 
ATOM     25  C   UNL     1      34.802 -19.893 -24.184  0.00  0.00    +0.034 C 
ATOM     26  C   UNL     1      34.683 -16.585 -24.406  0.00  0.00    +0.003 C 
ATOM     27  C   UNL     1      34.670 -15.546 -21.757  0.00  0.00    +0.037 C 
ATOM     28  C   UNL     1      34.636 -15.204 -24.169  0.00  0.00    +0.000 C 
ATOM     29  C   UNL     1      34.629 -14.697 -22.867  0.00  0.00    +0.003 C 
ENDBRANCH  19  21
ENDBRANCH   2  19
TORSDOF 4
ENDMDL
MODEL 7
REMARK VINA RESULT:     -10.1      8.335     11.838
REMARK  Name = 10407120
REMARK  4 active torsions:
REMARK  status: ('A' for Active; 'I' for Inactive)
REMARK    1  A    between atoms: N_2  and  C_19
REMARK    2  A    between atoms: C_3  and  C_6
REMARK    3  A    between atoms: C_5  and  C_16
REMARK    4  A    between atoms: C_19  and  C_21
REMARK                            x       y       z     vdW  Elec       q    Type
REMARK                         _______ _______ _______ _____ _____    ______ ____
ROOT
ATOM      1  O   UNL     1      31.578 -22.743 -13.038  0.00  0.00    -0.270 OA
ATOM      2  N   UNL     1      31.069 -23.464 -15.189  0.00  0.00    -0.267 N 
ATOM      3  C   UNL     1      31.858 -23.409 -14.036  0.00  0.00    +0.250 C 
ATOM      4  C   UNL     1      29.833 -22.695 -15.245  0.00  0.00    +0.116 C 
ENDROOT
BRANCH   3   6
ATOM      5  C   UNL     1      34.210 -23.777 -13.379  0.00  0.00    +0.006 C 
ATOM      6  C   UNL     1      33.124 -24.200 -14.067  0.00  0.00    +0.058 C 
BRANCH   5  16
ATOM      7  O   UNL     1      41.225 -26.891 -14.044  0.00  0.00    -0.275 OA
ATOM      8  N   UNL     1      39.153 -26.406 -13.178  0.00  0.00    -0.270 N 
ATOM      9  N   UNL     1      37.065 -25.875 -12.202  0.00  0.00    -0.229 NA
ATOM     10  C   UNL     1      38.569 -24.940 -15.533  0.00  0.00    +0.039 C 
ATOM     11  C   UNL     1      37.625 -24.965 -14.370  0.00  0.00    +0.010 C 
ATOM     12  C   UNL     1      40.007 -25.096 -15.065  0.00  0.00    +0.090 C 
ATOM     13  C   UNL     1      37.921 -25.727 -13.241  0.00  0.00    +0.130 C 
ATOM     14  C   UNL     1      36.388 -24.321 -14.420  0.00  0.00    +0.000 C 
ATOM     15  C   UNL     1      40.184 -26.235 -14.081  0.00  0.00    +0.227 C 
ATOM     16  C   UNL     1      35.501 -24.441 -13.356  0.00  0.00    +0.019 C 
ATOM     17  C   UNL     1      35.883 -25.224 -12.282  0.00  0.00    +0.100 C 
ATOM     18  H   UNL     1      39.289 -27.044 -12.443  0.00  0.00    +0.156 HD
ENDBRANCH   5  16
ENDBRANCH   3   6
BRANCH   2  19
ATOM     19  C   UNL     1      31.397 -24.220 -16.396  0.00  0.00    +0.158 C 
BRANCH  19  21
ATOM     20  O   UNL     1      31.625 -22.582 -18.136  0.00  0.00    -0.456 OA
ATOM     21  C   UNL     1      32.277 -23.437 -17.327  0.00  0.00    +0.139 A 
ATOM     22  C   UNL     1      33.619 -23.419 -17.516  0.00  0.00    +0.013 A 
ATOM     23  C   UNL     1      33.844 -22.464 -18.542  0.00  0.00    +0.033 A 
ATOM     24  C   UNL     1      32.587 -21.979 -18.889  0.00  0.00    +0.145 A 
ATOM     25  C   UNL     1      34.639 -24.220 -16.810  0.00  0.00    +0.034 C 
ATOM     26  C   UNL     1      34.969 -21.957 -19.214  0.00  0.00    +0.003 C 
ATOM     27  C   UNL     1      32.365 -21.012 -19.868  0.00  0.00    +0.037 C 
ATOM     28  C   UNL     1      34.778 -20.984 -20.205  0.00  0.00    +0.000 C 
ATOM     29  C   UNL     1      33.498 -20.523 -20.525  0.00  0.00    +0.003 C 
ENDBRANCH  19  21
ENDBRANCH   2  19
TORSDOF 4
ENDMDL
MODEL 8
REMARK VINA RESULT:     -10.1      6.248     12.661
REMARK  Name = 10407120
REMARK  4 active torsions:
REMARK  status: ('A' for Active; 'I' for Inactive)
REMARK    1  A    between atoms: N_2  and  C_19
REMARK    2  A    between atoms: C_3  and  C_6
REMARK    3  A    between atoms: C_5  and  C_16
REMARK    4  A    between atoms: C_19  and  C_21
REMARK                            x       y       z     vdW  Elec       q    Type
REMARK                         _______ _______ _______ _____ _____    ______ ____
ROOT
ATOM      1  O   UNL     1      30.750 -24.744 -16.557  0.00  0.00    -0.270 OA
ATOM      2  N   UNL     1      32.278 -23.918 -15.012  0.00  0.00    -0.267 N 
ATOM      3  C   UNL     1      31.589 -23.905 -16.229  0.00  0.00    +0.250 C 
ATOM      4  C   UNL     1      32.010 -24.980 -14.051  0.00  0.00    +0.116 C 
ENDROOT
BRANCH   3   6
ATOM      5  C   UNL     1      32.820 -23.023 -18.180  0.00  0.00    +0.006 C 
ATOM      6  C   UNL     1      31.943 -22.803 -17.172  0.00  0.00    +0.058 C 
BRANCH   5  16
ATOM      7  O   UNL     1      36.015 -17.958 -23.025  0.00  0.00    -0.275 OA
ATOM      8  N   UNL     1      34.403 -19.146 -21.901  0.00  0.00    -0.270 N 
ATOM      9  N   UNL     1      32.704 -20.398 -20.832  0.00  0.00    -0.229 NA
ATOM     10  C   UNL     1      36.444 -20.339 -20.338  0.00  0.00    +0.039 C 
ATOM     11  C   UNL     1      35.013 -20.765 -20.217  0.00  0.00    +0.010 C 
ATOM     12  C   UNL     1      36.745 -19.850 -21.746  0.00  0.00    +0.090 C 
ATOM     13  C   UNL     1      34.025 -20.133 -20.970  0.00  0.00    +0.130 C 
ATOM     14  C   UNL     1      34.613 -21.722 -19.283  0.00  0.00    +0.000 C 
ATOM     15  C   UNL     1      35.708 -18.873 -22.261  0.00  0.00    +0.227 C 
ATOM     16  C   UNL     1      33.265 -22.027 -19.138  0.00  0.00    +0.019 C 
ATOM     17  C   UNL     1      32.359 -21.342 -19.927  0.00  0.00    +0.100 C 
ATOM     18  H   UNL     1      33.690 -18.616 -22.323  0.00  0.00    +0.156 HD
ENDBRANCH   5  16
ENDBRANCH   3   6
BRANCH   2  19
ATOM     19  C   UNL     1      33.302 -22.953 -14.616  0.00  0.00    +0.158 C 
BRANCH  19  21
ATOM     20  O   UNL     1      34.761 -24.389 -13.363  0.00  0.00    -0.456 OA
ATOM     21  C   UNL     1      34.646 -23.598 -14.446  0.00  0.00    +0.139 A 
ATOM     22  C   UNL     1      35.784 -23.543 -15.179  0.00  0.00    +0.013 A 
ATOM     23  C   UNL     1      36.713 -24.376 -14.500  0.00  0.00    +0.033 A 
ATOM     24  C   UNL     1      36.035 -24.871 -13.390  0.00  0.00    +0.145 A 
ATOM     25  C   UNL     1      36.020 -22.782 -16.421  0.00  0.00    +0.034 C 
ATOM     26  C   UNL     1      38.048 -24.765 -14.700  0.00  0.00    +0.003 C 
ATOM     27  C   UNL     1      36.596 -25.737 -12.454  0.00  0.00    +0.037 C 
ATOM     28  C   UNL     1      38.641 -25.635 -13.774  0.00  0.00    +0.000 C 
ATOM     29  C   UNL     1      37.926 -26.110 -12.672  0.00  0.00    +0.003 C 
ENDBRANCH  19  21
ENDBRANCH   2  19
TORSDOF 4
ENDMDL
MODEL 9
REMARK VINA RESULT:     -10.0      6.688     13.032
REMARK  Name = 10407120
REMARK  4 active torsions:
REMARK  status: ('A' for Active; 'I' for Inactive)
REMARK    1  A    between atoms: N_2  and  C_19
REMARK    2  A    between atoms: C_3  and  C_6
REMARK    3  A    between atoms: C_5  and  C_16
REMARK    4  A    between atoms: C_19  and  C_21
REMARK                            x       y       z     vdW  Elec       q    Type
REMARK                         _______ _______ _______ _____ _____    ______ ____
ROOT
ATOM      1  O   UNL     1      30.284 -25.088 -16.125  0.00  0.00    -0.270 OA
ATOM      2  N   UNL     1      31.787 -24.345 -14.514  0.00  0.00    -0.267 N 
ATOM      3  C   UNL     1      31.148 -24.290 -15.756  0.00  0.00    +0.250 C 
ATOM      4  C   UNL     1      31.432 -25.400 -13.574  0.00  0.00    +0.116 C 
ENDROOT
BRANCH   3   6
ATOM      5  C   UNL     1      32.483 -23.455 -17.658  0.00  0.00    +0.006 C 
ATOM      6  C   UNL     1      31.589 -23.199 -16.674  0.00  0.00    +0.058 C 
BRANCH   5  16
ATOM      7  O   UNL     1      36.091 -18.543 -22.370  0.00  0.00    -0.275 OA
ATOM      8  N   UNL     1      34.385 -19.624 -21.276  0.00  0.00    -0.270 N 
ATOM      9  N   UNL     1      32.587 -20.760 -20.240  0.00  0.00    -0.229 NA
ATOM     10  C   UNL     1      36.318 -21.021 -19.746  0.00  0.00    +0.039 C 
ATOM     11  C   UNL     1      34.857 -21.331 -19.636  0.00  0.00    +0.010 C 
ATOM     12  C   UNL     1      36.661 -20.521 -21.141  0.00  0.00    +0.090 C 
ATOM     13  C   UNL     1      33.925 -20.601 -20.371  0.00  0.00    +0.130 C 
ATOM     14  C   UNL     1      34.378 -22.277 -18.728  0.00  0.00    +0.000 C 
ATOM     15  C   UNL     1      35.708 -19.449 -21.629  0.00  0.00    +0.227 C 
ATOM     16  C   UNL     1      33.009 -22.474 -18.591  0.00  0.00    +0.019 C 
ATOM     17  C   UNL     1      32.164 -21.696 -19.361  0.00  0.00    +0.100 C 
ATOM     18  H   UNL     1      33.718 -19.026 -21.684  0.00  0.00    +0.156 HD
ENDBRANCH   5  16
ENDBRANCH   3   6
BRANCH   2  19
ATOM     19  C   UNL     1      32.837 -23.431 -14.068  0.00  0.00    +0.158 C 
BRANCH  19  21
ATOM     20  O   UNL     1      34.628 -24.725 -15.006  0.00  0.00    -0.456 OA
ATOM     21  C   UNL     1      34.154 -24.131 -13.895  0.00  0.00    +0.139 A 
ATOM     22  C   UNL     1      34.972 -24.286 -12.827  0.00  0.00    +0.013 A 
ATOM     23  C   UNL     1      36.072 -25.050 -13.299  0.00  0.00    +0.033 A 
ATOM     24  C   UNL     1      35.812 -25.294 -14.644  0.00  0.00    +0.145 A 
ATOM     25  C   UNL     1      34.772 -23.773 -11.457  0.00  0.00    +0.034 C 
ATOM     26  C   UNL     1      37.255 -25.561 -12.740  0.00  0.00    +0.003 C 
ATOM     27  C   UNL     1      36.656 -26.018 -15.484  0.00  0.00    +0.037 C 
ATOM     28  C   UNL     1      38.124 -26.294 -13.559  0.00  0.00    +0.000 C 
ATOM     29  C   UNL     1      37.827 -26.518 -14.906  0.00  0.00    +0.003 C 
ENDBRANCH  19  21
ENDBRANCH   2  19
TORSDOF 4
ENDMDL
