MODEL 1
REMARK VINA RESULT:     -12.3      0.000      0.000
REMARK  Name = 24752833
REMARK  4 active torsions:
REMARK  status: ('A' for Active; 'I' for Inactive)
REMARK    1  A    between atoms: C_1  and  N_8
REMARK    2  A    between atoms: C_2  and  N_23
REMARK    3  A    between atoms: C_9  and  C_14
REMARK    4  A    between atoms: C_24  and  C_28
REMARK                            x       y       z     vdW  Elec       q    Type
REMARK                         _______ _______ _______ _____ _____    ______ ____
ROOT
ATOM      1  C   UNL     1      31.274 -23.391 -15.440  0.00  0.00    +0.090 C 
ATOM      2  C   UNL     1      30.841 -23.506 -16.912  0.00  0.00    +0.090 C 
ATOM      3  C   UNL     1      30.359 -24.209 -14.523  0.00  0.00    +0.021 C 
ATOM      4  C   UNL     1      29.358 -23.165 -17.092  0.00  0.00    +0.021 C 
ATOM      5  C   UNL     1      28.888 -23.851 -14.714  0.00  0.00    +0.002 C 
ATOM      6  C   UNL     1      28.467 -23.994 -16.173  0.00  0.00    +0.002 C 
ENDROOT
BRANCH   1   8
ATOM      7  O   UNL     1      32.680 -23.674 -12.952  0.00  0.00    -0.267 OA
ATOM      8  N   UNL     1      32.647 -23.815 -15.266  0.00  0.00    -0.298 N 
ATOM      9  C   UNL     1      33.238 -23.921 -14.018  0.00  0.00    +0.282 C 
ATOM     10  H   UNL     1      33.180 -24.036 -16.064  0.00  0.00    +0.150 HD
BRANCH   9  14
ATOM     11  S   UNL     1      35.322 -25.205 -15.347  0.00  0.00    -0.074 S 
ATOM     12  N   UNL     1      39.039 -26.086 -13.969  0.00  0.00    +0.387 N 
ATOM     13  N   UNL     1      35.480 -24.095 -13.007  0.00  0.00    -0.399 NA
ATOM     14  C   UNL     1      34.662 -24.345 -14.010  0.00  0.00    +0.210 C 
ATOM     15  C   UNL     1      36.716 -24.617 -13.317  0.00  0.00    +0.093 C 
ATOM     16  C   UNL     1      36.812 -25.256 -14.534  0.00  0.00    +0.082 C 
ATOM     17  C   UNL     1      37.876 -24.529 -12.390  0.00  0.00    +0.032 C 
ATOM     18  C   UNL     1      38.065 -25.868 -15.066  0.00  0.00    -0.059 C 
ATOM     19  C   UNL     1      39.191 -24.881 -13.124  0.00  0.00    -0.070 C 
ATOM     20  C   UNL     1      40.330 -26.502 -14.514  0.00  0.00    -0.101 C 
ATOM     21  H   UNL     1      38.676 -26.831 -13.373  0.00  0.00    -0.080 HD
ENDBRANCH   9  14
ENDBRANCH   1   8
BRANCH   2  23
ATOM     22  O   UNL     1      33.262 -24.232 -18.274  0.00  0.00    -0.269 OA
ATOM     23  N   UNL     1      31.646 -22.653 -17.759  0.00  0.00    -0.300 N 
ATOM     24  C   UNL     1      32.803 -23.097 -18.374  0.00  0.00    +0.259 C 
ATOM     25  H   UNL     1      31.359 -21.722 -17.903  0.00  0.00    +0.150 HD
BRANCH  24  28
ATOM     26 CL   UNL     1      35.596 -17.550 -22.966  0.00  0.00    -0.082 Cl
ATOM     27  N   UNL     1      34.892 -21.955 -19.193  0.00  0.00    -0.309 N 
ATOM     28  C   UNL     1      33.530 -22.091 -19.191  0.00  0.00    +0.102 C 
ATOM     29  C   UNL     1      33.008 -21.153 -20.051  0.00  0.00    +0.020 C 
ATOM     30  C   UNL     1      35.266 -20.940 -20.045  0.00  0.00    +0.048 C 
ATOM     31  C   UNL     1      34.096 -20.417 -20.600  0.00  0.00    +0.016 C 
ATOM     32  C   UNL     1      36.537 -20.450 -20.363  0.00  0.00    +0.015 C 
ATOM     33  C   UNL     1      34.197 -19.352 -21.517  0.00  0.00    +0.013 C 
ATOM     34  C   UNL     1      35.463 -18.852 -21.846  0.00  0.00    +0.058 C 
ATOM     35  C   UNL     1      36.613 -19.393 -21.276  0.00  0.00    +0.013 C 
ATOM     36  H   UNL     1      35.514 -22.504 -18.664  0.00  0.00    +0.152 HD
ENDBRANCH  24  28
ENDBRANCH   2  23
TORSDOF 4
ENDMDL
MODEL 2
REMARK VINA RESULT:     -11.4      3.004      7.522
REMARK  Name = 24752833
REMARK  4 active torsions:
REMARK  status: ('A' for Active; 'I' for Inactive)
REMARK    1  A    between atoms: C_1  and  N_8
REMARK    2  A    between atoms: C_2  and  N_23
REMARK    3  A    between atoms: C_9  and  C_14
REMARK    4  A    between atoms: C_24  and  C_28
REMARK                            x       y       z     vdW  Elec       q    Type
REMARK                         _______ _______ _______ _____ _____    ______ ____
ROOT
ATOM      1  C   UNL     1      31.187 -23.455 -16.805  0.00  0.00    +0.090 C 
ATOM      2  C   UNL     1      31.743 -23.358 -15.373  0.00  0.00    +0.090 C 
ATOM      3  C   UNL     1      29.694 -23.112 -16.849  0.00  0.00    +0.021 C 
ATOM      4  C   UNL     1      30.911 -24.186 -14.388  0.00  0.00    +0.021 C 
ATOM      5  C   UNL     1      28.885 -23.950 -15.865  0.00  0.00    +0.002 C 
ATOM      6  C   UNL     1      29.430 -23.824 -14.447  0.00  0.00    +0.002 C 
ENDROOT
BRANCH   1   8
ATOM      7  O   UNL     1      33.478 -24.161 -18.385  0.00  0.00    -0.267 OA
ATOM      8  N   UNL     1      31.916 -22.589 -17.707  0.00  0.00    -0.298 N 
ATOM      9  C   UNL     1      33.015 -23.026 -18.429  0.00  0.00    +0.282 C 
ATOM     10  H   UNL     1      31.619 -21.655 -17.812  0.00  0.00    +0.150 HD
BRANCH   9  14
ATOM     11  S   UNL     1      32.719 -20.964 -20.279  0.00  0.00    -0.074 S 
ATOM     12  N   UNL     1      35.601 -19.000 -22.360  0.00  0.00    +0.387 N 
ATOM     13  N   UNL     1      34.975 -21.849 -19.352  0.00  0.00    -0.399 NA
ATOM     14  C   UNL     1      33.668 -22.008 -19.292  0.00  0.00    +0.210 C 
ATOM     15  C   UNL     1      35.247 -20.830 -20.237  0.00  0.00    +0.093 C 
ATOM     16  C   UNL     1      34.153 -20.244 -20.835  0.00  0.00    +0.082 C 
ATOM     17  C   UNL     1      36.634 -20.401 -20.559  0.00  0.00    +0.032 C 
ATOM     18  C   UNL     1      34.230 -19.112 -21.804  0.00  0.00    -0.059 C 
ATOM     19  C   UNL     1      36.629 -19.040 -21.295  0.00  0.00    -0.070 C 
ATOM     20  C   UNL     1      35.727 -17.780 -23.155  0.00  0.00    -0.101 C 
ATOM     21  H   UNL     1      35.759 -19.807 -22.964  0.00  0.00    -0.080 HD
ENDBRANCH   9  14
ENDBRANCH   1   8
BRANCH   2  23
ATOM     22  O   UNL     1      33.326 -23.770 -13.014  0.00  0.00    -0.269 OA
ATOM     23  N   UNL     1      33.125 -23.779 -15.323  0.00  0.00    -0.300 N 
ATOM     24  C   UNL     1      33.806 -23.951 -14.130  0.00  0.00    +0.259 C 
ATOM     25  H   UNL     1      33.599 -23.951 -16.169  0.00  0.00    +0.150 HD
BRANCH  24  28
ATOM     26 CL   UNL     1      40.985 -26.793 -13.946  0.00  0.00    -0.082 Cl
ATOM     27  N   UNL     1      36.102 -23.823 -15.154  0.00  0.00    -0.309 N 
ATOM     28  C   UNL     1      35.229 -24.363 -14.249  0.00  0.00    +0.102 C 
ATOM     29  C   UNL     1      35.906 -25.312 -13.520  0.00  0.00    +0.020 C 
ATOM     30  C   UNL     1      37.342 -24.407 -15.024  0.00  0.00    +0.048 C 
ATOM     31  C   UNL     1      37.246 -25.351 -13.999  0.00  0.00    +0.016 C 
ATOM     32  C   UNL     1      38.528 -24.176 -15.729  0.00  0.00    +0.015 C 
ATOM     33  C   UNL     1      38.389 -26.102 -13.659  0.00  0.00    +0.013 C 
ATOM     34  C   UNL     1      39.583 -25.880 -14.354  0.00  0.00    +0.058 C 
ATOM     35  C   UNL     1      39.650 -24.932 -15.374  0.00  0.00    +0.013 C 
ATOM     36  H   UNL     1      35.877 -23.119 -15.803  0.00  0.00    +0.152 HD
ENDBRANCH  24  28
ENDBRANCH   2  23
TORSDOF 4
ENDMDL
MODEL 3
REMARK VINA RESULT:     -11.3      1.025      1.635
REMARK  Name = 24752833
REMARK  4 active torsions:
REMARK  status: ('A' for Active; 'I' for Inactive)
REMARK    1  A    between atoms: C_1  and  N_8
REMARK    2  A    between atoms: C_2  and  N_23
REMARK    3  A    between atoms: C_9  and  C_14
REMARK    4  A    between atoms: C_24  and  C_28
REMARK                            x       y       z     vdW  Elec       q    Type
REMARK                         _______ _______ _______ _____ _____    ______ ____
ROOT
ATOM      1  C   UNL     1      31.171 -23.321 -15.421  0.00  0.00    +0.090 C 
ATOM      2  C   UNL     1      30.668 -23.385 -16.875  0.00  0.00    +0.090 C 
ATOM      3  C   UNL     1      30.233 -24.074 -14.472  0.00  0.00    +0.021 C 
ATOM      4  C   UNL     1      29.210 -22.928 -16.988  0.00  0.00    +0.021 C 
ATOM      5  C   UNL     1      28.789 -23.600 -14.598  0.00  0.00    +0.002 C 
ATOM      6  C   UNL     1      28.296 -23.695 -16.037  0.00  0.00    +0.002 C 
ENDROOT
BRANCH   1   8
ATOM      7  O   UNL     1      32.794 -23.398 -13.054  0.00  0.00    -0.267 OA
ATOM      8  N   UNL     1      32.512 -23.852 -15.310  0.00  0.00    -0.298 N 
ATOM      9  C   UNL     1      33.216 -23.844 -14.117  0.00  0.00    +0.282 C 
ATOM     10  H   UNL     1      32.939 -24.234 -16.111  0.00  0.00    +0.150 HD
BRANCH   9  14
ATOM     11  S   UNL     1      35.853 -23.713 -13.224  0.00  0.00    -0.074 S 
ATOM     12  N   UNL     1      39.071 -25.816 -14.531  0.00  0.00    +0.387 N 
ATOM     13  N   UNL     1      34.918 -25.431 -14.931  0.00  0.00    -0.399 NA
ATOM     14  C   UNL     1      34.592 -24.404 -14.173  0.00  0.00    +0.210 C 
ATOM     15  C   UNL     1      36.257 -25.695 -14.749  0.00  0.00    +0.093 C 
ATOM     16  C   UNL     1      36.920 -24.865 -13.871  0.00  0.00    +0.082 C 
ATOM     17  C   UNL     1      36.963 -26.785 -15.473  0.00  0.00    +0.032 C 
ATOM     18  C   UNL     1      38.365 -24.995 -13.518  0.00  0.00    -0.059 C 
ATOM     19  C   UNL     1      38.340 -27.069 -14.829  0.00  0.00    -0.070 C 
ATOM     20  C   UNL     1      40.434 -26.106 -14.088  0.00  0.00    -0.101 C 
ATOM     21  H   UNL     1      39.113 -25.277 -15.397  0.00  0.00    -0.080 HD
ENDBRANCH   9  14
ENDBRANCH   1   8
BRANCH   2  23
ATOM     22  O   UNL     1      33.131 -24.197 -18.105  0.00  0.00    -0.269 OA
ATOM     23  N   UNL     1      31.501 -22.589 -17.748  0.00  0.00    -0.300 N 
ATOM     24  C   UNL     1      32.677 -23.072 -18.295  0.00  0.00    +0.259 C 
ATOM     25  H   UNL     1      31.220 -21.670 -17.963  0.00  0.00    +0.150 HD
BRANCH  24  28
ATOM     26 CL   UNL     1      37.493 -18.544 -22.291  0.00  0.00    -0.082 Cl
ATOM     27  N   UNL     1      32.838 -21.254 -20.030  0.00  0.00    -0.309 N 
ATOM     28  C   UNL     1      33.431 -22.120 -19.152  0.00  0.00    +0.102 C 
ATOM     29  C   UNL     1      34.793 -21.935 -19.229  0.00  0.00    +0.020 C 
ATOM     30  C   UNL     1      33.794 -20.505 -20.678  0.00  0.00    +0.048 C 
ATOM     31  C   UNL     1      35.037 -20.916 -20.191  0.00  0.00    +0.016 C 
ATOM     32  C   UNL     1      33.656 -19.508 -21.649  0.00  0.00    +0.015 C 
ATOM     33  C   UNL     1      36.200 -20.301 -20.696  0.00  0.00    +0.013 C 
ATOM     34  C   UNL     1      36.077 -19.301 -21.667  0.00  0.00    +0.058 C 
ATOM     35  C   UNL     1      34.823 -18.912 -22.136  0.00  0.00    +0.013 C 
ATOM     36  H   UNL     1      31.868 -21.177 -20.176  0.00  0.00    +0.152 HD
ENDBRANCH  24  28
ENDBRANCH   2  23
TORSDOF 4
ENDMDL
MODEL 4
REMARK VINA RESULT:      -9.6      3.064      8.189
REMARK  Name = 24752833
REMARK  4 active torsions:
REMARK  status: ('A' for Active; 'I' for Inactive)
REMARK    1  A    between atoms: C_1  and  N_8
REMARK    2  A    between atoms: C_2  and  N_23
REMARK    3  A    between atoms: C_9  and  C_14
REMARK    4  A    between atoms: C_24  and  C_28
REMARK                            x       y       z     vdW  Elec       q    Type
REMARK                         _______ _______ _______ _____ _____    ______ ____
ROOT
ATOM      1  C   UNL     1      37.405 -24.043 -15.409  0.00  0.00    +0.090 C 
ATOM      2  C   UNL     1      36.622 -25.368 -15.417  0.00  0.00    +0.090 C 
ATOM      3  C   UNL     1      38.908 -24.284 -15.238  0.00  0.00    +0.021 C 
ATOM      4  C   UNL     1      36.953 -26.227 -14.193  0.00  0.00    +0.021 C 
ATOM      5  C   UNL     1      39.217 -25.137 -14.012  0.00  0.00    +0.002 C 
ATOM      6  C   UNL     1      38.454 -26.457 -14.047  0.00  0.00    +0.002 C 
ENDROOT
BRANCH   1   8
ATOM      7  O   UNL     1      35.371 -22.056 -15.812  0.00  0.00    -0.267 OA
ATOM      8  N   UNL     1      37.163 -23.287 -16.618  0.00  0.00    -0.298 N 
ATOM      9  C   UNL     1      36.152 -22.344 -16.715  0.00  0.00    +0.282 C 
ATOM     10  H   UNL     1      37.739 -23.447 -17.401  0.00  0.00    +0.150 HD
BRANCH   9  14
ATOM     11  S   UNL     1      34.668 -22.005 -19.048  0.00  0.00    -0.074 S 
ATOM     12  N   UNL     1      35.650 -19.916 -22.388  0.00  0.00    +0.387 N 
ATOM     13  N   UNL     1      36.900 -20.805 -18.489  0.00  0.00    -0.399 NA
ATOM     14  C   UNL     1      36.018 -21.671 -18.033  0.00  0.00    +0.210 C 
ATOM     15  C   UNL     1      36.480 -20.371 -19.727  0.00  0.00    +0.093 C 
ATOM     16  C   UNL     1      35.302 -20.918 -20.188  0.00  0.00    +0.082 C 
ATOM     17  C   UNL     1      37.257 -19.397 -20.539  0.00  0.00    +0.032 C 
ATOM     18  C   UNL     1      34.664 -20.566 -21.491  0.00  0.00    -0.059 C 
ATOM     19  C   UNL     1      36.396 -18.840 -21.697  0.00  0.00    -0.070 C 
ATOM     20  C   UNL     1      34.984 -19.398 -23.582  0.00  0.00    -0.101 C 
ATOM     21  H   UNL     1      36.330 -20.623 -22.670  0.00  0.00    -0.080 HD
ENDBRANCH   9  14
ENDBRANCH   1   8
BRANCH   2  23
ATOM     22  O   UNL     1      34.971 -24.306 -13.321  0.00  0.00    -0.269 OA
ATOM     23  N   UNL     1      35.197 -25.128 -15.477  0.00  0.00    -0.300 N 
ATOM     24  C   UNL     1      34.485 -24.611 -14.407  0.00  0.00    +0.259 C 
ATOM     25  H   UNL     1      34.715 -25.341 -16.309  0.00  0.00    +0.150 HD
BRANCH  24  28
ATOM     26 CL   UNL     1      27.125 -22.748 -15.823  0.00  0.00    -0.082 Cl
ATOM     27  N   UNL     1      32.109 -25.442 -14.399  0.00  0.00    -0.309 N 
ATOM     28  C   UNL     1      33.024 -24.448 -14.620  0.00  0.00    +0.102 C 
ATOM     29  C   UNL     1      32.344 -23.335 -15.056  0.00  0.00    +0.020 C 
ATOM     30  C   UNL     1      30.840 -24.991 -14.684  0.00  0.00    +0.048 C 
ATOM     31  C   UNL     1      30.960 -23.663 -15.102  0.00  0.00    +0.016 C 
ATOM     32  C   UNL     1      29.608 -25.650 -14.608  0.00  0.00    +0.015 C 
ATOM     33  C   UNL     1      29.794 -22.957 -15.460  0.00  0.00    +0.013 C 
ATOM     34  C   UNL     1      28.555 -23.603 -15.387  0.00  0.00    +0.058 C 
ATOM     35  C   UNL     1      28.465 -24.930 -14.967  0.00  0.00    +0.013 C 
ATOM     36  H   UNL     1      32.327 -26.347 -14.081  0.00  0.00    +0.152 HD
ENDBRANCH  24  28
ENDBRANCH   2  23
TORSDOF 4
ENDMDL
MODEL 5
REMARK VINA RESULT:      -9.4      2.085      6.237
REMARK  Name = 24752833
REMARK  4 active torsions:
REMARK  status: ('A' for Active; 'I' for Inactive)
REMARK    1  A    between atoms: C_1  and  N_8
REMARK    2  A    between atoms: C_2  and  N_23
REMARK    3  A    between atoms: C_9  and  C_14
REMARK    4  A    between atoms: C_24  and  C_28
REMARK                            x       y       z     vdW  Elec       q    Type
REMARK                         _______ _______ _______ _____ _____    ______ ____
ROOT
ATOM      1  C   UNL     1      36.783 -25.387 -15.451  0.00  0.00    +0.090 C 
ATOM      2  C   UNL     1      37.560 -24.060 -15.385  0.00  0.00    +0.090 C 
ATOM      3  C   UNL     1      37.075 -26.266 -14.230  0.00  0.00    +0.021 C 
ATOM      4  C   UNL     1      39.057 -24.294 -15.163  0.00  0.00    +0.021 C 
ATOM      5  C   UNL     1      38.571 -26.490 -14.030  0.00  0.00    +0.002 C 
ATOM      6  C   UNL     1      39.323 -25.167 -13.941  0.00  0.00    +0.002 C 
ENDROOT
BRANCH   1   8
ATOM      7  O   UNL     1      35.063 -24.325 -13.411  0.00  0.00    -0.267 OA
ATOM      8  N   UNL     1      35.359 -25.153 -15.557  0.00  0.00    -0.298 N 
ATOM      9  C   UNL     1      34.613 -24.634 -14.511  0.00  0.00    +0.282 C 
ATOM     10  H   UNL     1      34.904 -25.369 -16.403  0.00  0.00    +0.150 HD
BRANCH   9  14
ATOM     11  S   UNL     1      32.601 -23.365 -15.961  0.00  0.00    -0.074 S 
ATOM     12  N   UNL     1      28.581 -23.585 -15.434  0.00  0.00    +0.387 N 
ATOM     13  N   UNL     1      32.236 -25.156 -14.119  0.00  0.00    -0.399 NA
ATOM     14  C   UNL     1      33.158 -24.476 -14.769  0.00  0.00    +0.210 C 
ATOM     15  C   UNL     1      31.001 -24.777 -14.597  0.00  0.00    +0.093 C 
ATOM     16  C   UNL     1      31.007 -23.818 -15.586  0.00  0.00    +0.082 C 
ATOM     17  C   UNL     1      29.731 -25.339 -14.065  0.00  0.00    +0.032 C 
ATOM     18  C   UNL     1      29.781 -23.288 -16.252  0.00  0.00    -0.059 C 
ATOM     19  C   UNL     1      28.548 -25.001 -15.002  0.00  0.00    -0.070 C 
ATOM     20  C   UNL     1      27.366 -23.242 -16.172  0.00  0.00    -0.101 C 
ATOM     21  H   UNL     1      28.627 -23.013 -14.590  0.00  0.00    -0.080 HD
ENDBRANCH   9  14
ENDBRANCH   1   8
BRANCH   2  23
ATOM     22  O   UNL     1      35.677 -21.923 -15.748  0.00  0.00    -0.269 OA
ATOM     23  N   UNL     1      37.358 -23.280 -16.586  0.00  0.00    -0.300 N 
ATOM     24  C   UNL     1      36.420 -22.265 -16.664  0.00  0.00    +0.259 C 
ATOM     25  H   UNL     1      37.909 -23.478 -17.378  0.00  0.00    +0.150 HD
BRANCH  24  28
ATOM     26 CL   UNL     1      35.049 -19.347 -23.682  0.00  0.00    -0.082 Cl
ATOM     27  N   UNL     1      37.149 -20.560 -18.367  0.00  0.00    -0.309 N 
ATOM     28  C   UNL     1      36.319 -21.576 -17.976  0.00  0.00    +0.102 C 
ATOM     29  C   UNL     1      35.423 -21.808 -18.994  0.00  0.00    +0.020 C 
ATOM     30  C   UNL     1      36.807 -20.126 -19.628  0.00  0.00    +0.048 C 
ATOM     31  C   UNL     1      35.720 -20.898 -20.048  0.00  0.00    +0.016 C 
ATOM     32  C   UNL     1      37.369 -19.120 -20.421  0.00  0.00    +0.015 C 
ATOM     33  C   UNL     1      35.166 -20.654 -21.320  0.00  0.00    +0.013 C 
ATOM     34  C   UNL     1      35.719 -19.652 -22.125  0.00  0.00    +0.058 C 
ATOM     35  C   UNL     1      36.803 -18.897 -21.681  0.00  0.00    +0.013 C 
ATOM     36  H   UNL     1      37.884 -20.193 -17.826  0.00  0.00    +0.152 HD
ENDBRANCH  24  28
ENDBRANCH   2  23
TORSDOF 4
ENDMDL
