MODEL 1
REMARK VINA RESULT:     -12.0      0.000      0.000
REMARK  Name = 6102777
REMARK  2 active torsions:
REMARK  status: ('A' for Active; 'I' for Inactive)
REMARK    1  A    between atoms: C_4  and  S_16
REMARK    2  A    between atoms: S_16  and  N_19
REMARK                            x       y       z     vdW  Elec       q    Type
REMARK                         _______ _______ _______ _____ _____    ______ ____
ROOT
ATOM      1  O   UNL     1      33.665 -23.224 -16.905  0.00  0.00    -0.453 OA
ATOM      2  O   UNL     1      37.593 -22.088 -16.734  0.00  0.00    -0.286 OA
ATOM      3  C   UNL     1      35.770 -23.133 -15.670  0.00  0.00    +0.075 A 
ATOM      4  C   UNL     1      35.839 -24.109 -13.464  0.00  0.00    +0.126 C 
ATOM      5  C   UNL     1      34.427 -23.491 -15.795  0.00  0.00    +0.148 A 
ATOM      6  C   UNL     1      36.481 -23.440 -14.507  0.00  0.00    +0.026 C 
ATOM      7  C   UNL     1      35.586 -22.153 -17.966  0.00  0.00    +0.074 A 
ATOM      8  C   UNL     1      36.420 -22.429 -16.786  0.00  0.00    +0.201 A 
ATOM      9  C   UNL     1      34.255 -22.567 -17.958  0.00  0.00    +0.148 A 
ATOM     10  C   UNL     1      34.497 -24.468 -13.584  0.00  0.00    +0.023 C 
ATOM     11  C   UNL     1      33.791 -24.160 -14.747  0.00  0.00    +0.039 C 
ATOM     12  C   UNL     1      36.116 -21.489 -19.075  0.00  0.00    +0.006 C 
ATOM     13  C   UNL     1      33.445 -22.316 -19.067  0.00  0.00    +0.038 C 
ATOM     14  C   UNL     1      35.302 -21.241 -20.181  0.00  0.00    +0.000 C 
ATOM     15  C   UNL     1      33.970 -21.653 -20.178  0.00  0.00    +0.003 C 
ENDROOT
BRANCH   4  16
ATOM     16  S   UNL     1      36.718 -24.497 -12.006  0.00  0.00    +0.081 S 
ATOM     17  O   UNL     1      36.488 -23.431 -11.039  0.00  0.00    -0.149 OA
ATOM     18  O   UNL     1      36.409 -25.874 -11.643  0.00  0.00    -0.149 OA
BRANCH  16  19
ATOM     19  N   UNL     1      38.333 -24.413 -12.556  0.00  0.00    -0.156 N 
ATOM     20  N   UNL     1      40.186 -25.180 -13.884  0.00  0.00    -0.094 NA
ATOM     21  N   UNL     1      38.236 -26.320 -14.055  0.00  0.00    -0.071 NA
ATOM     22  N   UNL     1      40.230 -26.215 -14.736  0.00  0.00    -0.139 N 
ATOM     23  N   UNL     1      39.098 -26.919 -14.868  0.00  0.00    -0.020 NA
ATOM     24  C   UNL     1      38.923 -25.294 -13.492  0.00  0.00    +0.145 C 
ATOM     25  H   UNL     1      38.898 -23.692 -12.192  0.00  0.00    +0.186 HD
ATOM     26  H   UNL     1      41.048 -26.444 -15.235  0.00  0.00    +0.197 HD
ENDBRANCH  16  19
ENDBRANCH   4  16
TORSDOF 2
ENDMDL
MODEL 2
REMARK VINA RESULT:     -12.0      2.737      4.073
REMARK  Name = 6102777
REMARK  2 active torsions:
REMARK  status: ('A' for Active; 'I' for Inactive)
REMARK    1  A    between atoms: C_4  and  S_16
REMARK    2  A    between atoms: S_16  and  N_19
REMARK                            x       y       z     vdW  Elec       q    Type
REMARK                         _______ _______ _______ _____ _____    ______ ____
ROOT
ATOM      1  O   UNL     1      36.532 -20.872 -19.309  0.00  0.00    -0.453 OA
ATOM      2  O   UNL     1      32.668 -22.208 -19.127  0.00  0.00    -0.286 OA
ATOM      3  C   UNL     1      34.823 -22.200 -18.177  0.00  0.00    +0.075 A 
ATOM      4  C   UNL     1      35.451 -23.403 -16.182  0.00  0.00    +0.126 C 
ATOM      5  C   UNL     1      36.122 -21.708 -18.300  0.00  0.00    +0.148 A 
ATOM      6  C   UNL     1      34.482 -23.048 -17.120  0.00  0.00    +0.026 C 
ATOM      7  C   UNL     1      34.279 -20.912 -20.253  0.00  0.00    +0.074 A 
ATOM      8  C   UNL     1      33.822 -21.808 -19.181  0.00  0.00    +0.201 A 
ATOM      9  C   UNL     1      35.610 -20.495 -20.256  0.00  0.00    +0.148 A 
ATOM     10  C   UNL     1      36.752 -22.914 -16.301  0.00  0.00    +0.023 C 
ATOM     11  C   UNL     1      37.088 -22.068 -17.358  0.00  0.00    +0.039 C 
ATOM     12  C   UNL     1      33.400 -20.485 -21.252  0.00  0.00    +0.006 C 
ATOM     13  C   UNL     1      36.067 -19.644 -21.264  0.00  0.00    +0.038 C 
ATOM     14  C   UNL     1      33.862 -19.635 -22.257  0.00  0.00    +0.000 C 
ATOM     15  C   UNL     1      35.192 -19.215 -22.264  0.00  0.00    +0.003 C 
ENDROOT
BRANCH   4  16
ATOM     16  S   UNL     1      35.036 -24.462 -14.857  0.00  0.00    +0.081 S 
ATOM     17  O   UNL     1      33.612 -24.314 -14.587  0.00  0.00    -0.149 OA
ATOM     18  O   UNL     1      35.578 -25.783 -15.147  0.00  0.00    -0.149 OA
BRANCH  16  19
ATOM     19  N   UNL     1      35.923 -23.762 -13.578  0.00  0.00    -0.156 N 
ATOM     20  N   UNL     1      36.523 -23.535 -11.258  0.00  0.00    -0.094 NA
ATOM     21  N   UNL     1      34.947 -25.075 -11.784  0.00  0.00    -0.071 NA
ATOM     22  N   UNL     1      36.044 -24.210 -10.203  0.00  0.00    -0.139 N 
ATOM     23  N   UNL     1      35.108 -25.131 -10.468  0.00  0.00    -0.020 NA
ATOM     24  C   UNL     1      35.805 -24.115 -12.213  0.00  0.00    +0.145 C 
ATOM     25  H   UNL     1      36.570 -23.055 -13.808  0.00  0.00    +0.186 HD
ATOM     26  H   UNL     1      36.362 -24.038  -9.287  0.00  0.00    +0.197 HD
ENDBRANCH  16  19
ENDBRANCH   4  16
TORSDOF 2
ENDMDL
MODEL 3
REMARK VINA RESULT:     -11.7      2.422      3.898
REMARK  Name = 6102777
REMARK  2 active torsions:
REMARK  status: ('A' for Active; 'I' for Inactive)
REMARK    1  A    between atoms: C_4  and  S_16
REMARK    2  A    between atoms: S_16  and  N_19
REMARK                            x       y       z     vdW  Elec       q    Type
REMARK                         _______ _______ _______ _____ _____    ______ ____
ROOT
ATOM      1  O   UNL     1      32.751 -22.963 -15.971  0.00  0.00    -0.453 OA
ATOM      2  O   UNL     1      31.387 -25.401 -12.981  0.00  0.00    -0.286 OA
ATOM      3  C   UNL     1      33.208 -24.275 -13.962  0.00  0.00    +0.075 A 
ATOM      4  C   UNL     1      35.472 -24.330 -13.127  0.00  0.00    +0.126 C 
ATOM      5  C   UNL     1      33.605 -23.442 -15.008  0.00  0.00    +0.148 A 
ATOM      6  C   UNL     1      34.137 -24.722 -13.019  0.00  0.00    +0.026 C 
ATOM      7  C   UNL     1      30.896 -24.148 -14.913  0.00  0.00    +0.074 A 
ATOM      8  C   UNL     1      31.795 -24.672 -13.873  0.00  0.00    +0.201 A 
ATOM      9  C   UNL     1      31.427 -23.323 -15.904  0.00  0.00    +0.148 A 
ATOM     10  C   UNL     1      35.874 -23.498 -14.172  0.00  0.00    +0.023 C 
ATOM     11  C   UNL     1      34.943 -23.054 -15.111  0.00  0.00    +0.039 C 
ATOM     12  C   UNL     1      29.537 -24.470 -14.911  0.00  0.00    +0.006 C 
ATOM     13  C   UNL     1      30.593 -22.814 -16.901  0.00  0.00    +0.038 C 
ATOM     14  C   UNL     1      28.708 -23.959 -15.911  0.00  0.00    +0.000 C 
ATOM     15  C   UNL     1      29.234 -23.133 -16.903  0.00  0.00    +0.003 C 
ENDROOT
BRANCH   4  16
ATOM     16  S   UNL     1      36.641 -24.883 -11.954  0.00  0.00    +0.081 S 
ATOM     17  O   UNL     1      36.466 -24.103 -10.736  0.00  0.00    -0.149 OA
ATOM     18  O   UNL     1      36.568 -26.337 -11.892  0.00  0.00    -0.149 OA
BRANCH  16  19
ATOM     19  N   UNL     1      38.107 -24.428 -12.703  0.00  0.00    -0.156 N 
ATOM     20  N   UNL     1      39.963 -24.808 -14.187  0.00  0.00    -0.094 NA
ATOM     21  N   UNL     1      38.400 -26.440 -14.030  0.00  0.00    -0.071 NA
ATOM     22  N   UNL     1      40.210 -25.878 -14.957  0.00  0.00    -0.139 N 
ATOM     23  N   UNL     1      39.311 -26.870 -14.894  0.00  0.00    -0.020 NA
ATOM     24  C   UNL     1      38.826 -25.214 -13.635  0.00  0.00    +0.145 C 
ATOM     25  H   UNL     1      38.482 -23.548 -12.468  0.00  0.00    +0.186 HD
ATOM     26  H   UNL     1      41.006 -25.932 -15.533  0.00  0.00    +0.197 HD
ENDBRANCH  16  19
ENDBRANCH   4  16
TORSDOF 2
ENDMDL
MODEL 4
REMARK VINA RESULT:     -11.4      2.870      3.563
REMARK  Name = 6102777
REMARK  2 active torsions:
REMARK  status: ('A' for Active; 'I' for Inactive)
REMARK    1  A    between atoms: C_4  and  S_16
REMARK    2  A    between atoms: S_16  and  N_19
REMARK                            x       y       z     vdW  Elec       q    Type
REMARK                         _______ _______ _______ _____ _____    ______ ____
ROOT
ATOM      1  O   UNL     1      32.646 -21.543 -19.462  0.00  0.00    -0.453 OA
ATOM      2  O   UNL     1      36.651 -21.834 -18.674  0.00  0.00    -0.286 OA
ATOM      3  C   UNL     1      34.449 -22.392 -18.050  0.00  0.00    +0.075 A 
ATOM      4  C   UNL     1      33.860 -23.730 -16.131  0.00  0.00    +0.126 C 
ATOM      5  C   UNL     1      33.101 -22.252 -18.377  0.00  0.00    +0.148 A 
ATOM      6  C   UNL     1      34.835 -23.130 -16.929  0.00  0.00    +0.026 C 
ATOM      7  C   UNL     1      34.948 -20.995 -20.067  0.00  0.00    +0.074 A 
ATOM      8  C   UNL     1      35.455 -21.748 -18.910  0.00  0.00    +0.201 A 
ATOM      9  C   UNL     1      33.570 -20.936 -20.276  0.00  0.00    +0.148 A 
ATOM     10  C   UNL     1      32.510 -23.592 -16.453  0.00  0.00    +0.023 C 
ATOM     11  C   UNL     1      32.130 -22.854 -17.574  0.00  0.00    +0.039 C 
ATOM     12  C   UNL     1      35.827 -20.350 -20.940  0.00  0.00    +0.006 C 
ATOM     13  C   UNL     1      33.067 -20.226 -21.368  0.00  0.00    +0.038 C 
ATOM     14  C   UNL     1      35.318 -19.642 -22.030  0.00  0.00    +0.000 C 
ATOM     15  C   UNL     1      33.941 -19.580 -22.244  0.00  0.00    +0.003 C 
ENDROOT
BRANCH   4  16
ATOM     16  S   UNL     1      34.331 -24.655 -14.726  0.00  0.00    +0.081 S 
ATOM     17  O   UNL     1      33.134 -24.926 -13.939  0.00  0.00    -0.149 OA
ATOM     18  O   UNL     1      35.163 -25.764 -15.172  0.00  0.00    -0.149 OA
BRANCH  16  19
ATOM     19  N   UNL     1      35.303 -23.526 -13.893  0.00  0.00    -0.156 N 
ATOM     20  N   UNL     1      36.568 -22.784 -11.985  0.00  0.00    -0.094 NA
ATOM     21  N   UNL     1      35.570 -24.812 -11.851  0.00  0.00    -0.071 NA
ATOM     22  N   UNL     1      36.773 -23.418 -10.821  0.00  0.00    -0.139 N 
ATOM     23  N   UNL     1      36.199 -24.623 -10.698  0.00  0.00    -0.020 NA
ATOM     24  C   UNL     1      35.815 -23.698 -12.585  0.00  0.00    +0.145 C 
ATOM     25  H   UNL     1      35.526 -22.688 -14.360  0.00  0.00    +0.186 HD
ATOM     26  H   UNL     1      37.313 -23.022 -10.100  0.00  0.00    +0.197 HD
ENDBRANCH  16  19
ENDBRANCH   4  16
TORSDOF 2
ENDMDL
MODEL 5
REMARK VINA RESULT:     -11.3      2.736      4.594
REMARK  Name = 6102777
REMARK  2 active torsions:
REMARK  status: ('A' for Active; 'I' for Inactive)
REMARK    1  A    between atoms: C_4  and  S_16
REMARK    2  A    between atoms: S_16  and  N_19
REMARK                            x       y       z     vdW  Elec       q    Type
REMARK                         _______ _______ _______ _____ _____    ______ ____
ROOT
ATOM      1  O   UNL     1      31.627 -23.316 -17.034  0.00  0.00    -0.453 OA
ATOM      2  O   UNL     1      32.566 -24.994 -13.421  0.00  0.00    -0.286 OA
ATOM      3  C   UNL     1      33.315 -23.897 -15.366  0.00  0.00    +0.075 A 
ATOM      4  C   UNL     1      35.612 -23.313 -15.819  0.00  0.00    +0.126 C 
ATOM      5  C   UNL     1      32.925 -23.342 -16.586  0.00  0.00    +0.148 A 
ATOM      6  C   UNL     1      34.657 -23.885 -14.978  0.00  0.00    +0.026 C 
ATOM      7  C   UNL     1      30.902 -24.453 -14.998  0.00  0.00    +0.074 A 
ATOM      8  C   UNL     1      32.286 -24.492 -14.500  0.00  0.00    +0.201 A 
ATOM      9  C   UNL     1      30.653 -23.867 -16.239  0.00  0.00    +0.148 A 
ATOM     10  C   UNL     1      35.228 -22.759 -17.040  0.00  0.00    +0.023 C 
ATOM     11  C   UNL     1      33.886 -22.773 -17.424  0.00  0.00    +0.039 C 
ATOM     12  C   UNL     1      29.857 -24.993 -14.245  0.00  0.00    +0.006 C 
ATOM     13  C   UNL     1      29.347 -23.820 -16.731  0.00  0.00    +0.038 C 
ATOM     14  C   UNL     1      28.554 -24.943 -14.742  0.00  0.00    +0.000 C 
ATOM     15  C   UNL     1      28.299 -24.358 -15.982  0.00  0.00    +0.003 C 
ENDROOT
BRANCH   4  16
ATOM     16  S   UNL     1      37.293 -23.293 -15.344  0.00  0.00    +0.081 S 
ATOM     17  O   UNL     1      38.061 -22.677 -16.418  0.00  0.00    -0.149 OA
ATOM     18  O   UNL     1      37.375 -22.746 -13.997  0.00  0.00    -0.149 OA
BRANCH  16  19
ATOM     19  N   UNL     1      37.645 -24.963 -15.292  0.00  0.00    -0.156 N 
ATOM     20  N   UNL     1      39.114 -26.832 -14.918  0.00  0.00    -0.094 NA
ATOM     21  N   UNL     1      39.965 -24.756 -14.607  0.00  0.00    -0.071 NA
ATOM     22  N   UNL     1      40.401 -26.819 -14.541  0.00  0.00    -0.139 N 
ATOM     23  N   UNL     1      40.946 -25.611 -14.346  0.00  0.00    -0.020 NA
ATOM     24  C   UNL     1      38.897 -25.523 -14.943  0.00  0.00    +0.145 C 
ATOM     25  H   UNL     1      36.919 -25.587 -15.523  0.00  0.00    +0.186 HD
ATOM     26  H   UNL     1      40.915 -27.650 -14.414  0.00  0.00    +0.197 HD
ENDBRANCH  16  19
ENDBRANCH   4  16
TORSDOF 2
ENDMDL
MODEL 6
REMARK VINA RESULT:     -11.2      1.813      3.345
REMARK  Name = 6102777
REMARK  2 active torsions:
REMARK  status: ('A' for Active; 'I' for Inactive)
REMARK    1  A    between atoms: C_4  and  S_16
REMARK    2  A    between atoms: S_16  and  N_19
REMARK                            x       y       z     vdW  Elec       q    Type
REMARK                         _______ _______ _______ _____ _____    ______ ____
ROOT
ATOM      1  O   UNL     1      36.522 -20.843 -19.288  0.00  0.00    -0.453 OA
ATOM      2  O   UNL     1      32.723 -22.331 -18.975  0.00  0.00    -0.286 OA
ATOM      3  C   UNL     1      34.904 -22.227 -18.091  0.00  0.00    +0.075 A 
ATOM      4  C   UNL     1      35.640 -23.383 -16.105  0.00  0.00    +0.126 C 
ATOM      5  C   UNL     1      36.178 -21.685 -18.258  0.00  0.00    +0.148 A 
ATOM      6  C   UNL     1      34.629 -23.076 -17.017  0.00  0.00    +0.026 C 
ATOM      7  C   UNL     1      34.246 -20.983 -20.162  0.00  0.00    +0.074 A 
ATOM      8  C   UNL     1      33.857 -21.886 -19.067  0.00  0.00    +0.201 A 
ATOM      9  C   UNL     1      35.558 -20.514 -20.209  0.00  0.00    +0.148 A 
ATOM     10  C   UNL     1      36.916 -22.844 -16.269  0.00  0.00    +0.023 C 
ATOM     11  C   UNL     1      37.186 -21.996 -17.343  0.00  0.00    +0.039 C 
ATOM     12  C   UNL     1      33.320 -20.602 -21.136  0.00  0.00    +0.006 C 
ATOM     13  C   UNL     1      35.949 -19.656 -21.238  0.00  0.00    +0.038 C 
ATOM     14  C   UNL     1      33.717 -19.745 -22.163  0.00  0.00    +0.000 C 
ATOM     15  C   UNL     1      35.028 -19.273 -22.215  0.00  0.00    +0.003 C 
ENDROOT
BRANCH   4  16
ATOM     16  S   UNL     1      35.308 -24.444 -14.759  0.00  0.00    +0.081 S 
ATOM     17  O   UNL     1      35.714 -23.765 -13.535  0.00  0.00    -0.149 OA
ATOM     18  O   UNL     1      33.941 -24.929 -14.891  0.00  0.00    -0.149 OA
BRANCH  16  19
ATOM     19  N   UNL     1      36.390 -25.728 -15.070  0.00  0.00    -0.156 N 
ATOM     20  N   UNL     1      38.545 -26.793 -14.944  0.00  0.00    -0.094 NA
ATOM     21  N   UNL     1      38.332 -24.749 -13.991  0.00  0.00    -0.071 NA
ATOM     22  N   UNL     1      39.669 -26.336 -14.374  0.00  0.00    -0.139 N 
ATOM     23  N   UNL     1      39.589 -25.128 -13.798  0.00  0.00    -0.020 NA
ATOM     24  C   UNL     1      37.749 -25.765 -14.675  0.00  0.00    +0.145 C 
ATOM     25  H   UNL     1      36.041 -26.506 -15.563  0.00  0.00    +0.186 HD
ATOM     26  H   UNL     1      40.504 -26.857 -14.379  0.00  0.00    +0.197 HD
ENDBRANCH  16  19
ENDBRANCH   4  16
TORSDOF 2
ENDMDL
MODEL 7
REMARK VINA RESULT:     -11.1     12.691     15.265
REMARK  Name = 6102777
REMARK  2 active torsions:
REMARK  status: ('A' for Active; 'I' for Inactive)
REMARK    1  A    between atoms: C_4  and  S_16
REMARK    2  A    between atoms: S_16  and  N_19
REMARK                            x       y       z     vdW  Elec       q    Type
REMARK                         _______ _______ _______ _____ _____    ______ ____
ROOT
ATOM      1  O   UNL     1      33.883 -16.153 -25.582  0.00  0.00    -0.453 OA
ATOM      2  O   UNL     1      34.824 -14.808 -21.833  0.00  0.00    -0.286 OA
ATOM      3  C   UNL     1      34.163 -14.286 -24.033  0.00  0.00    +0.075 A 
ATOM      4  C   UNL     1      33.749 -12.054 -24.851  0.00  0.00    +0.126 C 
ATOM      5  C   UNL     1      33.855 -14.812 -25.287  0.00  0.00    +0.148 A 
ATOM      6  C   UNL     1      34.111 -12.908 -23.809  0.00  0.00    +0.026 C 
ATOM      7  C   UNL     1      34.565 -16.642 -23.289  0.00  0.00    +0.074 A 
ATOM      8  C   UNL     1      34.542 -15.210 -22.953  0.00  0.00    +0.201 A 
ATOM      9  C   UNL     1      34.234 -17.031 -24.586  0.00  0.00    +0.148 A 
ATOM     10  C   UNL     1      33.441 -12.575 -26.108  0.00  0.00    +0.023 C 
ATOM     11  C   UNL     1      33.493 -13.952 -26.327  0.00  0.00    +0.039 C 
ATOM     12  C   UNL     1      34.912 -17.595 -22.328  0.00  0.00    +0.006 C 
ATOM     13  C   UNL     1      34.249 -18.385 -24.928  0.00  0.00    +0.038 C 
ATOM     14  C   UNL     1      34.926 -18.947 -22.675  0.00  0.00    +0.000 C 
ATOM     15  C   UNL     1      34.595 -19.341 -23.972  0.00  0.00    +0.003 C 
ENDROOT
BRANCH   4  16
ATOM     16  S   UNL     1      33.682 -10.329 -24.583  0.00  0.00    +0.081 S 
ATOM     17  O   UNL     1      35.000  -9.886 -24.148  0.00  0.00    -0.149 OA
ATOM     18  O   UNL     1      33.066  -9.713 -25.751  0.00  0.00    -0.149 OA
BRANCH  16  19
ATOM     19  N   UNL     1      32.599 -10.238 -23.266  0.00  0.00    -0.156 N 
ATOM     20  N   UNL     1      31.501  -9.068 -21.472  0.00  0.00    -0.094 NA
ATOM     21  N   UNL     1      32.987  -7.903 -22.723  0.00  0.00    -0.071 NA
ATOM     22  N   UNL     1      31.647  -7.789 -21.097  0.00  0.00    -0.139 N 
ATOM     23  N   UNL     1      32.518  -7.062 -21.811  0.00  0.00    -0.020 NA
ATOM     24  C   UNL     1      32.357  -9.082 -22.486  0.00  0.00    +0.145 C 
ATOM     25  H   UNL     1      32.102 -11.055 -23.030  0.00  0.00    +0.186 HD
ATOM     26  H   UNL     1      31.144  -7.407 -20.342  0.00  0.00    +0.197 HD
ENDBRANCH  16  19
ENDBRANCH   4  16
TORSDOF 2
ENDMDL
MODEL 8
REMARK VINA RESULT:     -11.1      2.982      4.433
REMARK  Name = 6102777
REMARK  2 active torsions:
REMARK  status: ('A' for Active; 'I' for Inactive)
REMARK    1  A    between atoms: C_4  and  S_16
REMARK    2  A    between atoms: S_16  and  N_19
REMARK                            x       y       z     vdW  Elec       q    Type
REMARK                         _______ _______ _______ _____ _____    ______ ____
ROOT
ATOM      1  O   UNL     1      30.976 -24.254 -14.290  0.00  0.00    -0.453 OA
ATOM      2  O   UNL     1      32.076 -22.562 -17.850  0.00  0.00    -0.286 OA
ATOM      3  C   UNL     1      32.745 -23.489 -15.791  0.00  0.00    +0.075 A 
ATOM      4  C   UNL     1      35.035 -23.733 -15.071  0.00  0.00    +0.126 C 
ATOM      5  C   UNL     1      32.300 -24.059 -14.598  0.00  0.00    +0.148 A 
ATOM      6  C   UNL     1      34.111 -23.324 -16.033  0.00  0.00    +0.026 C 
ATOM      7  C   UNL     1      30.335 -23.286 -16.439  0.00  0.00    +0.074 A 
ATOM      8  C   UNL     1      31.748 -23.068 -16.787  0.00  0.00    +0.201 A 
ATOM      9  C   UNL     1      30.031 -23.867 -15.208  0.00  0.00    +0.148 A 
ATOM     10  C   UNL     1      34.596 -24.302 -13.876  0.00  0.00    +0.023 C 
ATOM     11  C   UNL     1      33.230 -24.465 -13.639  0.00  0.00    +0.039 C 
ATOM     12  C   UNL     1      29.317 -22.919 -17.322  0.00  0.00    +0.006 C 
ATOM     13  C   UNL     1      28.697 -24.083 -14.856  0.00  0.00    +0.038 C 
ATOM     14  C   UNL     1      27.985 -23.137 -16.964  0.00  0.00    +0.000 C 
ATOM     15  C   UNL     1      27.676 -23.718 -15.735  0.00  0.00    +0.003 C 
ENDROOT
BRANCH   4  16
ATOM     16  S   UNL     1      36.745 -23.530 -15.363  0.00  0.00    +0.081 S 
ATOM     17  O   UNL     1      36.920 -23.071 -16.735  0.00  0.00    -0.149 OA
ATOM     18  O   UNL     1      37.301 -22.748 -14.268  0.00  0.00    -0.149 OA
BRANCH  16  19
ATOM     19  N   UNL     1      37.299 -25.141 -15.238  0.00  0.00    -0.156 N 
ATOM     20  N   UNL     1      39.012 -26.798 -14.910  0.00  0.00    -0.094 NA
ATOM     21  N   UNL     1      39.637 -24.621 -14.842  0.00  0.00    -0.071 NA
ATOM     22  N   UNL     1      40.321 -26.611 -14.685  0.00  0.00    -0.139 N 
ATOM     23  N   UNL     1      40.735 -25.337 -14.638  0.00  0.00    -0.020 NA
ATOM     24  C   UNL     1      38.639 -25.527 -14.998  0.00  0.00    +0.145 C 
ATOM     25  H   UNL     1      36.632 -25.858 -15.341  0.00  0.00    +0.186 HD
ATOM     26  H   UNL     1      40.941 -27.366 -14.563  0.00  0.00    +0.197 HD
ENDBRANCH  16  19
ENDBRANCH   4  16
TORSDOF 2
ENDMDL
MODEL 9
REMARK VINA RESULT:     -11.0      8.856     11.198
REMARK  Name = 6102777
REMARK  2 active torsions:
REMARK  status: ('A' for Active; 'I' for Inactive)
REMARK    1  A    between atoms: C_4  and  S_16
REMARK    2  A    between atoms: S_16  and  N_19
REMARK                            x       y       z     vdW  Elec       q    Type
REMARK                         _______ _______ _______ _____ _____    ______ ____
ROOT
ATOM      1  O   UNL     1      34.146 -13.290 -22.871  0.00  0.00    -0.453 OA
ATOM      2  O   UNL     1      33.919 -15.747 -26.135  0.00  0.00    -0.286 OA
ATOM      3  C   UNL     1      34.277 -15.538 -23.817  0.00  0.00    +0.075 A 
ATOM      4  C   UNL     1      34.760 -17.374 -22.328  0.00  0.00    +0.126 C 
ATOM      5  C   UNL     1      34.340 -14.644 -22.748  0.00  0.00    +0.148 A 
ATOM      6  C   UNL     1      34.486 -16.904 -23.612  0.00  0.00    +0.026 C 
ATOM      7  C   UNL     1      33.780 -13.561 -25.270  0.00  0.00    +0.074 A 
ATOM      8  C   UNL     1      33.986 -15.014 -25.160  0.00  0.00    +0.201 A 
ATOM      9  C   UNL     1      33.872 -12.782 -24.118  0.00  0.00    +0.148 A 
ATOM     10  C   UNL     1      34.826 -16.484 -21.256  0.00  0.00    +0.023 C 
ATOM     11  C   UNL     1      34.616 -15.120 -21.465  0.00  0.00    +0.039 C 
ATOM     12  C   UNL     1      33.498 -12.972 -26.505  0.00  0.00    +0.006 C 
ATOM     13  C   UNL     1      33.681 -11.401 -24.199  0.00  0.00    +0.038 C 
ATOM     14  C   UNL     1      33.308 -11.591 -26.580  0.00  0.00    +0.000 C 
ATOM     15  C   UNL     1      33.399 -10.808 -25.430  0.00  0.00    +0.003 C 
ENDROOT
BRANCH   4  16
ATOM     16  S   UNL     1      35.024 -19.080 -22.061  0.00  0.00    +0.081 S 
ATOM     17  O   UNL     1      35.135 -19.731 -23.360  0.00  0.00    -0.149 OA
ATOM     18  O   UNL     1      36.101 -19.225 -21.090  0.00  0.00    -0.149 OA
BRANCH  16  19
ATOM     19  N   UNL     1      33.549 -19.536 -21.332  0.00  0.00    -0.156 N 
ATOM     20  N   UNL     1      32.201 -20.945 -19.921  0.00  0.00    -0.094 NA
ATOM     21  N   UNL     1      34.400 -21.456 -20.115  0.00  0.00    -0.071 NA
ATOM     22  N   UNL     1      32.577 -22.019 -19.212  0.00  0.00    -0.139 N 
ATOM     23  N   UNL     1      33.871 -22.359 -19.298  0.00  0.00    -0.020 NA
ATOM     24  C   UNL     1      33.375 -20.637 -20.460  0.00  0.00    +0.145 C 
ATOM     25  H   UNL     1      32.755 -18.989 -21.534  0.00  0.00    +0.186 HD
ATOM     26  H   UNL     1      31.940 -22.529 -18.661  0.00  0.00    +0.197 HD
ENDBRANCH  16  19
ENDBRANCH   4  16
TORSDOF 2
ENDMDL
