MODEL 1
REMARK VINA RESULT:     -12.0      0.000      0.000
REMARK  Name = 25191001
REMARK  7 active torsions:
REMARK  status: ('A' for Active; 'I' for Inactive)
REMARK    1  A    between atoms: C_1  and  N_9
REMARK    2  A    between atoms: C_2  and  O_24
REMARK    3  A    between atoms: N_8  and  C_14
REMARK    4  A    between atoms: C_15  and  C_23
REMARK    5  A    between atoms: O_24  and  C_26
REMARK    6  A    between atoms: C_28  and  C_33
REMARK    7  A    between atoms: N_32  and  C_35
REMARK                            x       y       z     vdW  Elec       q    Type
REMARK                         _______ _______ _______ _____ _____    ______ ____
ROOT
ATOM      1  C   UNL     1      33.701 -13.996 -23.613  0.00  0.00    +0.052 C 
ATOM      2  C   UNL     1      34.483 -16.660 -23.894  0.00  0.00    +0.145 C 
ATOM      3  C   UNL     1      33.492 -14.662 -24.822  0.00  0.00    +0.018 C 
ATOM      4  C   UNL     1      34.302 -14.663 -22.546  0.00  0.00    +0.018 C 
ATOM      5  C   UNL     1      33.883 -15.993 -24.962  0.00  0.00    +0.039 C 
ATOM      6  C   UNL     1      34.693 -15.996 -22.685  0.00  0.00    +0.039 C 
ENDROOT
BRANCH   1   9
ATOM      7  O   UNL     1      34.756 -11.533 -24.932  0.00  0.00    -0.252 OA
ATOM      8  N   UNL     1      33.156 -10.352 -23.693  0.00  0.00    -0.268 N 
ATOM      9  N   UNL     1      33.306 -12.645 -23.472  0.00  0.00    -0.268 N 
ATOM     10  C   UNL     1      33.837 -11.518 -24.118  0.00  0.00    +0.308 C 
ATOM     11  H   UNL     1      32.438 -10.492 -23.034  0.00  0.00    +0.156 HD
ATOM     12  H   UNL     1      32.568 -12.475 -22.843  0.00  0.00    +0.156 HD
BRANCH   8  14
ATOM     13 CL   UNL     1      34.084  -4.753 -25.345  0.00  0.00    -0.082 Cl
ATOM     14  C   UNL     1      33.366  -9.029 -24.085  0.00  0.00    +0.052 C 
ATOM     15  C   UNL     1      32.499  -6.921 -24.884  0.00  0.00    +0.083 C 
ATOM     16  C   UNL     1      32.288  -8.243 -24.492  0.00  0.00    +0.019 C 
ATOM     17  C   UNL     1      34.654  -8.494 -24.070  0.00  0.00    +0.016 C 
ATOM     18  C   UNL     1      33.786  -6.384 -24.868  0.00  0.00    +0.062 C 
ATOM     19  C   UNL     1      34.864  -7.172 -24.461  0.00  0.00    +0.013 C 
BRANCH  15  23
ATOM     20  F   UNL     1      30.853  -5.270 -24.344  0.00  0.00    -0.166 F 
ATOM     21  F   UNL     1      31.568  -5.312 -26.390  0.00  0.00    -0.166 F 
ATOM     22  F   UNL     1      30.255  -6.887 -25.668  0.00  0.00    -0.166 F 
ATOM     23  C   UNL     1      31.317  -6.111 -25.312  0.00  0.00    +0.419 C 
ENDBRANCH  15  23
ENDBRANCH   8  14
ENDBRANCH   1   9
BRANCH   2  24
ATOM     24  O   UNL     1      34.867 -17.959 -24.031  0.00  0.00    -0.453 OA
BRANCH  24  26
ATOM     25  N   UNL     1      35.888 -20.062 -20.566  0.00  0.00    -0.239 NA
ATOM     26  C   UNL     1      35.204 -18.655 -22.883  0.00  0.00    +0.149 C 
ATOM     27  C   UNL     1      34.249 -19.420 -22.223  0.00  0.00    +0.061 C 
ATOM     28  C   UNL     1      34.637 -20.099 -21.079  0.00  0.00    +0.137 C 
ATOM     29  C   UNL     1      36.501 -18.593 -22.386  0.00  0.00    +0.058 C 
ATOM     30  C   UNL     1      36.790 -19.307 -21.234  0.00  0.00    +0.102 C 
BRANCH  28  33
ATOM     31  O   UNL     1      32.457 -20.742 -20.505  0.00  0.00    -0.269 OA
ATOM     32  N   UNL     1      34.199 -21.897 -19.499  0.00  0.00    -0.313 N 
ATOM     33  C   UNL     1      33.681 -20.913 -20.350  0.00  0.00    +0.263 C 
ATOM     34  H   UNL     1      35.177 -21.977 -19.423  0.00  0.00    +0.149 HD
ATOM     35  C   UNL     1      33.378 -22.799 -18.726  0.00  0.00    +0.128 C 
ENDBRANCH  28  33
ENDBRANCH  24  26
ENDBRANCH   2  24
TORSDOF 6
ENDMDL
MODEL 2
REMARK VINA RESULT:     -11.9      7.749     12.441
REMARK  Name = 25191001
REMARK  7 active torsions:
REMARK  status: ('A' for Active; 'I' for Inactive)
REMARK    1  A    between atoms: C_1  and  N_9
REMARK    2  A    between atoms: C_2  and  O_24
REMARK    3  A    between atoms: N_8  and  C_14
REMARK    4  A    between atoms: C_15  and  C_23
REMARK    5  A    between atoms: O_24  and  C_26
REMARK    6  A    between atoms: C_28  and  C_33
REMARK    7  A    between atoms: N_32  and  C_35
REMARK                            x       y       z     vdW  Elec       q    Type
REMARK                         _______ _______ _______ _____ _____    ______ ____
ROOT
ATOM      1  C   UNL     1      34.870 -18.706 -23.078  0.00  0.00    +0.052 C 
ATOM      2  C   UNL     1      34.139 -16.712 -24.888  0.00  0.00    +0.145 C 
ATOM      3  C   UNL     1      33.996 -18.999 -24.125  0.00  0.00    +0.018 C 
ATOM      4  C   UNL     1      35.378 -17.414 -22.936  0.00  0.00    +0.018 C 
ATOM      5  C   UNL     1      33.631 -18.003 -25.030  0.00  0.00    +0.039 C 
ATOM      6  C   UNL     1      35.013 -16.417 -23.841  0.00  0.00    +0.039 C 
ENDROOT
BRANCH   1   9
ATOM      7  O   UNL     1      33.432 -19.742 -20.674  0.00  0.00    -0.252 OA
ATOM      8  N   UNL     1      35.247 -21.195 -20.385  0.00  0.00    -0.268 N 
ATOM      9  N   UNL     1      35.239 -19.716 -22.159  0.00  0.00    -0.268 N 
ATOM     10  C   UNL     1      34.523 -20.168 -21.039  0.00  0.00    +0.308 C 
ATOM     11  H   UNL     1      36.110 -21.434 -20.793  0.00  0.00    +0.156 HD
ATOM     12  H   UNL     1      36.103 -20.156 -22.326  0.00  0.00    +0.156 HD
BRANCH   8  14
ATOM     13 CL   UNL     1      33.732 -24.242 -15.553  0.00  0.00    -0.082 Cl
ATOM     14  C   UNL     1      34.898 -21.913 -19.241  0.00  0.00    +0.052 C 
ATOM     15  C   UNL     1      35.475 -22.793 -17.067  0.00  0.00    +0.083 C 
ATOM     16  C   UNL     1      35.824 -22.076 -18.211  0.00  0.00    +0.019 C 
ATOM     17  C   UNL     1      33.623 -22.468 -19.128  0.00  0.00    +0.016 C 
ATOM     18  C   UNL     1      34.200 -23.348 -16.953  0.00  0.00    +0.062 C 
ATOM     19  C   UNL     1      33.274 -23.186 -17.985  0.00  0.00    +0.013 C 
BRANCH  15  23
ATOM     20  F   UNL     1      36.081 -22.469 -14.775  0.00  0.00    -0.166 F 
ATOM     21  F   UNL     1      36.855 -24.241 -15.755  0.00  0.00    -0.166 F 
ATOM     22  F   UNL     1      37.654 -22.284 -16.265  0.00  0.00    -0.166 F 
ATOM     23  C   UNL     1      36.495 -22.945 -15.985  0.00  0.00    +0.419 C 
ENDBRANCH  15  23
ENDBRANCH   8  14
ENDBRANCH   1   9
BRANCH   2  24
ATOM     24  O   UNL     1      33.781 -15.738 -25.770  0.00  0.00    -0.453 OA
BRANCH  24  26
ATOM     25  N   UNL     1      33.237 -11.871 -24.279  0.00  0.00    -0.239 NA
ATOM     26  C   UNL     1      33.600 -14.458 -25.275  0.00  0.00    +0.149 C 
ATOM     27  C   UNL     1      33.020 -14.266 -24.026  0.00  0.00    +0.061 C 
ATOM     28  C   UNL     1      32.863 -12.965 -23.577  0.00  0.00    +0.137 C 
ATOM     29  C   UNL     1      33.999 -13.358 -26.027  0.00  0.00    +0.058 C 
ATOM     30  C   UNL     1      33.797 -12.097 -25.489  0.00  0.00    +0.102 C 
BRANCH  28  33
ATOM     31  O   UNL     1      32.336 -13.551 -21.368  0.00  0.00    -0.269 OA
ATOM     32  N   UNL     1      31.633 -11.467 -22.105  0.00  0.00    -0.313 N 
ATOM     33  C   UNL     1      32.263 -12.705 -22.279  0.00  0.00    +0.263 C 
ATOM     34  H   UNL     1      31.611 -10.845 -22.867  0.00  0.00    +0.149 HD
ATOM     35  C   UNL     1      31.013 -11.053 -20.868  0.00  0.00    +0.128 C 
ENDBRANCH  28  33
ENDBRANCH  24  26
ENDBRANCH   2  24
TORSDOF 6
ENDMDL
MODEL 3
REMARK VINA RESULT:     -11.6      1.525      2.165
REMARK  Name = 25191001
REMARK  7 active torsions:
REMARK  status: ('A' for Active; 'I' for Inactive)
REMARK    1  A    between atoms: C_1  and  N_9
REMARK    2  A    between atoms: C_2  and  O_24
REMARK    3  A    between atoms: N_8  and  C_14
REMARK    4  A    between atoms: C_15  and  C_23
REMARK    5  A    between atoms: O_24  and  C_26
REMARK    6  A    between atoms: C_28  and  C_33
REMARK    7  A    between atoms: N_32  and  C_35
REMARK                            x       y       z     vdW  Elec       q    Type
REMARK                         _______ _______ _______ _____ _____    ______ ____
ROOT
ATOM      1  C   UNL     1      33.489 -14.073 -23.155  0.00  0.00    +0.052 C 
ATOM      2  C   UNL     1      34.707 -16.549 -23.574  0.00  0.00    +0.145 C 
ATOM      3  C   UNL     1      34.170 -14.702 -22.112  0.00  0.00    +0.018 C 
ATOM      4  C   UNL     1      33.417 -14.683 -24.407  0.00  0.00    +0.018 C 
ATOM      5  C   UNL     1      34.779 -15.938 -22.321  0.00  0.00    +0.039 C 
ATOM      6  C   UNL     1      34.026 -15.921 -24.618  0.00  0.00    +0.039 C 
ENDROOT
BRANCH   1   9
ATOM      7  O   UNL     1      34.076 -11.405 -24.362  0.00  0.00    -0.252 OA
ATOM      8  N   UNL     1      32.322 -10.578 -23.047  0.00  0.00    -0.268 N 
ATOM      9  N   UNL     1      32.870 -12.819 -22.942  0.00  0.00    -0.268 N 
ATOM     10  C   UNL     1      33.185 -11.588 -23.538  0.00  0.00    +0.308 C 
ATOM     11  H   UNL     1      31.653 -10.872 -22.388  0.00  0.00    +0.156 HD
ATOM     12  H   UNL     1      32.127 -12.809 -22.297  0.00  0.00    +0.156 HD
BRANCH   8  14
ATOM     13 CL   UNL     1      32.161  -4.834 -24.430  0.00  0.00    -0.082 Cl
ATOM     14  C   UNL     1      32.293  -9.222 -23.376  0.00  0.00    +0.052 C 
ATOM     15  C   UNL     1      33.418  -7.237 -24.170  0.00  0.00    +0.083 C 
ATOM     16  C   UNL     1      33.448  -8.593 -23.842  0.00  0.00    +0.019 C 
ATOM     17  C   UNL     1      31.110  -8.497 -23.238  0.00  0.00    +0.016 C 
ATOM     18  C   UNL     1      32.235  -6.511 -24.033  0.00  0.00    +0.062 C 
ATOM     19  C   UNL     1      31.080  -7.142 -23.567  0.00  0.00    +0.013 C 
BRANCH  15  23
ATOM     20  F   UNL     1      34.983  -6.929 -25.954  0.00  0.00    -0.166 F 
ATOM     21  F   UNL     1      34.639  -5.236 -24.644  0.00  0.00    -0.166 F 
ATOM     22  F   UNL     1      35.766  -6.951 -23.926  0.00  0.00    -0.166 F 
ATOM     23  C   UNL     1      34.676  -6.600 -24.666  0.00  0.00    +0.419 C 
ENDBRANCH  15  23
ENDBRANCH   8  14
ENDBRANCH   1   9
BRANCH   2  24
ATOM     24  O   UNL     1      35.299 -17.757 -23.778  0.00  0.00    -0.453 OA
BRANCH  24  26
ATOM     25  N   UNL     1      36.000 -20.170 -20.438  0.00  0.00    -0.239 NA
ATOM     26  C   UNL     1      35.530 -18.556 -22.671  0.00  0.00    +0.149 C 
ATOM     27  C   UNL     1      34.493 -19.296 -22.114  0.00  0.00    +0.061 C 
ATOM     28  C   UNL     1      34.777 -20.080 -21.008  0.00  0.00    +0.137 C 
ATOM     29  C   UNL     1      36.802 -18.623 -22.113  0.00  0.00    +0.058 C 
ATOM     30  C   UNL     1      36.984 -19.437 -21.007  0.00  0.00    +0.102 C 
BRANCH  28  33
ATOM     31  O   UNL     1      32.536 -20.678 -20.667  0.00  0.00    -0.269 OA
ATOM     32  N   UNL     1      34.137 -21.868 -19.485  0.00  0.00    -0.313 N 
ATOM     33  C   UNL     1      33.732 -20.874 -20.384  0.00  0.00    +0.263 C 
ATOM     34  H   UNL     1      35.100 -21.969 -19.307  0.00  0.00    +0.149 HD
ATOM     35  C   UNL     1      33.221 -22.753 -18.804  0.00  0.00    +0.128 C 
ENDBRANCH  28  33
ENDBRANCH  24  26
ENDBRANCH   2  24
TORSDOF 6
ENDMDL
MODEL 4
REMARK VINA RESULT:     -11.5      9.065     14.388
REMARK  Name = 25191001
REMARK  7 active torsions:
REMARK  status: ('A' for Active; 'I' for Inactive)
REMARK    1  A    between atoms: C_1  and  N_9
REMARK    2  A    between atoms: C_2  and  O_24
REMARK    3  A    between atoms: N_8  and  C_14
REMARK    4  A    between atoms: C_15  and  C_23
REMARK    5  A    between atoms: O_24  and  C_26
REMARK    6  A    between atoms: C_28  and  C_33
REMARK    7  A    between atoms: N_32  and  C_35
REMARK                            x       y       z     vdW  Elec       q    Type
REMARK                         _______ _______ _______ _____ _____    ______ ____
ROOT
ATOM      1  C   UNL     1      35.158 -21.258 -19.713  0.00  0.00    +0.052 C 
ATOM      2  C   UNL     1      35.870 -19.413 -21.681  0.00  0.00    +0.145 C 
ATOM      3  C   UNL     1      34.172 -20.658 -20.496  0.00  0.00    +0.018 C 
ATOM      4  C   UNL     1      36.500 -20.935 -19.914  0.00  0.00    +0.018 C 
ATOM      5  C   UNL     1      34.528 -19.736 -21.480  0.00  0.00    +0.039 C 
ATOM      6  C   UNL     1      36.857 -20.012 -20.898  0.00  0.00    +0.039 C 
ENDROOT
BRANCH   1   9
ATOM      7  O   UNL     1      36.162 -21.574 -16.918  0.00  0.00    -0.252 OA
ATOM      8  N   UNL     1      34.672 -23.372 -16.732  0.00  0.00    -0.268 N 
ATOM      9  N   UNL     1      34.797 -22.192 -18.713  0.00  0.00    -0.268 N 
ATOM     10  C   UNL     1      35.302 -22.299 -17.408  0.00  0.00    +0.308 C 
ATOM     11  H   UNL     1      33.998 -23.868 -17.252  0.00  0.00    +0.156 HD
ATOM     12  H   UNL     1      34.107 -22.847 -18.965  0.00  0.00    +0.156 HD
BRANCH   8  14
ATOM     13 CL   UNL     1      35.504 -25.261 -11.194  0.00  0.00    -0.082 Cl
ATOM     14  C   UNL     1      34.877 -23.820 -15.426  0.00  0.00    +0.052 C 
ATOM     15  C   UNL     1      36.357 -24.656 -13.710  0.00  0.00    +0.083 C 
ATOM     16  C   UNL     1      36.152 -24.208 -15.015  0.00  0.00    +0.019 C 
ATOM     17  C   UNL     1      33.808 -23.878 -14.534  0.00  0.00    +0.016 C 
ATOM     18  C   UNL     1      35.288 -24.714 -12.816  0.00  0.00    +0.062 C 
ATOM     19  C   UNL     1      34.012 -24.325 -13.228  0.00  0.00    +0.013 C 
BRANCH  15  23
ATOM     20  F   UNL     1      38.657 -24.936 -14.309  0.00  0.00    -0.166 F 
ATOM     21  F   UNL     1      38.239 -24.333 -12.268  0.00  0.00    -0.166 F 
ATOM     22  F   UNL     1      37.803 -26.365 -12.910  0.00  0.00    -0.166 F 
ATOM     23  C   UNL     1      37.738 -25.063 -13.308  0.00  0.00    +0.419 C 
ENDBRANCH  15  23
ENDBRANCH   8  14
ENDBRANCH   1   9
BRANCH   2  24
ATOM     24  O   UNL     1      36.217 -18.511 -22.640  0.00  0.00    -0.453 OA
BRANCH  24  26
ATOM     25  N   UNL     1      33.274 -17.346 -25.370  0.00  0.00    -0.239 NA
ATOM     26  C   UNL     1      35.242 -18.124 -23.543  0.00  0.00    +0.149 C 
ATOM     27  C   UNL     1      35.046 -16.777 -23.826  0.00  0.00    +0.061 C 
ATOM     28  C   UNL     1      34.059 -16.442 -24.738  0.00  0.00    +0.137 C 
ATOM     29  C   UNL     1      34.456 -19.083 -24.173  0.00  0.00    +0.058 C 
ATOM     30  C   UNL     1      33.494 -18.646 -25.070  0.00  0.00    +0.102 C 
BRANCH  28  33
ATOM     31  O   UNL     1      33.468 -14.728 -26.225  0.00  0.00    -0.269 OA
ATOM     32  N   UNL     1      33.947 -14.114 -24.040  0.00  0.00    -0.313 N 
ATOM     33  C   UNL     1      33.809 -15.051 -25.071  0.00  0.00    +0.263 C 
ATOM     34  H   UNL     1      34.220 -14.437 -23.152  0.00  0.00    +0.149 HD
ATOM     35  C   UNL     1      33.711 -12.699 -24.209  0.00  0.00    +0.128 C 
ENDBRANCH  28  33
ENDBRANCH  24  26
ENDBRANCH   2  24
TORSDOF 6
ENDMDL
MODEL 5
REMARK VINA RESULT:     -11.5      9.031     14.263
REMARK  Name = 25191001
REMARK  7 active torsions:
REMARK  status: ('A' for Active; 'I' for Inactive)
REMARK    1  A    between atoms: C_1  and  N_9
REMARK    2  A    between atoms: C_2  and  O_24
REMARK    3  A    between atoms: N_8  and  C_14
REMARK    4  A    between atoms: C_15  and  C_23
REMARK    5  A    between atoms: O_24  and  C_26
REMARK    6  A    between atoms: C_28  and  C_33
REMARK    7  A    between atoms: N_32  and  C_35
REMARK                            x       y       z     vdW  Elec       q    Type
REMARK                         _______ _______ _______ _____ _____    ______ ____
ROOT
ATOM      1  C   UNL     1      35.466 -20.798 -20.110  0.00  0.00    +0.052 C 
ATOM      2  C   UNL     1      35.563 -18.898 -22.151  0.00  0.00    +0.145 C 
ATOM      3  C   UNL     1      34.311 -20.483 -20.827  0.00  0.00    +0.018 C 
ATOM      4  C   UNL     1      36.669 -20.161 -20.414  0.00  0.00    +0.018 C 
ATOM      5  C   UNL     1      34.359 -19.534 -21.847  0.00  0.00    +0.039 C 
ATOM      6  C   UNL     1      36.718 -19.211 -21.435  0.00  0.00    +0.039 C 
ENDROOT
BRANCH   1   9
ATOM      7  O   UNL     1      36.979 -20.939 -17.539  0.00  0.00    -0.252 OA
ATOM      8  N   UNL     1      35.802 -22.920 -17.115  0.00  0.00    -0.268 N 
ATOM      9  N   UNL     1      35.416 -21.759 -19.074  0.00  0.00    -0.268 N 
ATOM     10  C   UNL     1      36.152 -21.780 -17.879  0.00  0.00    +0.308 C 
ATOM     11  H   UNL     1      35.122 -23.509 -17.514  0.00  0.00    +0.156 HD
ATOM     12  H   UNL     1      34.788 -22.505 -19.207  0.00  0.00    +0.156 HD
BRANCH   8  14
ATOM     13 CL   UNL     1      37.850 -24.591 -11.829  0.00  0.00    -0.082 Cl
ATOM     14  C   UNL     1      36.293 -23.319 -15.871  0.00  0.00    +0.052 C 
ATOM     15  C   UNL     1      37.942 -24.490 -14.550  0.00  0.00    +0.083 C 
ATOM     16  C   UNL     1      37.452 -24.091 -15.794  0.00  0.00    +0.019 C 
ATOM     17  C   UNL     1      35.623 -22.947 -14.706  0.00  0.00    +0.016 C 
ATOM     18  C   UNL     1      37.274 -24.117 -13.384  0.00  0.00    +0.062 C 
ATOM     19  C   UNL     1      36.113 -23.345 -13.462  0.00  0.00    +0.013 C 
BRANCH  15  23
ATOM     20  F   UNL     1      40.073 -24.920 -13.550  0.00  0.00    -0.166 F 
ATOM     21  F   UNL     1      38.956 -26.637 -14.260  0.00  0.00    -0.166 F 
ATOM     22  F   UNL     1      39.877 -25.278 -15.685  0.00  0.00    -0.166 F 
ATOM     23  C   UNL     1      39.188 -25.316 -14.510  0.00  0.00    +0.419 C 
ENDBRANCH  15  23
ENDBRANCH   8  14
ENDBRANCH   1   9
BRANCH   2  24
ATOM     24  O   UNL     1      35.610 -17.970 -23.146  0.00  0.00    -0.453 OA
BRANCH  24  26
ATOM     25  N   UNL     1      33.952 -14.212 -22.372  0.00  0.00    -0.239 NA
ATOM     26  C   UNL     1      35.062 -16.724 -22.891  0.00  0.00    +0.149 C 
ATOM     27  C   UNL     1      34.709 -15.887 -23.942  0.00  0.00    +0.061 C 
ATOM     28  C   UNL     1      34.163 -14.651 -23.633  0.00  0.00    +0.137 C 
ATOM     29  C   UNL     1      34.860 -16.308 -21.579  0.00  0.00    +0.058 C 
ATOM     30  C   UNL     1      34.308 -15.053 -21.375  0.00  0.00    +0.102 C 
BRANCH  28  33
ATOM     31  O   UNL     1      33.100 -14.135 -25.658  0.00  0.00    -0.269 OA
ATOM     32  N   UNL     1      34.175 -12.400 -24.557  0.00  0.00    -0.313 N 
ATOM     33  C   UNL     1      33.776 -13.735 -24.692  0.00  0.00    +0.263 C 
ATOM     34  H   UNL     1      34.708 -12.152 -23.768  0.00  0.00    +0.149 HD
ATOM     35  C   UNL     1      33.848 -11.367 -25.512  0.00  0.00    +0.128 C 
ENDBRANCH  28  33
ENDBRANCH  24  26
ENDBRANCH   2  24
TORSDOF 6
ENDMDL
MODEL 6
REMARK VINA RESULT:     -11.5      2.176      3.354
REMARK  Name = 25191001
REMARK  7 active torsions:
REMARK  status: ('A' for Active; 'I' for Inactive)
REMARK    1  A    between atoms: C_1  and  N_9
REMARK    2  A    between atoms: C_2  and  O_24
REMARK    3  A    between atoms: N_8  and  C_14
REMARK    4  A    between atoms: C_15  and  C_23
REMARK    5  A    between atoms: O_24  and  C_26
REMARK    6  A    between atoms: C_28  and  C_33
REMARK    7  A    between atoms: N_32  and  C_35
REMARK                            x       y       z     vdW  Elec       q    Type
REMARK                         _______ _______ _______ _____ _____    ______ ____
ROOT
ATOM      1  C   UNL     1      34.619 -16.289 -23.547  0.00  0.00    +0.052 C 
ATOM      2  C   UNL     1      35.235 -18.721 -22.327  0.00  0.00    +0.145 C 
ATOM      3  C   UNL     1      34.949 -16.326 -22.193  0.00  0.00    +0.018 C 
ATOM      4  C   UNL     1      34.595 -17.469 -24.292  0.00  0.00    +0.018 C 
ATOM      5  C   UNL     1      35.258 -17.541 -21.582  0.00  0.00    +0.039 C 
ATOM      6  C   UNL     1      34.904 -18.685 -23.682  0.00  0.00    +0.039 C 
ENDROOT
BRANCH   1   9
ATOM      7  O   UNL     1      34.516 -13.532 -22.404  0.00  0.00    -0.252 OA
ATOM      8  N   UNL     1      33.908 -12.814 -24.550  0.00  0.00    -0.268 N 
ATOM      9  N   UNL     1      34.304 -15.056 -24.166  0.00  0.00    -0.268 N 
ATOM     10  C   UNL     1      34.270 -13.781 -23.581  0.00  0.00    +0.308 C 
ATOM     11  H   UNL     1      33.739 -13.160 -25.456  0.00  0.00    +0.156 HD
ATOM     12  H   UNL     1      34.083 -15.098 -25.124  0.00  0.00    +0.156 HD
BRANCH   8  14
ATOM     13 CL   UNL     1      33.308  -6.970 -23.901  0.00  0.00    -0.082 Cl
ATOM     14  C   UNL     1      33.758 -11.435 -24.391  0.00  0.00    +0.052 C 
ATOM     15  C   UNL     1      32.562  -9.553 -23.463  0.00  0.00    +0.083 C 
ATOM     16  C   UNL     1      32.710 -10.931 -23.621  0.00  0.00    +0.019 C 
ATOM     17  C   UNL     1      34.657 -10.562 -25.003  0.00  0.00    +0.016 C 
ATOM     18  C   UNL     1      33.461  -8.679 -24.074  0.00  0.00    +0.062 C 
ATOM     19  C   UNL     1      34.509  -9.184 -24.845  0.00  0.00    +0.013 C 
BRANCH  15  23
ATOM     20  F   UNL     1      30.563  -8.246 -23.312  0.00  0.00    -0.166 F 
ATOM     21  F   UNL     1      30.651 -10.050 -22.112  0.00  0.00    -0.166 F 
ATOM     22  F   UNL     1      31.847  -8.321 -21.559  0.00  0.00    -0.166 F 
ATOM     23  C   UNL     1      31.426  -9.053 -22.629  0.00  0.00    +0.419 C 
ENDBRANCH  15  23
ENDBRANCH   8  14
ENDBRANCH   1   9
BRANCH   2  24
ATOM     24  O   UNL     1      35.533 -19.908 -21.731  0.00  0.00    -0.453 OA
BRANCH  24  26
ATOM     25  N   UNL     1      32.613 -21.645 -19.297  0.00  0.00    -0.239 NA
ATOM     26  C   UNL     1      34.566 -20.485 -20.925  0.00  0.00    +0.149 C 
ATOM     27  C   UNL     1      34.932 -21.376 -19.923  0.00  0.00    +0.061 C 
ATOM     28  C   UNL     1      33.927 -21.924 -19.143  0.00  0.00    +0.137 C 
ATOM     29  C   UNL     1      33.225 -20.172 -21.114  0.00  0.00    +0.058 C 
ATOM     30  C   UNL     1      32.295 -20.774 -20.281  0.00  0.00    +0.102 C 
BRANCH  28  33
ATOM     31  O   UNL     1      33.600 -23.914 -17.947  0.00  0.00    -0.269 OA
ATOM     32  N   UNL     1      35.329 -22.535 -17.250  0.00  0.00    -0.313 N 
ATOM     33  C   UNL     1      34.251 -22.862 -18.081  0.00  0.00    +0.263 C 
ATOM     34  H   UNL     1      35.801 -21.686 -17.411  0.00  0.00    +0.149 HD
ATOM     35  C   UNL     1      35.788 -23.375 -16.167  0.00  0.00    +0.128 C 
ENDBRANCH  28  33
ENDBRANCH  24  26
ENDBRANCH   2  24
TORSDOF 6
ENDMDL
MODEL 7
REMARK VINA RESULT:     -11.5      7.475     12.853
REMARK  Name = 25191001
REMARK  7 active torsions:
REMARK  status: ('A' for Active; 'I' for Inactive)
REMARK    1  A    between atoms: C_1  and  N_9
REMARK    2  A    between atoms: C_2  and  O_24
REMARK    3  A    between atoms: N_8  and  C_14
REMARK    4  A    between atoms: C_15  and  C_23
REMARK    5  A    between atoms: O_24  and  C_26
REMARK    6  A    between atoms: C_28  and  C_33
REMARK    7  A    between atoms: N_32  and  C_35
REMARK                            x       y       z     vdW  Elec       q    Type
REMARK                         _______ _______ _______ _____ _____    ______ ____
ROOT
ATOM      1  C   UNL     1      34.836 -18.684 -23.083  0.00  0.00    +0.052 C 
ATOM      2  C   UNL     1      34.110 -16.658 -24.859  0.00  0.00    +0.145 C 
ATOM      3  C   UNL     1      33.985 -18.965 -24.152  0.00  0.00    +0.018 C 
ATOM      4  C   UNL     1      35.324 -17.390 -22.902  0.00  0.00    +0.018 C 
ATOM      5  C   UNL     1      33.623 -17.953 -25.040  0.00  0.00    +0.039 C 
ATOM      6  C   UNL     1      34.961 -16.376 -23.790  0.00  0.00    +0.039 C 
ENDROOT
BRANCH   1   9
ATOM      7  O   UNL     1      33.435 -19.701 -20.649  0.00  0.00    -0.252 OA
ATOM      8  N   UNL     1      35.219 -21.203 -20.419  0.00  0.00    -0.268 N 
ATOM      9  N   UNL     1      35.203 -19.711 -22.182  0.00  0.00    -0.268 N 
ATOM     10  C   UNL     1      34.505 -20.153 -21.046  0.00  0.00    +0.308 C 
ATOM     11  H   UNL     1      36.065 -21.462 -20.851  0.00  0.00    +0.156 HD
ATOM     12  H   UNL     1      36.051 -20.172 -22.375  0.00  0.00    +0.156 HD
BRANCH   8  14
ATOM     13 CL   UNL     1      33.754 -24.249 -15.571  0.00  0.00    -0.082 Cl
ATOM     14  C   UNL     1      34.881 -21.921 -19.271  0.00  0.00    +0.052 C 
ATOM     15  C   UNL     1      35.477 -22.791 -17.098  0.00  0.00    +0.083 C 
ATOM     16  C   UNL     1      35.814 -22.074 -18.245  0.00  0.00    +0.019 C 
ATOM     17  C   UNL     1      33.612 -22.485 -19.150  0.00  0.00    +0.016 C 
ATOM     18  C   UNL     1      34.207 -23.356 -16.975  0.00  0.00    +0.062 C 
ATOM     19  C   UNL     1      33.274 -23.203 -18.003  0.00  0.00    +0.013 C 
BRANCH  15  23
ATOM     20  F   UNL     1      36.876 -24.224 -15.788  0.00  0.00    -0.166 F 
ATOM     21  F   UNL     1      37.665 -22.267 -16.287  0.00  0.00    -0.166 F 
ATOM     22  F   UNL     1      36.070 -22.451 -14.821  0.00  0.00    -0.166 F 
ATOM     23  C   UNL     1      36.504 -22.932 -16.021  0.00  0.00    +0.419 C 
ENDBRANCH  15  23
ENDBRANCH   8  14
ENDBRANCH   1   9
BRANCH   2  24
ATOM     24  O   UNL     1      33.755 -15.669 -25.724  0.00  0.00    -0.453 OA
BRANCH  24  26
ATOM     25  N   UNL     1      33.340 -11.803 -24.190  0.00  0.00    -0.239 NA
ATOM     26  C   UNL     1      33.619 -14.388 -25.216  0.00  0.00    +0.149 C 
ATOM     27  C   UNL     1      34.123 -13.300 -25.919  0.00  0.00    +0.061 C 
ATOM     28  C   UNL     1      33.959 -12.039 -25.369  0.00  0.00    +0.137 C 
ATOM     29  C   UNL     1      32.975 -14.186 -24.000  0.00  0.00    +0.058 C 
ATOM     30  C   UNL     1      32.863 -12.885 -23.534  0.00  0.00    +0.102 C 
BRANCH  28  33
ATOM     31  O   UNL     1      34.769 -10.924 -27.266  0.00  0.00    -0.269 OA
ATOM     32  N   UNL     1      34.569  -9.684 -25.317  0.00  0.00    -0.313 N 
ATOM     33  C   UNL     1      34.466 -10.866 -26.060  0.00  0.00    +0.263 C 
ATOM     34  H   UNL     1      34.312  -9.708 -24.367  0.00  0.00    +0.149 HD
ATOM     35  C   UNL     1      35.031  -8.431 -25.867  0.00  0.00    +0.128 C 
ENDBRANCH  28  33
ENDBRANCH  24  26
ENDBRANCH   2  24
TORSDOF 6
ENDMDL
MODEL 8
REMARK VINA RESULT:     -11.2      8.646     13.983
REMARK  Name = 25191001
REMARK  7 active torsions:
REMARK  status: ('A' for Active; 'I' for Inactive)
REMARK    1  A    between atoms: C_1  and  N_9
REMARK    2  A    between atoms: C_2  and  O_24
REMARK    3  A    between atoms: N_8  and  C_14
REMARK    4  A    between atoms: C_15  and  C_23
REMARK    5  A    between atoms: O_24  and  C_26
REMARK    6  A    between atoms: C_28  and  C_33
REMARK    7  A    between atoms: N_32  and  C_35
REMARK                            x       y       z     vdW  Elec       q    Type
REMARK                         _______ _______ _______ _____ _____    ______ ____
ROOT
ATOM      1  C   UNL     1      35.632 -20.711 -20.181  0.00  0.00    +0.052 C 
ATOM      2  C   UNL     1      35.660 -18.710 -22.125  0.00  0.00    +0.145 C 
ATOM      3  C   UNL     1      34.458 -20.380 -20.859  0.00  0.00    +0.018 C 
ATOM      4  C   UNL     1      36.819 -20.042 -20.476  0.00  0.00    +0.018 C 
ATOM      5  C   UNL     1      34.472 -19.380 -21.831  0.00  0.00    +0.039 C 
ATOM      6  C   UNL     1      36.834 -19.041 -21.448  0.00  0.00    +0.039 C 
ENDROOT
BRANCH   1   9
ATOM      7  O   UNL     1      36.998 -20.836 -17.528  0.00  0.00    -0.252 OA
ATOM      8  N   UNL     1      36.000 -22.941 -17.269  0.00  0.00    -0.268 N 
ATOM      9  N   UNL     1      35.617 -21.725 -19.194  0.00  0.00    -0.268 N 
ATOM     10  C   UNL     1      36.280 -21.735 -17.957  0.00  0.00    +0.308 C 
ATOM     11  H   UNL     1      35.406 -23.571 -17.737  0.00  0.00    +0.156 HD
ATOM     12  H   UNL     1      35.075 -22.520 -19.401  0.00  0.00    +0.156 HD
BRANCH   8  14
ATOM     13 CL   UNL     1      37.958 -24.691 -11.974  0.00  0.00    -0.082 Cl
ATOM     14  C   UNL     1      36.454 -23.353 -16.015  0.00  0.00    +0.052 C 
ATOM     15  C   UNL     1      36.008 -23.901 -13.705  0.00  0.00    +0.083 C 
ATOM     16  C   UNL     1      35.554 -23.489 -14.958  0.00  0.00    +0.019 C 
ATOM     17  C   UNL     1      37.807 -23.630 -15.820  0.00  0.00    +0.016 C 
ATOM     18  C   UNL     1      37.361 -24.179 -13.509  0.00  0.00    +0.062 C 
ATOM     19  C   UNL     1      38.261 -24.042 -14.568  0.00  0.00    +0.013 C 
BRANCH  15  23
ATOM     20  F   UNL     1      33.735 -23.735 -12.975  0.00  0.00    -0.166 F 
ATOM     21  F   UNL     1      34.945 -25.294 -12.076  0.00  0.00    -0.166 F 
ATOM     22  F   UNL     1      35.288 -23.213 -11.546  0.00  0.00    -0.166 F 
ATOM     23  C   UNL     1      35.012 -24.035 -12.598  0.00  0.00    +0.419 C 
ENDBRANCH  15  23
ENDBRANCH   8  14
ENDBRANCH   1   9
BRANCH   2  24
ATOM     24  O   UNL     1      35.674 -17.732 -23.072  0.00  0.00    -0.453 OA
BRANCH  24  26
ATOM     25  N   UNL     1      33.833 -14.098 -22.135  0.00  0.00    -0.239 NA
ATOM     26  C   UNL     1      35.065 -16.528 -22.763  0.00  0.00    +0.149 C 
ATOM     27  C   UNL     1      34.757 -15.620 -23.770  0.00  0.00    +0.061 C 
ATOM     28  C   UNL     1      34.147 -14.430 -23.408  0.00  0.00    +0.137 C 
ATOM     29  C   UNL     1      34.756 -16.222 -21.442  0.00  0.00    +0.058 C 
ATOM     30  C   UNL     1      34.147 -15.005 -21.182  0.00  0.00    +0.102 C 
BRANCH  28  33
ATOM     31  O   UNL     1      33.087 -13.758 -25.388  0.00  0.00    -0.269 OA
ATOM     32  N   UNL     1      34.291 -12.146 -24.234  0.00  0.00    -0.313 N 
ATOM     33  C   UNL     1      33.803 -13.445 -24.419  0.00  0.00    +0.263 C 
ATOM     34  H   UNL     1      34.852 -11.968 -23.445  0.00  0.00    +0.149 HD
ATOM     35  C   UNL     1      34.016 -11.053 -25.137  0.00  0.00    +0.128 C 
ENDBRANCH  28  33
ENDBRANCH  24  26
ENDBRANCH   2  24
TORSDOF 6
ENDMDL
MODEL 9
REMARK VINA RESULT:     -11.2      2.362      3.464
REMARK  Name = 25191001
REMARK  7 active torsions:
REMARK  status: ('A' for Active; 'I' for Inactive)
REMARK    1  A    between atoms: C_1  and  N_9
REMARK    2  A    between atoms: C_2  and  O_24
REMARK    3  A    between atoms: N_8  and  C_14
REMARK    4  A    between atoms: C_15  and  C_23
REMARK    5  A    between atoms: O_24  and  C_26
REMARK    6  A    between atoms: C_28  and  C_33
REMARK    7  A    between atoms: N_32  and  C_35
REMARK                            x       y       z     vdW  Elec       q    Type
REMARK                         _______ _______ _______ _____ _____    ______ ____
ROOT
ATOM      1  C   UNL     1      34.641 -16.303 -23.400  0.00  0.00    +0.052 C 
ATOM      2  C   UNL     1      35.231 -18.815 -22.338  0.00  0.00    +0.145 C 
ATOM      3  C   UNL     1      34.512 -17.444 -24.192  0.00  0.00    +0.018 C 
ATOM      4  C   UNL     1      35.067 -16.419 -22.076  0.00  0.00    +0.018 C 
ATOM      5  C   UNL     1      34.806 -18.700 -23.661  0.00  0.00    +0.039 C 
ATOM      6  C   UNL     1      35.362 -17.675 -21.544  0.00  0.00    +0.039 C 
ENDROOT
BRANCH   1   9
ATOM      7  O   UNL     1      34.042 -13.721 -22.024  0.00  0.00    -0.252 OA
ATOM      8  N   UNL     1      33.822 -12.791 -24.164  0.00  0.00    -0.268 N 
ATOM      9  N   UNL     1      34.344 -15.030 -23.939  0.00  0.00    -0.268 N 
ATOM     10  C   UNL     1      34.068 -13.841 -23.246  0.00  0.00    +0.308 C 
ATOM     11  H   UNL     1      33.877 -13.035 -25.116  0.00  0.00    +0.156 HD
ATOM     12  H   UNL     1      34.329 -14.970 -24.921  0.00  0.00    +0.156 HD
BRANCH   8  14
ATOM     13 CL   UNL     1      32.480  -7.151 -23.018  0.00  0.00    -0.082 Cl
ATOM     14  C   UNL     1      33.512 -11.457 -23.898  0.00  0.00    +0.052 C 
ATOM     15  C   UNL     1      33.966  -9.104 -24.201  0.00  0.00    +0.083 C 
ATOM     16  C   UNL     1      34.276 -10.437 -24.467  0.00  0.00    +0.019 C 
ATOM     17  C   UNL     1      32.439 -11.143 -23.065  0.00  0.00    +0.016 C 
ATOM     18  C   UNL     1      32.893  -8.789 -23.368  0.00  0.00    +0.062 C 
ATOM     19  C   UNL     1      32.129  -9.809 -22.799  0.00  0.00    +0.013 C 
BRANCH  15  23
ATOM     20  F   UNL     1      35.692  -8.520 -25.753  0.00  0.00    -0.166 F 
ATOM     21  F   UNL     1      34.083  -7.091 -25.489  0.00  0.00    -0.166 F 
ATOM     22  F   UNL     1      35.560  -7.363 -23.917  0.00  0.00    -0.166 F 
ATOM     23  C   UNL     1      34.808  -8.041 -24.830  0.00  0.00    +0.419 C 
ENDBRANCH  15  23
ENDBRANCH   8  14
ENDBRANCH   1   9
BRANCH   2  24
ATOM     24  O   UNL     1      35.521 -20.040 -21.819  0.00  0.00    -0.453 OA
BRANCH  24  26
ATOM     25  N   UNL     1      32.774 -21.716 -19.151  0.00  0.00    -0.239 NA
ATOM     26  C   UNL     1      34.612 -20.596 -20.936  0.00  0.00    +0.149 C 
ATOM     27  C   UNL     1      35.053 -21.408 -19.897  0.00  0.00    +0.061 C 
ATOM     28  C   UNL     1      34.104 -21.939 -19.039  0.00  0.00    +0.137 C 
ATOM     29  C   UNL     1      33.253 -20.343 -21.083  0.00  0.00    +0.058 C 
ATOM     30  C   UNL     1      32.382 -20.922 -20.173  0.00  0.00    +0.102 C 
BRANCH  28  33
ATOM     31  O   UNL     1      33.871 -23.832 -17.675  0.00  0.00    -0.269 OA
ATOM     32  N   UNL     1      35.643 -22.409 -17.214  0.00  0.00    -0.313 N 
ATOM     33  C   UNL     1      34.508 -22.794 -17.937  0.00  0.00    +0.263 C 
ATOM     34  H   UNL     1      36.099 -21.576 -17.474  0.00  0.00    +0.149 HD
ATOM     35  C   UNL     1      36.183 -23.166 -16.108  0.00  0.00    +0.128 C 
ENDBRANCH  28  33
ENDBRANCH  24  26
ENDBRANCH   2  24
TORSDOF 6
ENDMDL
