MODEL 1
REMARK VINA RESULT:     -11.8      0.000      0.000
REMARK  Name = 5326869
REMARK  6 active torsions:
REMARK  status: ('A' for Active; 'I' for Inactive)
REMARK    1  A    between atoms: N_2  and  C_11
REMARK    2  A    between atoms: C_3  and  C_25
REMARK    3  A    between atoms: N_5  and  C_14
REMARK    4  A    between atoms: C_14  and  C_15
REMARK    5  A    between atoms: C_15  and  C_17
REMARK    6  A    between atoms: C_23  and  N_30
REMARK                            x       y       z     vdW  Elec       q    Type
REMARK                         _______ _______ _______ _____ _____    ______ ____
ROOT
ATOM      1  O   UNL     1      31.566 -13.772 -21.115  0.00  0.00    -0.270 OA
ATOM      2  N   UNL     1      33.087 -12.997 -22.732  0.00  0.00    -0.280 N 
ATOM      3  C   UNL     1      32.189 -12.870 -21.664  0.00  0.00    +0.250 C 
ATOM      4  H   UNL     1      33.501 -12.162 -23.050  0.00  0.00    +0.155 HD
ENDROOT
BRANCH   2  11
ATOM      5  N   UNL     1      34.981 -17.533 -22.944  0.00  0.00    -0.286 N 
ATOM      6  C   UNL     1      34.406 -16.362 -23.385  0.00  0.00    +0.053 C 
ATOM      7  C   UNL     1      34.220 -16.490 -24.763  0.00  0.00    +0.015 C 
ATOM      8  C   UNL     1      35.164 -18.394 -23.993  0.00  0.00    +0.065 C 
ATOM      9  C   UNL     1      34.041 -15.212 -22.676  0.00  0.00    +0.029 C 
ATOM     10  C   UNL     1      34.702 -17.777 -25.132  0.00  0.00    +0.017 C 
ATOM     11  C   UNL     1      33.468 -14.162 -23.400  0.00  0.00    +0.052 C 
ATOM     12  C   UNL     1      33.639 -15.418 -25.470  0.00  0.00    +0.003 C 
ATOM     13  C   UNL     1      33.269 -14.262 -24.775  0.00  0.00    +0.015 C 
BRANCH   5  14
ATOM     14  C   UNL     1      35.345 -17.828 -21.574  0.00  0.00    +0.100 C 
BRANCH  14  15
ATOM     15  C   UNL     1      35.864 -19.255 -21.374  0.00  0.00    +0.048 C 
BRANCH  15  17
ATOM     16  N   UNL     1      32.947 -21.911 -19.702  0.00  0.00    -0.242 NA
ATOM     17  C   UNL     1      34.837 -20.189 -20.784  0.00  0.00    -0.017 C 
ATOM     18  C   UNL     1      33.495 -19.963 -21.022  0.00  0.00    +0.016 C 
ATOM     19  C   UNL     1      35.253 -21.260 -20.016  0.00  0.00    +0.016 C 
ATOM     20  C   UNL     1      32.591 -20.850 -20.460  0.00  0.00    +0.099 C 
ATOM     21  C   UNL     1      34.271 -22.089 -19.499  0.00  0.00    +0.099 C 
ENDBRANCH  15  17
ENDBRANCH  14  15
ENDBRANCH   5  14
ENDBRANCH   2  11
BRANCH   3  25
ATOM     22  F   UNL     1      31.237  -9.752 -18.092  0.00  0.00    -0.204 F 
ATOM     23  C   UNL     1      31.830  -9.140 -21.629  0.00  0.00    +0.050 C 
ATOM     24  C   UNL     1      32.037 -10.443 -22.084  0.00  0.00    +0.019 C 
ATOM     25  C   UNL     1      31.968 -11.482 -21.180  0.00  0.00    +0.057 C 
ATOM     26  C   UNL     1      31.560  -8.907 -20.281  0.00  0.00    +0.044 C 
ATOM     27  C   UNL     1      31.702 -11.278 -19.842  0.00  0.00    +0.034 C 
ATOM     28  C   UNL     1      31.496  -9.976 -19.387  0.00  0.00    +0.142 C 
BRANCH  23  30
ATOM     29  O   UNL     1      31.889  -5.765 -24.136  0.00  0.00    -0.350 OA
ATOM     30  N   UNL     1      31.895  -8.069 -22.525  0.00  0.00    -0.303 N 
ATOM     31  C   UNL     1      30.762  -7.790 -23.416  0.00  0.00    +0.123 C 
ATOM     32  C   UNL     1      32.698  -6.897 -22.149  0.00  0.00    +0.123 C 
ATOM     33  C   UNL     1      31.231  -6.945 -24.596  0.00  0.00    +0.164 C 
ATOM     34  C   UNL     1      33.063  -6.100 -23.396  0.00  0.00    +0.164 C 
ENDBRANCH  23  30
ENDBRANCH   3  25
TORSDOF 6
ENDMDL
MODEL 2
REMARK VINA RESULT:     -11.3      4.548     11.396
REMARK  Name = 5326869
REMARK  6 active torsions:
REMARK  status: ('A' for Active; 'I' for Inactive)
REMARK    1  A    between atoms: N_2  and  C_11
REMARK    2  A    between atoms: C_3  and  C_25
REMARK    3  A    between atoms: N_5  and  C_14
REMARK    4  A    between atoms: C_14  and  C_15
REMARK    5  A    between atoms: C_15  and  C_17
REMARK    6  A    between atoms: C_23  and  N_30
REMARK                            x       y       z     vdW  Elec       q    Type
REMARK                         _______ _______ _______ _____ _____    ______ ____
ROOT
ATOM      1  O   UNL     1      32.372 -21.120 -20.651  0.00  0.00    -0.270 OA
ATOM      2  N   UNL     1      34.587 -20.332 -20.605  0.00  0.00    -0.280 N 
ATOM      3  C   UNL     1      33.491 -21.078 -20.151  0.00  0.00    +0.250 C 
ATOM      4  H   UNL     1      35.415 -20.418 -20.079  0.00  0.00    +0.155 HD
ENDROOT
BRANCH   2  11
ATOM      5  N   UNL     1      34.713 -15.911 -22.760  0.00  0.00    -0.286 N 
ATOM      6  C   UNL     1      34.705 -17.284 -22.650  0.00  0.00    +0.053 C 
ATOM      7  C   UNL     1      34.777 -17.800 -23.945  0.00  0.00    +0.015 C 
ATOM      8  C   UNL     1      34.787 -15.544 -24.077  0.00  0.00    +0.065 C 
ATOM      9  C   UNL     1      34.640 -18.099 -21.514  0.00  0.00    +0.029 C 
ATOM     10  C   UNL     1      34.829 -16.690 -24.835  0.00  0.00    +0.017 C 
ATOM     11  C   UNL     1      34.649 -19.483 -21.711  0.00  0.00    +0.052 C 
ATOM     12  C   UNL     1      34.786 -19.198 -24.118  0.00  0.00    +0.003 C 
ATOM     13  C   UNL     1      34.721 -20.026 -22.992  0.00  0.00    +0.015 C 
BRANCH   5  14
ATOM     14  C   UNL     1      34.653 -14.979 -21.655  0.00  0.00    +0.100 C 
BRANCH  14  15
ATOM     15  C   UNL     1      33.242 -14.791 -21.089  0.00  0.00    +0.048 C 
BRANCH  15  17
ATOM     16  N   UNL     1      31.476 -11.027 -22.128  0.00  0.00    -0.242 NA
ATOM     17  C   UNL     1      32.621 -13.466 -21.454  0.00  0.00    -0.017 C 
ATOM     18  C   UNL     1      32.948 -12.869 -22.658  0.00  0.00    +0.016 C 
ATOM     19  C   UNL     1      31.733 -12.867 -20.581  0.00  0.00    +0.016 C 
ATOM     20  C   UNL     1      32.350 -11.653 -22.947  0.00  0.00    +0.099 C 
ATOM     21  C   UNL     1      31.190 -11.651 -20.963  0.00  0.00    +0.099 C 
ENDBRANCH  15  17
ENDBRANCH  14  15
ENDBRANCH   5  14
ENDBRANCH   2  11
BRANCH   3  25
ATOM     22  F   UNL     1      36.501 -23.012 -16.898  0.00  0.00    -0.204 F 
ATOM     23  C   UNL     1      32.870 -23.138 -17.084  0.00  0.00    +0.050 C 
ATOM     24  C   UNL     1      32.646 -22.393 -18.241  0.00  0.00    +0.019 C 
ATOM     25  C   UNL     1      33.729 -21.874 -18.919  0.00  0.00    +0.057 C 
ATOM     26  C   UNL     1      34.171 -23.347 -16.631  0.00  0.00    +0.044 C 
ATOM     27  C   UNL     1      35.026 -22.067 -18.492  0.00  0.00    +0.034 C 
ATOM     28  C   UNL     1      35.250 -22.812 -17.334  0.00  0.00    +0.142 C 
BRANCH  23  30
ATOM     29  O   UNL     1      29.588 -24.507 -14.838  0.00  0.00    -0.350 OA
ATOM     30  N   UNL     1      31.788 -23.675 -16.378  0.00  0.00    -0.303 N 
ATOM     31  C   UNL     1      31.989 -24.212 -15.027  0.00  0.00    +0.123 C 
ATOM     32  C   UNL     1      30.449 -23.132 -16.642  0.00  0.00    +0.123 C 
ATOM     33  C   UNL     1      30.847 -25.159 -14.674  0.00  0.00    +0.164 C 
ATOM     34  C   UNL     1      29.389 -24.135 -16.203  0.00  0.00    +0.164 C 
ENDBRANCH  23  30
ENDBRANCH   3  25
TORSDOF 6
ENDMDL
MODEL 3
REMARK VINA RESULT:     -11.2      4.659      8.845
REMARK  Name = 5326869
REMARK  6 active torsions:
REMARK  status: ('A' for Active; 'I' for Inactive)
REMARK    1  A    between atoms: N_2  and  C_11
REMARK    2  A    between atoms: C_3  and  C_25
REMARK    3  A    between atoms: N_5  and  C_14
REMARK    4  A    between atoms: C_14  and  C_15
REMARK    5  A    between atoms: C_15  and  C_17
REMARK    6  A    between atoms: C_23  and  N_30
REMARK                            x       y       z     vdW  Elec       q    Type
REMARK                         _______ _______ _______ _____ _____    ______ ____
ROOT
ATOM      1  O   UNL     1      36.785 -18.967 -20.528  0.00  0.00    -0.270 OA
ATOM      2  N   UNL     1      35.209 -20.711 -20.473  0.00  0.00    -0.280 N 
ATOM      3  C   UNL     1      35.846 -19.587 -21.016  0.00  0.00    +0.250 C 
ATOM      4  H   UNL     1      34.467 -21.084 -21.003  0.00  0.00    +0.155 HD
ENDROOT
BRANCH   2  11
ATOM      5  N   UNL     1      34.041 -23.493 -16.587  0.00  0.00    -0.286 N 
ATOM      6  C   UNL     1      34.816 -22.727 -17.428  0.00  0.00    +0.053 C 
ATOM      7  C   UNL     1      36.095 -22.672 -16.871  0.00  0.00    +0.015 C 
ATOM      8  C   UNL     1      34.784 -23.923 -15.521  0.00  0.00    +0.065 C 
ATOM      9  C   UNL     1      34.485 -22.084 -18.627  0.00  0.00    +0.029 C 
ATOM     10  C   UNL     1      36.060 -23.432 -15.668  0.00  0.00    +0.017 C 
ATOM     11  C   UNL     1      35.495 -21.365 -19.274  0.00  0.00    +0.052 C 
ATOM     12  C   UNL     1      37.096 -21.942 -17.543  0.00  0.00    +0.003 C 
ATOM     13  C   UNL     1      36.781 -21.294 -18.742  0.00  0.00    +0.015 C 
BRANCH   5  14
ATOM     14  C   UNL     1      32.643 -23.808 -16.787  0.00  0.00    +0.100 C 
BRANCH  14  15
ATOM     15  C   UNL     1      31.722 -23.206 -15.721  0.00  0.00    +0.048 C 
BRANCH  15  17
ATOM     16  N   UNL     1      27.583 -24.140 -16.325  0.00  0.00    -0.242 NA
ATOM     17  C   UNL     1      30.265 -23.534 -15.933  0.00  0.00    -0.017 C 
ATOM     18  C   UNL     1      29.485 -22.700 -16.711  0.00  0.00    +0.016 C 
ATOM     19  C   UNL     1      29.730 -24.666 -15.346  0.00  0.00    +0.016 C 
ATOM     20  C   UNL     1      28.154 -23.045 -16.876  0.00  0.00    +0.099 C 
ATOM     21  C   UNL     1      28.388 -24.923 -15.572  0.00  0.00    +0.099 C 
ENDBRANCH  15  17
ENDBRANCH  14  15
ENDBRANCH   5  14
ENDBRANCH   2  11
BRANCH   3  25
ATOM     22  F   UNL     1      34.357 -20.413 -25.541  0.00  0.00    -0.204 F 
ATOM     23  C   UNL     1      34.474 -17.306 -23.652  0.00  0.00    +0.050 C 
ATOM     24  C   UNL     1      34.997 -17.761 -22.442  0.00  0.00    +0.019 C 
ATOM     25  C   UNL     1      35.292 -19.101 -22.306  0.00  0.00    +0.057 C 
ATOM     26  C   UNL     1      34.259 -18.201 -24.699  0.00  0.00    +0.044 C 
ATOM     27  C   UNL     1      35.088 -20.007 -23.326  0.00  0.00    +0.034 C 
ATOM     28  C   UNL     1      34.565 -19.553 -24.536  0.00  0.00    +0.142 C 
BRANCH  23  30
ATOM     29  O   UNL     1      33.800 -13.199 -24.256  0.00  0.00    -0.350 OA
ATOM     30  N   UNL     1      34.167 -15.952 -23.816  0.00  0.00    -0.303 N 
ATOM     31  C   UNL     1      34.598 -14.976 -22.808  0.00  0.00    +0.123 C 
ATOM     32  C   UNL     1      34.047 -15.427 -25.183  0.00  0.00    +0.123 C 
ATOM     33  C   UNL     1      33.756 -13.710 -22.924  0.00  0.00    +0.164 C 
ATOM     34  C   UNL     1      33.235 -14.138 -25.172  0.00  0.00    +0.164 C 
ENDBRANCH  23  30
ENDBRANCH   3  25
TORSDOF 6
ENDMDL
MODEL 4
REMARK VINA RESULT:     -11.0      4.684     11.664
REMARK  Name = 5326869
REMARK  6 active torsions:
REMARK  status: ('A' for Active; 'I' for Inactive)
REMARK    1  A    between atoms: N_2  and  C_11
REMARK    2  A    between atoms: C_3  and  C_25
REMARK    3  A    between atoms: N_5  and  C_14
REMARK    4  A    between atoms: C_14  and  C_15
REMARK    5  A    between atoms: C_15  and  C_17
REMARK    6  A    between atoms: C_23  and  N_30
REMARK                            x       y       z     vdW  Elec       q    Type
REMARK                         _______ _______ _______ _____ _____    ______ ____
ROOT
ATOM      1  O   UNL     1      36.451 -21.371 -20.362  0.00  0.00    -0.270 OA
ATOM      2  N   UNL     1      34.377 -20.276 -20.520  0.00  0.00    -0.280 N 
ATOM      3  C   UNL     1      35.306 -21.171 -19.973  0.00  0.00    +0.250 C 
ATOM      4  H   UNL     1      33.497 -20.244 -20.079  0.00  0.00    +0.155 HD
ENDROOT
BRANCH   2  11
ATOM      5  N   UNL     1      34.755 -15.853 -22.640  0.00  0.00    -0.286 N 
ATOM      6  C   UNL     1      34.715 -17.225 -22.537  0.00  0.00    +0.053 C 
ATOM      7  C   UNL     1      34.887 -17.739 -23.824  0.00  0.00    +0.015 C 
ATOM      8  C   UNL     1      34.945 -15.483 -23.945  0.00  0.00    +0.065 C 
ATOM      9  C   UNL     1      34.542 -18.042 -21.413  0.00  0.00    +0.029 C 
ATOM     10  C   UNL     1      35.031 -16.629 -24.702  0.00  0.00    +0.017 C 
ATOM     11  C   UNL     1      34.545 -19.425 -21.614  0.00  0.00    +0.052 C 
ATOM     12  C   UNL     1      34.886 -19.137 -24.000  0.00  0.00    +0.003 C 
ATOM     13  C   UNL     1      34.714 -19.966 -22.886  0.00  0.00    +0.015 C 
BRANCH   5  14
ATOM     14  C   UNL     1      34.619 -14.922 -21.541  0.00  0.00    +0.100 C 
BRANCH  14  15
ATOM     15  C   UNL     1      33.174 -14.750 -21.061  0.00  0.00    +0.048 C 
BRANCH  15  17
ATOM     16  N   UNL     1      31.484 -10.947 -22.086  0.00  0.00    -0.242 NA
ATOM     17  C   UNL     1      32.578 -13.412 -21.422  0.00  0.00    -0.017 C 
ATOM     18  C   UNL     1      31.735 -12.779 -20.529  0.00  0.00    +0.016 C 
ATOM     19  C   UNL     1      32.886 -12.836 -22.641  0.00  0.00    +0.016 C 
ATOM     20  C   UNL     1      31.214 -11.552 -20.907  0.00  0.00    +0.099 C 
ATOM     21  C   UNL     1      32.314 -11.607 -22.924  0.00  0.00    +0.099 C 
ENDBRANCH  15  17
ENDBRANCH  14  15
ENDBRANCH   5  14
ENDBRANCH   2  11
BRANCH   3  25
ATOM     22  F   UNL     1      31.749 -23.464 -17.633  0.00  0.00    -0.204 F 
ATOM     23  C   UNL     1      35.252 -23.059 -16.738  0.00  0.00    +0.050 C 
ATOM     24  C   UNL     1      35.709 -22.310 -17.822  0.00  0.00    +0.019 C 
ATOM     25  C   UNL     1      34.819 -21.967 -18.817  0.00  0.00    +0.057 C 
ATOM     26  C   UNL     1      33.915 -23.448 -16.674  0.00  0.00    +0.044 C 
ATOM     27  C   UNL     1      33.491 -22.340 -18.778  0.00  0.00    +0.034 C 
ATOM     28  C   UNL     1      33.033 -23.089 -17.694  0.00  0.00    +0.142 C 
BRANCH  23  30
ATOM     29  O   UNL     1      37.925 -23.875 -13.596  0.00  0.00    -0.350 OA
ATOM     30  N   UNL     1      36.135 -23.420 -15.715  0.00  0.00    -0.303 N 
ATOM     31  C   UNL     1      37.583 -23.358 -15.942  0.00  0.00    +0.123 C 
ATOM     32  C   UNL     1      35.710 -23.207 -14.324  0.00  0.00    +0.123 C 
ATOM     33  C   UNL     1      38.302 -24.237 -14.924  0.00  0.00    +0.164 C 
ATOM     34  C   UNL     1      36.529 -24.093 -13.393  0.00  0.00    +0.164 C 
ENDBRANCH  23  30
ENDBRANCH   3  25
TORSDOF 6
ENDMDL
MODEL 5
REMARK VINA RESULT:     -10.4      3.362      6.452
REMARK  Name = 5326869
REMARK  6 active torsions:
REMARK  status: ('A' for Active; 'I' for Inactive)
REMARK    1  A    between atoms: N_2  and  C_11
REMARK    2  A    between atoms: C_3  and  C_25
REMARK    3  A    between atoms: N_5  and  C_14
REMARK    4  A    between atoms: C_14  and  C_15
REMARK    5  A    between atoms: C_15  and  C_17
REMARK    6  A    between atoms: C_23  and  N_30
REMARK                            x       y       z     vdW  Elec       q    Type
REMARK                         _______ _______ _______ _____ _____    ______ ____
ROOT
ATOM      1  O   UNL     1      35.008  -8.182 -23.633  0.00  0.00    -0.270 OA
ATOM      2  N   UNL     1      32.678  -7.982 -23.388  0.00  0.00    -0.280 N 
ATOM      3  C   UNL     1      33.945  -7.615 -23.861  0.00  0.00    +0.250 C 
ATOM      4  H   UNL     1      31.929  -7.409 -23.671  0.00  0.00    +0.155 HD
ENDROOT
BRANCH   2  11
ATOM      5  N   UNL     1      32.256 -12.775 -22.364  0.00  0.00    -0.286 N 
ATOM      6  C   UNL     1      32.186 -11.413 -22.174  0.00  0.00    +0.053 C 
ATOM      7  C   UNL     1      31.681 -11.203 -20.890  0.00  0.00    +0.015 C 
ATOM      8  C   UNL     1      31.813 -13.431 -21.246  0.00  0.00    +0.065 C 
ATOM      9  C   UNL     1      32.529 -10.363 -23.034  0.00  0.00    +0.029 C 
ATOM     10  C   UNL     1      31.450 -12.484 -20.316  0.00  0.00    +0.017 C 
ATOM     11  C   UNL     1      32.348  -9.059 -22.564  0.00  0.00    +0.052 C 
ATOM     12  C   UNL     1      31.508  -9.879 -20.439  0.00  0.00    +0.003 C 
ATOM     13  C   UNL     1      31.846  -8.819 -21.287  0.00  0.00    +0.015 C 
BRANCH   5  14
ATOM     14  C   UNL     1      32.728 -13.435 -23.563  0.00  0.00    +0.100 C 
BRANCH  14  15
ATOM     15  C   UNL     1      34.216 -13.793 -23.517  0.00  0.00    +0.048 C 
BRANCH  15  17
ATOM     16  N   UNL     1      34.961 -18.010 -23.696  0.00  0.00    -0.242 NA
ATOM     17  C   UNL     1      34.477 -15.277 -23.580  0.00  0.00    -0.017 C 
ATOM     18  C   UNL     1      34.329 -15.945 -24.781  0.00  0.00    +0.016 C 
ATOM     19  C   UNL     1      34.864 -15.950 -22.435  0.00  0.00    +0.016 C 
ATOM     20  C   UNL     1      34.581 -17.307 -24.786  0.00  0.00    +0.099 C 
ATOM     21  C   UNL     1      35.093 -17.311 -22.546  0.00  0.00    +0.099 C 
ENDBRANCH  15  17
ENDBRANCH  14  15
ENDBRANCH   5  14
ENDBRANCH   2  11
BRANCH   3  25
ATOM     22  F   UNL     1      36.186  -4.765 -27.061  0.00  0.00    -0.204 F 
ATOM     23  C   UNL     1      32.937  -4.384 -25.469  0.00  0.00    +0.050 C 
ATOM     24  C   UNL     1      32.904  -5.531 -24.675  0.00  0.00    +0.019 C 
ATOM     25  C   UNL     1      33.980  -6.392 -24.705  0.00  0.00    +0.057 C 
ATOM     26  C   UNL     1      34.045  -4.126 -26.274  0.00  0.00    +0.044 C 
ATOM     27  C   UNL     1      35.089  -6.159 -25.493  0.00  0.00    +0.034 C 
ATOM     28  C   UNL     1      35.122  -5.013 -26.287  0.00  0.00    +0.142 C 
BRANCH  23  30
ATOM     29  O   UNL     1      29.524  -1.928 -25.441  0.00  0.00    -0.350 OA
ATOM     30  N   UNL     1      31.858  -3.494 -25.457  0.00  0.00    -0.303 N 
ATOM     31  C   UNL     1      31.228  -3.090 -26.719  0.00  0.00    +0.123 C 
ATOM     32  C   UNL     1      30.970  -3.498 -24.286  0.00  0.00    +0.123 C 
ATOM     33  C   UNL     1      30.454  -1.792 -26.515  0.00  0.00    +0.164 C 
ATOM     34  C   UNL     1      30.209  -2.179 -24.213  0.00  0.00    +0.164 C 
ENDBRANCH  23  30
ENDBRANCH   3  25
TORSDOF 6
ENDMDL
MODEL 6
REMARK VINA RESULT:     -10.3      3.421      6.680
REMARK  Name = 5326869
REMARK  6 active torsions:
REMARK  status: ('A' for Active; 'I' for Inactive)
REMARK    1  A    between atoms: N_2  and  C_11
REMARK    2  A    between atoms: C_3  and  C_25
REMARK    3  A    between atoms: N_5  and  C_14
REMARK    4  A    between atoms: C_14  and  C_15
REMARK    5  A    between atoms: C_15  and  C_17
REMARK    6  A    between atoms: C_23  and  N_30
REMARK                            x       y       z     vdW  Elec       q    Type
REMARK                         _______ _______ _______ _____ _____    ______ ____
ROOT
ATOM      1  O   UNL     1      34.524  -7.388 -22.911  0.00  0.00    -0.270 OA
ATOM      2  N   UNL     1      32.207  -7.765 -23.052  0.00  0.00    -0.280 N 
ATOM      3  C   UNL     1      33.404  -7.080 -23.304  0.00  0.00    +0.250 C 
ATOM      4  H   UNL     1      31.395  -7.374 -23.448  0.00  0.00    +0.155 HD
ENDROOT
BRANCH   2  11
ATOM      5  N   UNL     1      32.259 -12.647 -22.441  0.00  0.00    -0.286 N 
ATOM      6  C   UNL     1      32.089 -11.317 -22.125  0.00  0.00    +0.053 C 
ATOM      7  C   UNL     1      31.657 -11.262 -20.799  0.00  0.00    +0.015 C 
ATOM      8  C   UNL     1      31.950 -13.431 -21.362  0.00  0.00    +0.065 C 
ATOM      9  C   UNL     1      32.282 -10.172 -22.906  0.00  0.00    +0.029 C 
ATOM     10  C   UNL     1      31.575 -12.603 -20.329  0.00  0.00    +0.017 C 
ATOM     11  C   UNL     1      32.026  -8.933 -22.310  0.00  0.00    +0.052 C 
ATOM     12  C   UNL     1      31.406 -10.002 -20.220  0.00  0.00    +0.003 C 
ATOM     13  C   UNL     1      31.595  -8.848 -20.988  0.00  0.00    +0.015 C 
BRANCH   5  14
ATOM     14  C   UNL     1      32.700 -13.158 -23.721  0.00  0.00    +0.100 C 
BRANCH  14  15
ATOM     15  C   UNL     1      34.177 -13.564 -23.740  0.00  0.00    +0.048 C 
BRANCH  15  17
ATOM     16  N   UNL     1      34.772 -17.808 -23.752  0.00  0.00    -0.242 NA
ATOM     17  C   UNL     1      34.388 -15.058 -23.745  0.00  0.00    -0.017 C 
ATOM     18  C   UNL     1      34.794 -15.692 -22.586  0.00  0.00    +0.016 C 
ATOM     19  C   UNL     1      34.169 -15.772 -24.908  0.00  0.00    +0.016 C 
ATOM     20  C   UNL     1      34.972 -17.065 -22.641  0.00  0.00    +0.099 C 
ATOM     21  C   UNL     1      34.375 -17.141 -24.859  0.00  0.00    +0.099 C 
ENDBRANCH  15  17
ENDBRANCH  14  15
ENDBRANCH   5  14
ENDBRANCH   2  11
BRANCH   3  25
ATOM     22  F   UNL     1      31.386  -2.756 -24.088  0.00  0.00    -0.204 F 
ATOM     23  C   UNL     1      33.923  -4.530 -25.999  0.00  0.00    +0.050 C 
ATOM     24  C   UNL     1      34.048  -5.695 -25.242  0.00  0.00    +0.019 C 
ATOM     25  C   UNL     1      33.270  -5.841 -24.112  0.00  0.00    +0.057 C 
ATOM     26  C   UNL     1      33.025  -3.538 -25.610  0.00  0.00    +0.044 C 
ATOM     27  C   UNL     1      32.374  -4.875 -23.705  0.00  0.00    +0.034 C 
ATOM     28  C   UNL     1      32.249  -3.710 -24.463  0.00  0.00    +0.142 C 
BRANCH  23  30
ATOM     29  O   UNL     1      36.420  -3.838 -29.311  0.00  0.00    -0.350 OA
ATOM     30  N   UNL     1      34.701  -4.358 -27.149  0.00  0.00    -0.303 N 
ATOM     31  C   UNL     1      34.449  -3.218 -28.039  0.00  0.00    +0.123 C 
ATOM     32  C   UNL     1      36.088  -4.840 -27.127  0.00  0.00    +0.123 C 
ATOM     33  C   UNL     1      35.037  -3.501 -29.417  0.00  0.00    +0.164 C 
ATOM     34  C   UNL     1      36.589  -5.036 -28.553  0.00  0.00    +0.164 C 
ENDBRANCH  23  30
ENDBRANCH   3  25
TORSDOF 6
ENDMDL
MODEL 7
REMARK VINA RESULT:     -10.2      3.460     10.181
REMARK  Name = 5326869
REMARK  6 active torsions:
REMARK  status: ('A' for Active; 'I' for Inactive)
REMARK    1  A    between atoms: N_2  and  C_11
REMARK    2  A    between atoms: C_3  and  C_25
REMARK    3  A    between atoms: N_5  and  C_14
REMARK    4  A    between atoms: C_14  and  C_15
REMARK    5  A    between atoms: C_15  and  C_17
REMARK    6  A    between atoms: C_23  and  N_30
REMARK                            x       y       z     vdW  Elec       q    Type
REMARK                         _______ _______ _______ _____ _____    ______ ____
ROOT
ATOM      1  O   UNL     1      34.574 -14.157 -21.050  0.00  0.00    -0.270 OA
ATOM      2  N   UNL     1      33.118 -13.812 -22.863  0.00  0.00    -0.280 N 
ATOM      3  C   UNL     1      34.046 -14.526 -22.093  0.00  0.00    +0.250 C 
ATOM      4  H   UNL     1      32.796 -14.264 -23.677  0.00  0.00    +0.155 HD
ENDROOT
BRANCH   2  11
ATOM      5  N   UNL     1      33.058  -8.915 -23.324  0.00  0.00    -0.286 N 
ATOM      6  C   UNL     1      32.663 -10.168 -22.913  0.00  0.00    +0.053 C 
ATOM      7  C   UNL     1      31.527 -10.002 -22.119  0.00  0.00    +0.015 C 
ATOM      8  C   UNL     1      32.212  -7.965 -22.817  0.00  0.00    +0.065 C 
ATOM      9  C   UNL     1      33.221 -11.424 -23.181  0.00  0.00    +0.029 C 
ATOM     10  C   UNL     1      31.253  -8.607 -22.067  0.00  0.00    +0.017 C 
ATOM     11  C   UNL     1      32.596 -12.542 -22.620  0.00  0.00    +0.052 C 
ATOM     12  C   UNL     1      30.915 -11.144 -21.564  0.00  0.00    +0.003 C 
ATOM     13  C   UNL     1      31.461 -12.406 -21.824  0.00  0.00    +0.015 C 
BRANCH   5  14
ATOM     14  C   UNL     1      34.196  -8.626 -24.168  0.00  0.00    +0.100 C 
BRANCH  14  15
ATOM     15  C   UNL     1      33.840  -8.500 -25.653  0.00  0.00    +0.048 C 
BRANCH  15  17
ATOM     16  N   UNL     1      34.271 -12.172 -27.820  0.00  0.00    -0.242 NA
ATOM     17  C   UNL     1      33.992  -9.792 -26.416  0.00  0.00    -0.017 C 
ATOM     18  C   UNL     1      35.247 -10.196 -26.829  0.00  0.00    +0.016 C 
ATOM     19  C   UNL     1      32.873 -10.556 -26.691  0.00  0.00    +0.016 C 
ATOM     20  C   UNL     1      35.334 -11.390 -27.526  0.00  0.00    +0.099 C 
ATOM     21  C   UNL     1      33.065 -11.734 -27.394  0.00  0.00    +0.099 C 
ENDBRANCH  15  17
ENDBRANCH  14  15
ENDBRANCH   5  14
ENDBRANCH   2  11
BRANCH   3  25
ATOM     22  F   UNL     1      34.821 -17.499 -25.827  0.00  0.00    -0.204 F 
ATOM     23  C   UNL     1      35.138 -18.106 -22.254  0.00  0.00    +0.050 C 
ATOM     24  C   UNL     1      34.773 -16.859 -21.748  0.00  0.00    +0.019 C 
ATOM     25  C   UNL     1      34.432 -15.856 -22.631  0.00  0.00    +0.057 C 
ATOM     26  C   UNL     1      35.153 -18.323 -23.631  0.00  0.00    +0.044 C 
ATOM     27  C   UNL     1      34.440 -16.044 -23.998  0.00  0.00    +0.034 C 
ATOM     28  C   UNL     1      34.804 -17.292 -24.504  0.00  0.00    +0.142 C 
BRANCH  23  30
ATOM     29  O   UNL     1      36.323 -21.336 -19.835  0.00  0.00    -0.350 OA
ATOM     30  N   UNL     1      35.488 -19.140 -21.380  0.00  0.00    -0.303 N 
ATOM     31  C   UNL     1      34.676 -20.362 -21.327  0.00  0.00    +0.123 C 
ATOM     32  C   UNL     1      36.908 -19.319 -21.050  0.00  0.00    +0.123 C 
ATOM     33  C   UNL     1      34.928 -21.092 -20.012  0.00  0.00    +0.164 C 
ATOM     34  C   UNL     1      37.041 -20.105 -19.751  0.00  0.00    +0.164 C 
ENDBRANCH  23  30
ENDBRANCH   3  25
TORSDOF 6
ENDMDL
MODEL 8
REMARK VINA RESULT:     -10.2      3.203     11.352
REMARK  Name = 5326869
REMARK  6 active torsions:
REMARK  status: ('A' for Active; 'I' for Inactive)
REMARK    1  A    between atoms: N_2  and  C_11
REMARK    2  A    between atoms: C_3  and  C_25
REMARK    3  A    between atoms: N_5  and  C_14
REMARK    4  A    between atoms: C_14  and  C_15
REMARK    5  A    between atoms: C_15  and  C_17
REMARK    6  A    between atoms: C_23  and  N_30
REMARK                            x       y       z     vdW  Elec       q    Type
REMARK                         _______ _______ _______ _____ _____    ______ ____
ROOT
ATOM      1  O   UNL     1      34.568 -14.050 -20.990  0.00  0.00    -0.270 OA
ATOM      2  N   UNL     1      33.091 -13.684 -22.782  0.00  0.00    -0.280 N 
ATOM      3  C   UNL     1      34.033 -14.404 -22.035  0.00  0.00    +0.250 C 
ATOM      4  H   UNL     1      32.765 -14.122 -23.602  0.00  0.00    +0.155 HD
ENDROOT
BRANCH   2  11
ATOM      5  N   UNL     1      32.811  -8.805 -23.342  0.00  0.00    -0.286 N 
ATOM      6  C   UNL     1      32.509 -10.059 -22.860  0.00  0.00    +0.053 C 
ATOM      7  C   UNL     1      31.469  -9.907 -21.942  0.00  0.00    +0.015 C 
ATOM      8  C   UNL     1      31.998  -7.868 -22.761  0.00  0.00    +0.065 C 
ATOM      9  C   UNL     1      33.075 -11.303 -23.163  0.00  0.00    +0.029 C 
ATOM     10  C   UNL     1      31.156  -8.520 -21.890  0.00  0.00    +0.017 C 
ATOM     11  C   UNL     1      32.558 -12.424 -22.508  0.00  0.00    +0.052 C 
ATOM     12  C   UNL     1      30.964 -11.052 -21.293  0.00  0.00    +0.003 C 
ATOM     13  C   UNL     1      31.519 -12.303 -21.587  0.00  0.00    +0.015 C 
BRANCH   5  14
ATOM     14  C   UNL     1      33.833  -8.503 -24.321  0.00  0.00    +0.100 C 
BRANCH  14  15
ATOM     15  C   UNL     1      34.699  -7.296 -23.947  0.00  0.00    +0.048 C 
BRANCH  15  17
ATOM     16  N   UNL     1      34.048  -3.887 -26.461  0.00  0.00    -0.242 NA
ATOM     17  C   UNL     1      34.469  -6.097 -24.833  0.00  0.00    -0.017 C 
ATOM     18  C   UNL     1      33.418  -5.241 -24.562  0.00  0.00    +0.016 C 
ATOM     19  C   UNL     1      35.315  -5.868 -25.902  0.00  0.00    +0.016 C 
ATOM     20  C   UNL     1      33.250  -4.154 -25.404  0.00  0.00    +0.099 C 
ATOM     21  C   UNL     1      35.062  -4.753 -26.684  0.00  0.00    +0.099 C 
ENDBRANCH  15  17
ENDBRANCH  14  15
ENDBRANCH   5  14
ENDBRANCH   2  11
BRANCH   3  25
ATOM     22  F   UNL     1      34.908 -17.259 -25.838  0.00  0.00    -0.204 F 
ATOM     23  C   UNL     1      35.107 -17.985 -22.279  0.00  0.00    +0.050 C 
ATOM     24  C   UNL     1      34.734 -16.752 -21.744  0.00  0.00    +0.019 C 
ATOM     25  C   UNL     1      34.428 -15.718 -22.604  0.00  0.00    +0.057 C 
ATOM     26  C   UNL     1      35.165 -18.156 -23.661  0.00  0.00    +0.044 C 
ATOM     27  C   UNL     1      34.478 -15.862 -23.975  0.00  0.00    +0.034 C 
ATOM     28  C   UNL     1      34.851 -17.095 -24.510  0.00  0.00    +0.142 C 
BRANCH  23  30
ATOM     29  O   UNL     1      36.170 -21.312 -19.938  0.00  0.00    -0.350 OA
ATOM     30  N   UNL     1      35.422 -19.049 -21.428  0.00  0.00    -0.303 N 
ATOM     31  C   UNL     1      34.533 -20.215 -21.353  0.00  0.00    +0.123 C 
ATOM     32  C   UNL     1      36.839 -19.326 -21.159  0.00  0.00    +0.123 C 
ATOM     33  C   UNL     1      34.788 -20.974 -20.056  0.00  0.00    +0.164 C 
ATOM     34  C   UNL     1      36.972 -20.133 -19.872  0.00  0.00    +0.164 C 
ENDBRANCH  23  30
ENDBRANCH   3  25
TORSDOF 6
ENDMDL
MODEL 9
REMARK VINA RESULT:      -9.7      4.209      7.827
REMARK  Name = 5326869
REMARK  6 active torsions:
REMARK  status: ('A' for Active; 'I' for Inactive)
REMARK    1  A    between atoms: N_2  and  C_11
REMARK    2  A    between atoms: C_3  and  C_25
REMARK    3  A    between atoms: N_5  and  C_14
REMARK    4  A    between atoms: C_14  and  C_15
REMARK    5  A    between atoms: C_15  and  C_17
REMARK    6  A    between atoms: C_23  and  N_30
REMARK                            x       y       z     vdW  Elec       q    Type
REMARK                         _______ _______ _______ _____ _____    ______ ____
ROOT
ATOM      1  O   UNL     1      35.112  -7.117 -23.601  0.00  0.00    -0.270 OA
ATOM      2  N   UNL     1      32.763  -7.095 -23.682  0.00  0.00    -0.280 N 
ATOM      3  C   UNL     1      34.055  -6.740 -24.093  0.00  0.00    +0.250 C 
ATOM      4  H   UNL     1      32.023  -6.696 -24.194  0.00  0.00    +0.155 HD
ENDROOT
BRANCH   2  11
ATOM      5  N   UNL     1      32.006 -11.516 -21.660  0.00  0.00    -0.286 N 
ATOM      6  C   UNL     1      32.064 -10.143 -21.756  0.00  0.00    +0.053 C 
ATOM      7  C   UNL     1      31.661  -9.628 -20.523  0.00  0.00    +0.015 C 
ATOM      8  C   UNL     1      31.582 -11.883 -20.411  0.00  0.00    +0.065 C 
ATOM      9  C   UNL     1      32.437  -9.328 -22.832  0.00  0.00    +0.029 C 
ATOM     10  C   UNL     1      31.361 -10.737 -19.684  0.00  0.00    +0.017 C 
ATOM     11  C   UNL     1      32.397  -7.944 -22.637  0.00  0.00    +0.052 C 
ATOM     12  C   UNL     1      31.629  -8.229 -20.351  0.00  0.00    +0.003 C 
ATOM     13  C   UNL     1      32.000  -7.402 -21.417  0.00  0.00    +0.015 C 
BRANCH   5  14
ATOM     14  C   UNL     1      32.343 -12.448 -22.714  0.00  0.00    +0.100 C 
BRANCH  14  15
ATOM     15  C   UNL     1      33.238 -13.600 -22.248  0.00  0.00    +0.048 C 
BRANCH  15  17
ATOM     16  N   UNL     1      34.469 -16.194 -25.430  0.00  0.00    -0.242 NA
ATOM     17  C   UNL     1      33.671 -14.514 -23.368  0.00  0.00    -0.017 C 
ATOM     18  C   UNL     1      33.165 -14.319 -24.639  0.00  0.00    +0.016 C 
ATOM     19  C   UNL     1      34.569 -15.532 -23.107  0.00  0.00    +0.016 C 
ATOM     20  C   UNL     1      33.594 -15.184 -25.633  0.00  0.00    +0.099 C 
ATOM     21  C   UNL     1      34.935 -16.342 -24.169  0.00  0.00    +0.099 C 
ENDBRANCH  15  17
ENDBRANCH  14  15
ENDBRANCH   5  14
ENDBRANCH   2  11
BRANCH   3  25
ATOM     22  F   UNL     1      32.039  -3.310 -26.841  0.00  0.00    -0.204 F 
ATOM     23  C   UNL     1      35.340  -4.825 -27.046  0.00  0.00    +0.050 C 
ATOM     24  C   UNL     1      35.277  -5.723 -25.980  0.00  0.00    +0.019 C 
ATOM     25  C   UNL     1      34.122  -5.786 -25.230  0.00  0.00    +0.057 C 
ATOM     26  C   UNL     1      34.247  -4.011 -27.337  0.00  0.00    +0.044 C 
ATOM     27  C   UNL     1      33.026  -4.991 -25.497  0.00  0.00    +0.034 C 
ATOM     28  C   UNL     1      33.089  -4.093 -26.563  0.00  0.00    +0.142 C 
BRANCH  23  30
ATOM     29  O   UNL     1      38.927  -4.794 -29.241  0.00  0.00    -0.350 OA
ATOM     30  N   UNL     1      36.500  -4.743 -27.822  0.00  0.00    -0.303 N 
ATOM     31  C   UNL     1      37.672  -4.020 -27.314  0.00  0.00    +0.123 C 
ATOM     32  C   UNL     1      36.798  -5.847 -28.745  0.00  0.00    +0.123 C 
ATOM     33  C   UNL     1      38.586  -3.640 -28.474  0.00  0.00    +0.164 C 
ATOM     34  C   UNL     1      37.759  -5.370 -29.828  0.00  0.00    +0.164 C 
ENDBRANCH  23  30
ENDBRANCH   3  25
TORSDOF 6
ENDMDL
