MODEL 1
REMARK VINA RESULT:     -12.1      0.000      0.000
REMARK  Name = 11634458
REMARK  5 active torsions:
REMARK  status: ('A' for Active; 'I' for Inactive)
REMARK    1  A    between atoms: N_3  and  C_11
REMARK    2  A    between atoms: C_4  and  C_19
REMARK    3  A    between atoms: C_5  and  O_35
REMARK    4  A    between atoms: N_18  and  C_22
REMARK    5  A    between atoms: C_25  and  N_29
REMARK                            x       y       z     vdW  Elec       q    Type
REMARK                         _______ _______ _______ _____ _____    ______ ____
ROOT
ATOM      1  O   UNL     1      31.769 -23.711 -13.132  0.00  0.00    -0.252 OA
ATOM      2  N   UNL     1      33.664 -24.194 -14.337  0.00  0.00    -0.255 N 
ATOM      3  N   UNL     1      31.653 -23.744 -15.460  0.00  0.00    -0.268 N 
ATOM      4  C   UNL     1      34.406 -24.567 -15.540  0.00  0.00    +0.156 C 
ATOM      5  C   UNL     1      35.898 -24.598 -13.650  0.00  0.00    +0.137 C 
ATOM      6  C   UNL     1      35.684 -25.229 -15.024  0.00  0.00    +0.061 C 
ATOM      7  C   UNL     1      34.486 -24.353 -13.140  0.00  0.00    +0.125 C 
ATOM      8  C   UNL     1      32.303 -23.869 -14.232  0.00  0.00    +0.308 C 
ATOM      9  H   UNL     1      32.207 -23.898 -16.260  0.00  0.00    +0.156 HD
ENDROOT
BRANCH   3  11
ATOM     10 CL   UNL     1      25.971 -22.393 -16.447  0.00  0.00    -0.082 Cl
ATOM     11  C   UNL     1      30.294 -23.421 -15.696  0.00  0.00    +0.052 C 
ATOM     12  C   UNL     1      29.707 -22.356 -15.018  0.00  0.00    +0.016 C 
ATOM     13  C   UNL     1      29.552 -24.170 -16.606  0.00  0.00    +0.016 C 
ATOM     14  C   UNL     1      28.369 -22.038 -15.250  0.00  0.00    +0.013 C 
ATOM     15  C   UNL     1      28.214 -23.852 -16.838  0.00  0.00    +0.013 C 
ATOM     16  C   UNL     1      27.623 -22.786 -16.160  0.00  0.00    +0.058 C 
ENDBRANCH   3  11
BRANCH   4  19
ATOM     17  O   UNL     1      35.273 -22.369 -15.775  0.00  0.00    -0.273 OA
ATOM     18  N   UNL     1      34.300 -23.433 -17.634  0.00  0.00    -0.281 N 
ATOM     19  C   UNL     1      34.719 -23.321 -16.315  0.00  0.00    +0.244 C 
ATOM     20  H   UNL     1      33.868 -24.282 -17.883  0.00  0.00    +0.155 HD
BRANCH  18  22
ATOM     21  F   UNL     1      32.060 -22.220 -18.740  0.00  0.00    -0.203 F 
ATOM     22  C   UNL     1      34.421 -22.468 -18.661  0.00  0.00    +0.078 C 
ATOM     23  C   UNL     1      33.280 -21.886 -19.186  0.00  0.00    +0.155 C 
ATOM     24  C   UNL     1      35.683 -22.128 -19.121  0.00  0.00    +0.018 C 
ATOM     25  C   UNL     1      34.666 -20.582 -20.674  0.00  0.00    +0.061 C 
ATOM     26  C   UNL     1      33.403 -20.936 -20.200  0.00  0.00    +0.046 C 
ATOM     27  C   UNL     1      35.805 -21.178 -20.135  0.00  0.00    +0.017 C 
BRANCH  25  29
ATOM     28  O   UNL     1      36.509 -18.353 -20.663  0.00  0.00    -0.269 OA
ATOM     29  N   UNL     1      34.793 -19.594 -21.729  0.00  0.00    -0.233 N 
ATOM     30  C   UNL     1      35.767 -18.568 -21.622  0.00  0.00    +0.257 C 
ATOM     31  C   UNL     1      33.949 -19.631 -22.841  0.00  0.00    +0.072 C 
ATOM     32  C   UNL     1      35.864 -17.620 -22.774  0.00  0.00    +0.059 C 
ATOM     33  C   UNL     1      34.034 -18.750 -23.842  0.00  0.00    +0.017 C 
ATOM     34  C   UNL     1      35.027 -17.720 -23.809  0.00  0.00    +0.006 C 
ENDBRANCH  25  29
ENDBRANCH  18  22
ENDBRANCH   4  19
BRANCH   5  35
ATOM     35  O   UNL     1      36.593 -23.365 -13.792  0.00  0.00    -0.352 OA
ATOM     36  C   UNL     1      37.199 -22.965 -12.570  0.00  0.00    +0.174 C 
ENDBRANCH   5  35
TORSDOF 5
ENDMDL
MODEL 2
REMARK VINA RESULT:     -11.0      2.068      2.879
REMARK  Name = 11634458
REMARK  5 active torsions:
REMARK  status: ('A' for Active; 'I' for Inactive)
REMARK    1  A    between atoms: N_3  and  C_11
REMARK    2  A    between atoms: C_4  and  C_19
REMARK    3  A    between atoms: C_5  and  O_35
REMARK    4  A    between atoms: N_18  and  C_22
REMARK    5  A    between atoms: C_25  and  N_29
REMARK                            x       y       z     vdW  Elec       q    Type
REMARK                         _______ _______ _______ _____ _____    ______ ____
ROOT
ATOM      1  O   UNL     1      33.476 -23.590 -12.204  0.00  0.00    -0.252 OA
ATOM      2  N   UNL     1      35.290 -24.776 -12.965  0.00  0.00    -0.255 N 
ATOM      3  N   UNL     1      33.304 -24.755 -14.216  0.00  0.00    -0.268 N 
ATOM      4  C   UNL     1      35.967 -25.760 -13.808  0.00  0.00    +0.156 C 
ATOM      5  C   UNL     1      37.491 -24.992 -12.110  0.00  0.00    +0.137 C 
ATOM      6  C   UNL     1      37.189 -26.195 -13.000  0.00  0.00    +0.061 C 
ATOM      7  C   UNL     1      36.120 -24.399 -11.824  0.00  0.00    +0.125 C 
ATOM      8  C   UNL     1      33.967 -24.318 -13.068  0.00  0.00    +0.308 C 
ATOM      9  H   UNL     1      33.823 -25.333 -14.821  0.00  0.00    +0.156 HD
ENDROOT
BRANCH   3  11
ATOM     10 CL   UNL     1      27.751 -23.551 -15.888  0.00  0.00    -0.082 Cl
ATOM     11  C   UNL     1      31.976 -24.467 -14.616  0.00  0.00    +0.052 C 
ATOM     12  C   UNL     1      31.694 -23.271 -15.269  0.00  0.00    +0.016 C 
ATOM     13  C   UNL     1      30.960 -25.382 -14.352  0.00  0.00    +0.016 C 
ATOM     14  C   UNL     1      30.385 -22.987 -15.663  0.00  0.00    +0.013 C 
ATOM     15  C   UNL     1      29.652 -25.098 -14.746  0.00  0.00    +0.013 C 
ATOM     16  C   UNL     1      29.365 -23.901 -15.401  0.00  0.00    +0.058 C 
ENDBRANCH   3  11
BRANCH   4  19
ATOM     17  O   UNL     1      37.380 -25.454 -15.691  0.00  0.00    -0.273 OA
ATOM     18  N   UNL     1      35.490 -24.078 -15.429  0.00  0.00    -0.281 N 
ATOM     19  C   UNL     1      36.375 -25.092 -15.087  0.00  0.00    +0.244 C 
ATOM     20  H   UNL     1      34.736 -23.933 -14.812  0.00  0.00    +0.155 HD
BRANCH  18  22
ATOM     21  F   UNL     1      37.651 -22.388 -15.856  0.00  0.00    -0.203 F 
ATOM     22  C   UNL     1      35.545 -23.230 -16.560  0.00  0.00    +0.078 C 
ATOM     23  C   UNL     1      36.640 -22.402 -16.737  0.00  0.00    +0.155 C 
ATOM     24  C   UNL     1      34.498 -23.247 -17.467  0.00  0.00    +0.018 C 
ATOM     25  C   UNL     1      35.645 -21.571 -18.775  0.00  0.00    +0.061 C 
ATOM     26  C   UNL     1      36.691 -21.566 -17.852  0.00  0.00    +0.046 C 
ATOM     27  C   UNL     1      34.549 -22.411 -18.582  0.00  0.00    +0.017 C 
BRANCH  25  29
ATOM     28  O   UNL     1      33.422 -20.991 -20.533  0.00  0.00    -0.269 OA
ATOM     29  N   UNL     1      35.698 -20.701 -19.935  0.00  0.00    -0.233 N 
ATOM     30  C   UNL     1      34.524 -20.465 -20.696  0.00  0.00    +0.257 C 
ATOM     31  C   UNL     1      36.902 -20.110 -20.323  0.00  0.00    +0.072 C 
ATOM     32  C   UNL     1      34.655 -19.519 -21.846  0.00  0.00    +0.059 C 
ATOM     33  C   UNL     1      37.000 -19.294 -21.377  0.00  0.00    +0.017 C 
ATOM     34  C   UNL     1      35.838 -18.985 -22.155  0.00  0.00    +0.006 C 
ENDBRANCH  25  29
ENDBRANCH  18  22
ENDBRANCH   4  19
BRANCH   5  35
ATOM     35  O   UNL     1      38.295 -24.058 -12.823  0.00  0.00    -0.352 OA
ATOM     36  C   UNL     1      37.926 -22.719 -12.524  0.00  0.00    +0.174 C 
ENDBRANCH   5  35
TORSDOF 5
ENDMDL
MODEL 3
REMARK VINA RESULT:      -9.2      9.676     14.980
REMARK  Name = 11634458
REMARK  5 active torsions:
REMARK  status: ('A' for Active; 'I' for Inactive)
REMARK    1  A    between atoms: N_3  and  C_11
REMARK    2  A    between atoms: C_4  and  C_19
REMARK    3  A    between atoms: C_5  and  O_35
REMARK    4  A    between atoms: N_18  and  C_22
REMARK    5  A    between atoms: C_25  and  N_29
REMARK                            x       y       z     vdW  Elec       q    Type
REMARK                         _______ _______ _______ _____ _____    ______ ____
ROOT
ATOM      1  O   UNL     1      33.285  -5.909 -22.089  0.00  0.00    -0.252 OA
ATOM      2  N   UNL     1      32.098  -7.876 -22.050  0.00  0.00    -0.255 N 
ATOM      3  N   UNL     1      33.056  -7.134 -24.059  0.00  0.00    -0.268 N 
ATOM      4  C   UNL     1      31.386  -9.002 -22.651  0.00  0.00    +0.156 C 
ATOM      5  C   UNL     1      31.067  -9.048 -20.265  0.00  0.00    +0.137 C 
ATOM      6  C   UNL     1      30.403  -9.465 -21.575  0.00  0.00    +0.061 C 
ATOM      7  C   UNL     1      31.804  -7.767 -20.623  0.00  0.00    +0.125 C 
ATOM      8  C   UNL     1      32.853  -6.888 -22.701  0.00  0.00    +0.308 C 
ATOM      9  H   UNL     1      32.653  -7.958 -24.414  0.00  0.00    +0.156 HD
ENDROOT
BRANCH   3  11
ATOM     10 CL   UNL     1      36.058  -3.822 -27.946  0.00  0.00    -0.082 Cl
ATOM     11  C   UNL     1      33.774  -6.342 -24.989  0.00  0.00    +0.052 C 
ATOM     12  C   UNL     1      33.194  -5.188 -25.509  0.00  0.00    +0.016 C 
ATOM     13  C   UNL     1      35.057  -6.721 -25.378  0.00  0.00    +0.016 C 
ATOM     14  C   UNL     1      33.901  -4.407 -26.425  0.00  0.00    +0.013 C 
ATOM     15  C   UNL     1      35.763  -5.941 -26.293  0.00  0.00    +0.013 C 
ATOM     16  C   UNL     1      35.185  -4.784 -26.816  0.00  0.00    +0.058 C 
ENDBRANCH   3  11
BRANCH   4  19
ATOM     17  O   UNL     1      33.415  -9.816 -23.579  0.00  0.00    -0.273 OA
ATOM     18  N   UNL     1      31.950 -11.313 -22.506  0.00  0.00    -0.281 N 
ATOM     19  C   UNL     1      32.380 -10.078 -22.973  0.00  0.00    +0.244 C 
ATOM     20  H   UNL     1      31.082 -11.325 -22.041  0.00  0.00    +0.155 HD
BRANCH  18  22
ATOM     21  F   UNL     1      32.000 -13.119 -20.397  0.00  0.00    -0.203 F 
ATOM     22  C   UNL     1      32.615 -12.557 -22.621  0.00  0.00    +0.078 C 
ATOM     23  C   UNL     1      32.616 -13.429 -21.547  0.00  0.00    +0.155 C 
ATOM     24  C   UNL     1      33.252 -12.874 -23.810  0.00  0.00    +0.018 C 
ATOM     25  C   UNL     1      33.920 -14.989 -22.853  0.00  0.00    +0.061 C 
ATOM     26  C   UNL     1      33.273 -14.654 -21.663  0.00  0.00    +0.046 C 
ATOM     27  C   UNL     1      33.909 -14.098 -23.926  0.00  0.00    +0.017 C 
BRANCH  25  29
ATOM     28  O   UNL     1      33.979 -16.636 -25.230  0.00  0.00    -0.269 OA
ATOM     29  N   UNL     1      34.603 -16.263 -22.974  0.00  0.00    -0.233 N 
ATOM     30  C   UNL     1      34.591 -16.957 -24.211  0.00  0.00    +0.257 C 
ATOM     31  C   UNL     1      35.256 -16.824 -21.874  0.00  0.00    +0.072 C 
ATOM     32  C   UNL     1      35.359 -18.238 -24.263  0.00  0.00    +0.059 C 
ATOM     33  C   UNL     1      35.908 -17.988 -21.937  0.00  0.00    +0.017 C 
ATOM     34  C   UNL     1      35.966 -18.712 -23.172  0.00  0.00    +0.006 C 
ENDBRANCH  25  29
ENDBRANCH  18  22
ENDBRANCH   4  19
BRANCH   5  35
ATOM     35  O   UNL     1      31.990 -10.051 -19.854  0.00  0.00    -0.352 OA
ATOM     36  C   UNL     1      31.630 -10.606 -18.597  0.00  0.00    +0.174 C 
ENDBRANCH   5  35
TORSDOF 5
ENDMDL
