MODEL 1
REMARK VINA RESULT:     -12.2      0.000      0.000
REMARK  Name = 10430360
REMARK  6 active torsions:
REMARK  status: ('A' for Active; 'I' for Inactive)
REMARK    1  A    between atoms: C_4  and  C_18
REMARK    2  A    between atoms: C_7  and  C_14
REMARK    3  A    between atoms: C_17  and  O_23
REMARK    4  A    between atoms: O_23  and  C_24
REMARK    5  A    between atoms: C_24  and  C_25
REMARK    6  A    between atoms: C_25  and  N_26
REMARK                            x       y       z     vdW  Elec       q    Type
REMARK                         _______ _______ _______ _____ _____    ______ ____
ROOT
ATOM      1  N   UNL     1      33.463 -25.020 -14.041  0.00  0.00    -0.276 N 
ATOM      2  N   UNL     1      34.431 -24.518 -14.826  0.00  0.00    -0.173 NA
ATOM      3  C   UNL     1      32.356 -23.897 -15.566  0.00  0.00    +0.036 A 
ATOM      4  C   UNL     1      33.756 -23.833 -15.757  0.00  0.00    +0.102 A 
ATOM      5  C   UNL     1      32.194 -24.684 -14.431  0.00  0.00    +0.075 A 
ATOM      6  C   UNL     1      31.220 -23.386 -16.216  0.00  0.00    +0.006 C 
ATOM      7  C   UNL     1      29.957 -23.690 -15.693  0.00  0.00    +0.033 C 
ATOM      8  C   UNL     1      30.945 -24.998 -13.893  0.00  0.00    +0.019 C 
ATOM      9  C   UNL     1      29.824 -24.482 -14.552  0.00  0.00    +0.004 C 
ATOM     10  H   UNL     1      33.651 -25.580 -13.254  0.00  0.00    +0.189 HD
ENDROOT
BRANCH   7  14
ATOM     11  N   UNL     1      28.431 -23.511 -17.616  0.00  0.00    -0.218 N 
ATOM     12  N   UNL     1      27.894 -22.345 -15.848  0.00  0.00    -0.206 NA
ATOM     13  N   UNL     1      27.295 -22.898 -17.984  0.00  0.00    -0.157 NA
ATOM     14  C   UNL     1      28.776 -23.175 -16.346  0.00  0.00    +0.149 C 
ATOM     15  C   UNL     1      27.012 -22.205 -16.881  0.00  0.00    +0.218 C 
ATOM     16  H   UNL     1      28.944 -24.124 -18.191  0.00  0.00    +0.176 HD
ENDBRANCH   7  14
BRANCH   4  18
ATOM     17  C   UNL     1      34.509 -22.185 -19.007  0.00  0.00    +0.138 C 
ATOM     18  C   UNL     1      34.460 -23.138 -16.797  0.00  0.00    +0.022 C 
ATOM     19  C   UNL     1      33.821 -22.859 -18.006  0.00  0.00    +0.038 C 
ATOM     20  C   UNL     1      35.827 -21.785 -18.818  0.00  0.00    +0.037 C 
ATOM     21  C   UNL     1      35.782 -22.740 -16.599  0.00  0.00    +0.002 C 
ATOM     22  C   UNL     1      36.466 -22.064 -17.609  0.00  0.00    +0.003 C 
BRANCH  17  23
ATOM     23  O   UNL     1      33.882 -21.910 -20.195  0.00  0.00    -0.478 OA
BRANCH  23  24
ATOM     24  C   UNL     1      33.723 -20.537 -20.533  0.00  0.00    +0.183 C 
BRANCH  24  25
ATOM     25  C   UNL     1      34.887 -20.114 -21.414  0.00  0.00    -0.029 C 
BRANCH  25  26
ATOM     26  N   UNL     1      34.496 -19.011 -22.291  0.00  0.00    +0.389 N 
ATOM     27  C   UNL     1      35.338 -17.832 -22.043  0.00  0.00    -0.077 C 
ATOM     28  C   UNL     1      34.562 -19.425 -23.700  0.00  0.00    -0.077 C 
ATOM     29  C   UNL     1      34.909 -16.654 -22.919  0.00  0.00    -0.023 C 
ATOM     30  C   UNL     1      34.108 -18.298 -24.629  0.00  0.00    -0.023 C 
ATOM     31  C   UNL     1      34.918 -17.027 -24.397  0.00  0.00    -0.004 C 
ATOM     32  H   UNL     1      33.529 -18.756 -22.085  0.00  0.00    -0.080 HD
ENDBRANCH  25  26
ENDBRANCH  24  25
ENDBRANCH  23  24
ENDBRANCH  17  23
ENDBRANCH   4  18
TORSDOF 6
ENDMDL
MODEL 2
REMARK VINA RESULT:     -11.6      2.022      4.664
REMARK  Name = 10430360
REMARK  6 active torsions:
REMARK  status: ('A' for Active; 'I' for Inactive)
REMARK    1  A    between atoms: C_4  and  C_18
REMARK    2  A    between atoms: C_7  and  C_14
REMARK    3  A    between atoms: C_17  and  O_23
REMARK    4  A    between atoms: O_23  and  C_24
REMARK    5  A    between atoms: C_24  and  C_25
REMARK    6  A    between atoms: C_25  and  N_26
REMARK                            x       y       z     vdW  Elec       q    Type
REMARK                         _______ _______ _______ _____ _____    ______ ____
ROOT
ATOM      1  N   UNL     1      31.100 -23.052 -17.348  0.00  0.00    -0.276 N 
ATOM      2  N   UNL     1      31.792 -22.438 -18.323  0.00  0.00    -0.173 NA
ATOM      3  C   UNL     1      33.186 -23.256 -16.703  0.00  0.00    +0.036 A 
ATOM      4  C   UNL     1      33.065 -22.562 -17.929  0.00  0.00    +0.102 A 
ATOM      5  C   UNL     1      31.879 -23.564 -16.345  0.00  0.00    +0.075 A 
ATOM      6  C   UNL     1      34.241 -23.653 -15.863  0.00  0.00    +0.006 C 
ATOM      7  C   UNL     1      33.934 -24.350 -14.688  0.00  0.00    +0.033 C 
ATOM      8  C   UNL     1      31.551 -24.257 -15.178  0.00  0.00    +0.019 C 
ATOM      9  C   UNL     1      32.612 -24.646 -14.353  0.00  0.00    +0.004 C 
ATOM     10  H   UNL     1      30.119 -23.125 -17.354  0.00  0.00    +0.189 HD
ENDROOT
BRANCH   7  14
ATOM     11  N   UNL     1      34.813 -25.031 -12.492  0.00  0.00    -0.218 N 
ATOM     12  N   UNL     1      36.262 -24.945 -14.126  0.00  0.00    -0.206 NA
ATOM     13  N   UNL     1      35.963 -25.396 -11.904  0.00  0.00    -0.157 NA
ATOM     14  C   UNL     1      35.003 -24.766 -13.810  0.00  0.00    +0.149 C 
ATOM     15  C   UNL     1      36.808 -25.328 -12.934  0.00  0.00    +0.218 C 
ATOM     16  H   UNL     1      33.948 -24.966 -12.028  0.00  0.00    +0.176 HD
ENDBRANCH   7  14
BRANCH   4  18
ATOM     17  C   UNL     1      34.864 -20.747 -20.634  0.00  0.00    +0.138 C 
ATOM     18  C   UNL     1      34.127 -22.022 -18.730  0.00  0.00    +0.022 C 
ATOM     19  C   UNL     1      33.830 -21.267 -19.865  0.00  0.00    +0.038 C 
ATOM     20  C   UNL     1      36.191 -20.973 -20.285  0.00  0.00    +0.037 C 
ATOM     21  C   UNL     1      35.455 -22.253 -18.374  0.00  0.00    +0.002 C 
ATOM     22  C   UNL     1      36.488 -21.728 -19.151  0.00  0.00    +0.003 C 
BRANCH  17  23
ATOM     23  O   UNL     1      34.574 -20.004 -21.749  0.00  0.00    -0.478 OA
BRANCH  23  24
ATOM     24  C   UNL     1      34.994 -18.645 -21.741  0.00  0.00    +0.183 C 
BRANCH  24  25
ATOM     25  C   UNL     1      35.738 -18.357 -23.034  0.00  0.00    -0.029 C 
BRANCH  25  26
ATOM     26  N   UNL     1      35.353 -17.052 -23.571  0.00  0.00    +0.389 N 
ATOM     27  C   UNL     1      34.357 -17.209 -24.641  0.00  0.00    -0.077 C 
ATOM     28  C   UNL     1      34.849 -16.183 -22.499  0.00  0.00    -0.077 C 
ATOM     29  C   UNL     1      33.979 -15.856 -25.246  0.00  0.00    -0.023 C 
ATOM     30  C   UNL     1      34.487 -14.797 -23.035  0.00  0.00    -0.023 C 
ATOM     31  C   UNL     1      33.482 -14.889 -24.178  0.00  0.00    -0.004 C 
ATOM     32  H   UNL     1      36.178 -16.607 -23.974  0.00  0.00    -0.080 HD
ENDBRANCH  25  26
ENDBRANCH  24  25
ENDBRANCH  23  24
ENDBRANCH  17  23
ENDBRANCH   4  18
TORSDOF 6
ENDMDL
MODEL 3
REMARK VINA RESULT:     -11.4      2.389      3.973
REMARK  Name = 10430360
REMARK  6 active torsions:
REMARK  status: ('A' for Active; 'I' for Inactive)
REMARK    1  A    between atoms: C_4  and  C_18
REMARK    2  A    between atoms: C_7  and  C_14
REMARK    3  A    between atoms: C_17  and  O_23
REMARK    4  A    between atoms: O_23  and  C_24
REMARK    5  A    between atoms: C_24  and  C_25
REMARK    6  A    between atoms: C_25  and  N_26
REMARK                            x       y       z     vdW  Elec       q    Type
REMARK                         _______ _______ _______ _____ _____    ______ ____
ROOT
ATOM      1  N   UNL     1      37.646 -23.086 -16.297  0.00  0.00    -0.276 N 
ATOM      2  N   UNL     1      37.392 -22.468 -17.464  0.00  0.00    -0.173 NA
ATOM      3  C   UNL     1      35.455 -23.024 -16.380  0.00  0.00    +0.036 A 
ATOM      4  C   UNL     1      36.055 -22.430 -17.514  0.00  0.00    +0.102 A 
ATOM      5  C   UNL     1      36.525 -23.446 -15.598  0.00  0.00    +0.075 A 
ATOM      6  C   UNL     1      34.143 -23.251 -15.929  0.00  0.00    +0.006 C 
ATOM      7  C   UNL     1      33.960 -23.899 -14.701  0.00  0.00    +0.033 C 
ATOM      8  C   UNL     1      36.364 -24.093 -14.372  0.00  0.00    +0.019 C 
ATOM      9  C   UNL     1      35.053 -24.312 -13.938  0.00  0.00    +0.004 C 
ATOM     10  H   UNL     1      38.558 -23.264 -15.975  0.00  0.00    +0.189 HD
ENDROOT
BRANCH   7  14
ATOM     11  N   UNL     1      32.232 -25.332 -13.692  0.00  0.00    -0.218 N 
ATOM     12  N   UNL     1      31.615 -23.303 -14.218  0.00  0.00    -0.206 NA
ATOM     13  N   UNL     1      30.942 -25.297 -13.324  0.00  0.00    -0.157 NA
ATOM     14  C   UNL     1      32.621 -24.143 -14.221  0.00  0.00    +0.149 C 
ATOM     15  C   UNL     1      30.615 -24.050 -13.663  0.00  0.00    +0.218 C 
ATOM     16  H   UNL     1      32.819 -26.116 -13.589  0.00  0.00    +0.176 HD
ENDBRANCH   7  14
BRANCH   4  18
ATOM     17  C   UNL     1      35.448 -20.435 -20.596  0.00  0.00    +0.138 C 
ATOM     18  C   UNL     1      35.389 -21.830 -18.635  0.00  0.00    +0.022 C 
ATOM     19  C   UNL     1      36.100 -21.011 -19.513  0.00  0.00    +0.038 C 
ATOM     20  C   UNL     1      34.094 -20.664 -20.813  0.00  0.00    +0.037 C 
ATOM     21  C   UNL     1      34.031 -22.065 -18.846  0.00  0.00    +0.002 C 
ATOM     22  C   UNL     1      33.383 -21.483 -19.935  0.00  0.00    +0.003 C 
BRANCH  17  23
ATOM     23  O   UNL     1      36.146 -19.631 -21.459  0.00  0.00    -0.478 OA
BRANCH  23  24
ATOM     24  C   UNL     1      35.553 -18.383 -21.795  0.00  0.00    +0.183 C 
BRANCH  24  25
ATOM     25  C   UNL     1      35.562 -18.229 -23.308  0.00  0.00    -0.029 C 
BRANCH  25  26
ATOM     26  N   UNL     1      35.225 -16.858 -23.689  0.00  0.00    +0.389 N 
ATOM     27  C   UNL     1      34.228 -16.855 -24.769  0.00  0.00    -0.077 C 
ATOM     28  C   UNL     1      34.748 -16.103 -22.522  0.00  0.00    -0.077 C 
ATOM     29  C   UNL     1      33.900 -15.428 -25.212  0.00  0.00    -0.023 C 
ATOM     30  C   UNL     1      34.437 -14.652 -22.893  0.00  0.00    -0.023 C 
ATOM     31  C   UNL     1      33.434 -14.575 -24.038  0.00  0.00    -0.004 C 
ATOM     32  H   UNL     1      36.067 -16.399 -24.037  0.00  0.00    -0.080 HD
ENDBRANCH  25  26
ENDBRANCH  24  25
ENDBRANCH  23  24
ENDBRANCH  17  23
ENDBRANCH   4  18
TORSDOF 6
ENDMDL
MODEL 4
REMARK VINA RESULT:     -11.3      2.550      5.413
REMARK  Name = 10430360
REMARK  6 active torsions:
REMARK  status: ('A' for Active; 'I' for Inactive)
REMARK    1  A    between atoms: C_4  and  C_18
REMARK    2  A    between atoms: C_7  and  C_14
REMARK    3  A    between atoms: C_17  and  O_23
REMARK    4  A    between atoms: O_23  and  C_24
REMARK    5  A    between atoms: C_24  and  C_25
REMARK    6  A    between atoms: C_25  and  N_26
REMARK                            x       y       z     vdW  Elec       q    Type
REMARK                         _______ _______ _______ _____ _____    ______ ____
ROOT
ATOM      1  N   UNL     1      31.808 -22.816 -18.015  0.00  0.00    -0.276 N 
ATOM      2  N   UNL     1      32.309 -22.080 -19.023  0.00  0.00    -0.173 NA
ATOM      3  C   UNL     1      33.960 -22.767 -17.595  0.00  0.00    +0.036 A 
ATOM      4  C   UNL     1      33.622 -22.050 -18.766  0.00  0.00    +0.102 A 
ATOM      5  C   UNL     1      32.748 -23.258 -17.123  0.00  0.00    +0.075 A 
ATOM      6  C   UNL     1      35.140 -23.053 -16.887  0.00  0.00    +0.006 C 
ATOM      7  C   UNL     1      35.051 -23.827 -15.724  0.00  0.00    +0.033 C 
ATOM      8  C   UNL     1      32.637 -24.032 -15.966  0.00  0.00    +0.019 C 
ATOM      9  C   UNL     1      33.821 -24.307 -15.273  0.00  0.00    +0.004 C 
ATOM     10  H   UNL     1      30.849 -23.017 -17.927  0.00  0.00    +0.189 HD
ENDROOT
BRANCH   7  14
ATOM     11  N   UNL     1      37.498 -23.951 -15.487  0.00  0.00    -0.218 N 
ATOM     12  N   UNL     1      36.329 -24.608 -13.763  0.00  0.00    -0.206 NA
ATOM     13  N   UNL     1      38.437 -24.310 -14.597  0.00  0.00    -0.157 NA
ATOM     14  C   UNL     1      36.251 -24.132 -14.981  0.00  0.00    +0.149 C 
ATOM     15  C   UNL     1      37.678 -24.700 -13.572  0.00  0.00    +0.218 C 
ATOM     16  H   UNL     1      37.690 -23.602 -16.387  0.00  0.00    +0.176 HD
ENDBRANCH   7  14
BRANCH   4  18
ATOM     17  C   UNL     1      34.876 -19.861 -21.502  0.00  0.00    +0.138 C 
ATOM     18  C   UNL     1      34.515 -21.345 -19.641  0.00  0.00    +0.022 C 
ATOM     19  C   UNL     1      34.004 -20.540 -20.660  0.00  0.00    +0.038 C 
ATOM     20  C   UNL     1      36.252 -19.975 -21.341  0.00  0.00    +0.037 C 
ATOM     21  C   UNL     1      35.894 -21.465 -19.473  0.00  0.00    +0.002 C 
ATOM     22  C   UNL     1      36.763 -20.780 -20.323  0.00  0.00    +0.003 C 
BRANCH  17  23
ATOM     23  O   UNL     1      34.374 -19.069 -22.502  0.00  0.00    -0.478 OA
BRANCH  23  24
ATOM     24  C   UNL     1      34.914 -17.758 -22.613  0.00  0.00    +0.183 C 
BRANCH  24  25
ATOM     25  C   UNL     1      34.966 -17.375 -24.083  0.00  0.00    -0.029 C 
BRANCH  25  26
ATOM     26  N   UNL     1      34.721 -15.942 -24.252  0.00  0.00    +0.389 N 
ATOM     27  C   UNL     1      33.588 -15.717 -25.161  0.00  0.00    -0.077 C 
ATOM     28  C   UNL     1      34.493 -15.303 -22.949  0.00  0.00    -0.077 C 
ATOM     29  C   UNL     1      33.350 -14.223 -25.386  0.00  0.00    -0.023 C 
ATOM     30  C   UNL     1      34.284 -13.795 -23.103  0.00  0.00    -0.023 C 
ATOM     31  C   UNL     1      33.144 -13.488 -24.066  0.00  0.00    -0.004 C 
ATOM     32  H   UNL     1      35.549 -15.516 -24.670  0.00  0.00    -0.080 HD
ENDBRANCH  25  26
ENDBRANCH  24  25
ENDBRANCH  23  24
ENDBRANCH  17  23
ENDBRANCH   4  18
TORSDOF 6
ENDMDL
MODEL 5
REMARK VINA RESULT:     -11.2      5.758     12.846
REMARK  Name = 10430360
REMARK  6 active torsions:
REMARK  status: ('A' for Active; 'I' for Inactive)
REMARK    1  A    between atoms: C_4  and  C_18
REMARK    2  A    between atoms: C_7  and  C_14
REMARK    3  A    between atoms: C_17  and  O_23
REMARK    4  A    between atoms: O_23  and  C_24
REMARK    5  A    between atoms: C_24  and  C_25
REMARK    6  A    between atoms: C_25  and  N_26
REMARK                            x       y       z     vdW  Elec       q    Type
REMARK                         _______ _______ _______ _____ _____    ______ ____
ROOT
ATOM      1  N   UNL     1      33.362 -13.833 -26.719  0.00  0.00    -0.276 N 
ATOM      2  N   UNL     1      33.389 -14.639 -25.644  0.00  0.00    -0.173 NA
ATOM      3  C   UNL     1      33.768 -12.459 -25.059  0.00  0.00    +0.036 A 
ATOM      4  C   UNL     1      33.637 -13.801 -24.631  0.00  0.00    +0.102 A 
ATOM      5  C   UNL     1      33.583 -12.512 -26.436  0.00  0.00    +0.075 A 
ATOM      6  C   UNL     1      34.021 -11.220 -24.447  0.00  0.00    +0.006 C 
ATOM      7  C   UNL     1      34.076 -10.075 -25.251  0.00  0.00    +0.033 C 
ATOM      8  C   UNL     1      33.635 -11.383 -27.256  0.00  0.00    +0.019 C 
ATOM      9  C   UNL     1      33.887 -10.158 -26.631  0.00  0.00    +0.004 C 
ATOM     10  H   UNL     1      33.198 -14.165 -27.631  0.00  0.00    +0.189 HD
ENDROOT
BRANCH   7  14
ATOM     11  N   UNL     1      33.414  -7.794 -24.602  0.00  0.00    -0.218 N 
ATOM     12  N   UNL     1      35.443  -8.400 -24.061  0.00  0.00    -0.206 NA
ATOM     13  N   UNL     1      33.905  -6.709 -23.983  0.00  0.00    -0.157 NA
ATOM     14  C   UNL     1      34.335  -8.792 -24.642  0.00  0.00    +0.149 C 
ATOM     15  C   UNL     1      35.134  -7.127 -23.676  0.00  0.00    +0.218 C 
ATOM     16  H   UNL     1      32.506  -7.859 -24.976  0.00  0.00    +0.176 HD
ENDBRANCH   7  14
BRANCH   4  18
ATOM     17  C   UNL     1      34.603 -15.904 -21.716  0.00  0.00    +0.138 C 
ATOM     18  C   UNL     1      33.740 -14.297 -23.288  0.00  0.00    +0.022 C 
ATOM     19  C   UNL     1      34.509 -15.430 -23.019  0.00  0.00    +0.038 C 
ATOM     20  C   UNL     1      33.939 -15.261 -20.678  0.00  0.00    +0.037 C 
ATOM     21  C   UNL     1      33.070 -13.647 -22.251  0.00  0.00    +0.002 C 
ATOM     22  C   UNL     1      33.170 -14.129 -20.946  0.00  0.00    +0.003 C 
BRANCH  17  23
ATOM     23  O   UNL     1      35.360 -17.016 -21.452  0.00  0.00    -0.478 OA
BRANCH  23  24
ATOM     24  C   UNL     1      35.069 -18.184 -22.208  0.00  0.00    +0.183 C 
BRANCH  24  25
ATOM     25  C   UNL     1      35.851 -19.350 -21.626  0.00  0.00    -0.029 C 
BRANCH  25  26
ATOM     26  N   UNL     1      35.064 -20.039 -20.603  0.00  0.00    +0.389 N 
ATOM     27  C   UNL     1      33.691 -20.265 -21.076  0.00  0.00    -0.077 C 
ATOM     28  C   UNL     1      35.710 -21.303 -20.223  0.00  0.00    -0.077 C 
ATOM     29  C   UNL     1      32.841 -20.942 -20.000  0.00  0.00    -0.023 C 
ATOM     30  C   UNL     1      34.926 -22.014 -19.118  0.00  0.00    -0.023 C 
ATOM     31  C   UNL     1      33.476 -22.246 -19.529  0.00  0.00    -0.004 C 
ATOM     32  H   UNL     1      35.017 -19.449 -19.773  0.00  0.00    -0.080 HD
ENDBRANCH  25  26
ENDBRANCH  24  25
ENDBRANCH  23  24
ENDBRANCH  17  23
ENDBRANCH   4  18
TORSDOF 6
ENDMDL
MODEL 6
REMARK VINA RESULT:     -11.0      1.922      3.290
REMARK  Name = 10430360
REMARK  6 active torsions:
REMARK  status: ('A' for Active; 'I' for Inactive)
REMARK    1  A    between atoms: C_4  and  C_18
REMARK    2  A    between atoms: C_7  and  C_14
REMARK    3  A    between atoms: C_17  and  O_23
REMARK    4  A    between atoms: O_23  and  C_24
REMARK    5  A    between atoms: C_24  and  C_25
REMARK    6  A    between atoms: C_25  and  N_26
REMARK                            x       y       z     vdW  Elec       q    Type
REMARK                         _______ _______ _______ _____ _____    ______ ____
ROOT
ATOM      1  N   UNL     1      36.075 -23.251 -16.474  0.00  0.00    -0.276 N 
ATOM      2  N   UNL     1      36.085 -22.506 -17.593  0.00  0.00    -0.173 NA
ATOM      3  C   UNL     1      33.952 -23.091 -17.004  0.00  0.00    +0.036 A 
ATOM      4  C   UNL     1      34.790 -22.409 -17.916  0.00  0.00    +0.102 A 
ATOM      5  C   UNL     1      34.825 -23.635 -16.068  0.00  0.00    +0.075 A 
ATOM      6  C   UNL     1      32.571 -23.310 -16.865  0.00  0.00    +0.006 C 
ATOM      7  C   UNL     1      32.120 -24.072 -15.780  0.00  0.00    +0.033 C 
ATOM      8  C   UNL     1      34.396 -24.398 -14.980  0.00  0.00    +0.019 C 
ATOM      9  C   UNL     1      33.019 -24.606 -14.855  0.00  0.00    +0.004 C 
ATOM     10  H   UNL     1      36.895 -23.499 -15.990  0.00  0.00    +0.189 HD
ENDROOT
BRANCH   7  14
ATOM     11  N   UNL     1      30.208 -25.349 -14.901  0.00  0.00    -0.218 N 
ATOM     12  N   UNL     1      29.722 -23.598 -16.114  0.00  0.00    -0.206 NA
ATOM     13  N   UNL     1      28.866 -25.343 -14.909  0.00  0.00    -0.157 NA
ATOM     14  C   UNL     1      30.705 -24.309 -15.619  0.00  0.00    +0.149 C 
ATOM     15  C   UNL     1      28.622 -24.266 -15.656  0.00  0.00    +0.218 C 
ATOM     16  H   UNL     1      30.759 -26.019 -14.435  0.00  0.00    +0.176 HD
ENDBRANCH   7  14
BRANCH   4  18
ATOM     17  C   UNL     1      34.948 -20.315 -20.989  0.00  0.00    +0.138 C 
ATOM     18  C   UNL     1      34.388 -21.670 -19.079  0.00  0.00    +0.022 C 
ATOM     19  C   UNL     1      35.346 -21.029 -19.865  0.00  0.00    +0.038 C 
ATOM     20  C   UNL     1      33.605 -20.234 -21.339  0.00  0.00    +0.037 C 
ATOM     21  C   UNL     1      33.039 -21.593 -19.423  0.00  0.00    +0.002 C 
ATOM     22  C   UNL     1      32.646 -20.875 -20.553  0.00  0.00    +0.003 C 
BRANCH  17  23
ATOM     23  O   UNL     1      35.889 -19.686 -21.762  0.00  0.00    -0.478 OA
BRANCH  23  24
ATOM     24  C   UNL     1      35.410 -18.747 -22.717  0.00  0.00    +0.183 C 
BRANCH  24  25
ATOM     25  C   UNL     1      35.418 -17.364 -22.086  0.00  0.00    -0.029 C 
BRANCH  25  26
ATOM     26  N   UNL     1      35.115 -16.340 -23.086  0.00  0.00    +0.389 N 
ATOM     27  C   UNL     1      34.281 -16.899 -24.160  0.00  0.00    -0.077 C 
ATOM     28  C   UNL     1      34.465 -15.182 -22.456  0.00  0.00    -0.077 C 
ATOM     29  C   UNL     1      33.996 -15.854 -25.238  0.00  0.00    -0.023 C 
ATOM     30  C   UNL     1      34.186 -14.081 -23.480  0.00  0.00    -0.023 C 
ATOM     31  C   UNL     1      33.353 -14.605 -24.646  0.00  0.00    -0.004 C 
ATOM     32  H   UNL     1      35.990 -16.020 -23.503  0.00  0.00    -0.080 HD
ENDBRANCH  25  26
ENDBRANCH  24  25
ENDBRANCH  23  24
ENDBRANCH  17  23
ENDBRANCH   4  18
TORSDOF 6
ENDMDL
MODEL 7
REMARK VINA RESULT:     -11.0      2.942      5.965
REMARK  Name = 10430360
REMARK  6 active torsions:
REMARK  status: ('A' for Active; 'I' for Inactive)
REMARK    1  A    between atoms: C_4  and  C_18
REMARK    2  A    between atoms: C_7  and  C_14
REMARK    3  A    between atoms: C_17  and  O_23
REMARK    4  A    between atoms: O_23  and  C_24
REMARK    5  A    between atoms: C_24  and  C_25
REMARK    6  A    between atoms: C_25  and  N_26
REMARK                            x       y       z     vdW  Elec       q    Type
REMARK                         _______ _______ _______ _____ _____    ______ ____
ROOT
ATOM      1  N   UNL     1      33.458 -23.764 -13.579  0.00  0.00    -0.276 N 
ATOM      2  N   UNL     1      33.086 -23.237 -14.758  0.00  0.00    -0.173 NA
ATOM      3  C   UNL     1      35.207 -24.087 -14.862  0.00  0.00    +0.036 A 
ATOM      4  C   UNL     1      34.153 -23.434 -15.540  0.00  0.00    +0.102 A 
ATOM      5  C   UNL     1      34.722 -24.291 -13.575  0.00  0.00    +0.075 A 
ATOM      6  C   UNL     1      36.503 -24.524 -15.185  0.00  0.00    +0.006 C 
ATOM      7  C   UNL     1      37.264 -25.154 -14.192  0.00  0.00    +0.033 C 
ATOM      8  C   UNL     1      35.464 -24.916 -12.571  0.00  0.00    +0.019 C 
ATOM      9  C   UNL     1      36.752 -25.345 -12.908  0.00  0.00    +0.004 C 
ATOM     10  H   UNL     1      32.873 -23.770 -12.788  0.00  0.00    +0.189 HD
ENDROOT
BRANCH   7  14
ATOM     11  N   UNL     1      39.186 -25.404 -15.710  0.00  0.00    -0.218 N 
ATOM     12  N   UNL     1      39.415 -26.264 -13.714  0.00  0.00    -0.206 NA
ATOM     13  N   UNL     1      40.422 -25.926 -15.739  0.00  0.00    -0.157 NA
ATOM     14  C   UNL     1      38.598 -25.610 -14.503  0.00  0.00    +0.149 C 
ATOM     15  C   UNL     1      40.513 -26.434 -14.509  0.00  0.00    +0.218 C 
ATOM     16  H   UNL     1      38.763 -24.933 -16.463  0.00  0.00    +0.176 HD
ENDBRANCH   7  14
BRANCH   4  18
ATOM     17  C   UNL     1      35.245 -21.976 -18.786  0.00  0.00    +0.138 C 
ATOM     18  C   UNL     1      34.138 -22.999 -16.908  0.00  0.00    +0.022 C 
ATOM     19  C   UNL     1      35.267 -22.394 -17.460  0.00  0.00    +0.038 C 
ATOM     20  C   UNL     1      34.108 -22.154 -19.567  0.00  0.00    +0.037 C 
ATOM     21  C   UNL     1      32.994 -23.180 -17.685  0.00  0.00    +0.002 C 
ATOM     22  C   UNL     1      32.979 -22.758 -19.015  0.00  0.00    +0.003 C 
BRANCH  17  23
ATOM     23  O   UNL     1      36.354 -21.383 -19.329  0.00  0.00    -0.478 OA
BRANCH  23  24
ATOM     24  C   UNL     1      36.252 -20.946 -20.679  0.00  0.00    +0.183 C 
BRANCH  24  25
ATOM     25  C   UNL     1      36.173 -19.428 -20.695  0.00  0.00    -0.029 C 
BRANCH  25  26
ATOM     26  N   UNL     1      35.878 -18.941 -22.042  0.00  0.00    +0.389 N 
ATOM     27  C   UNL     1      34.836 -19.766 -22.671  0.00  0.00    -0.077 C 
ATOM     28  C   UNL     1      35.483 -17.526 -22.003  0.00  0.00    -0.077 C 
ATOM     29  C   UNL     1      34.550 -19.300 -24.099  0.00  0.00    -0.023 C 
ATOM     30  C   UNL     1      35.218 -16.987 -23.410  0.00  0.00    -0.023 C 
ATOM     31  C   UNL     1      34.170 -17.824 -24.136  0.00  0.00    -0.004 C 
ATOM     32  H   UNL     1      36.723 -19.015 -22.610  0.00  0.00    -0.080 HD
ENDBRANCH  25  26
ENDBRANCH  24  25
ENDBRANCH  23  24
ENDBRANCH  17  23
ENDBRANCH   4  18
TORSDOF 6
ENDMDL
MODEL 8
REMARK VINA RESULT:     -11.0      6.043     12.194
REMARK  Name = 10430360
REMARK  6 active torsions:
REMARK  status: ('A' for Active; 'I' for Inactive)
REMARK    1  A    between atoms: C_4  and  C_18
REMARK    2  A    between atoms: C_7  and  C_14
REMARK    3  A    between atoms: C_17  and  O_23
REMARK    4  A    between atoms: O_23  and  C_24
REMARK    5  A    between atoms: C_24  and  C_25
REMARK    6  A    between atoms: C_25  and  N_26
REMARK                            x       y       z     vdW  Elec       q    Type
REMARK                         _______ _______ _______ _____ _____    ______ ____
ROOT
ATOM      1  N   UNL     1      31.419 -12.673 -20.473  0.00  0.00    -0.276 N 
ATOM      2  N   UNL     1      31.966 -13.761 -21.043  0.00  0.00    -0.173 NA
ATOM      3  C   UNL     1      32.313 -11.891 -22.316  0.00  0.00    +0.036 A 
ATOM      4  C   UNL     1      32.511 -13.283 -22.168  0.00  0.00    +0.102 A 
ATOM      5  C   UNL     1      31.592 -11.518 -21.187  0.00  0.00    +0.075 A 
ATOM      6  C   UNL     1      32.657 -10.913 -23.266  0.00  0.00    +0.006 C 
ATOM      7  C   UNL     1      32.258  -9.591 -23.039  0.00  0.00    +0.033 C 
ATOM      8  C   UNL     1      31.185 -10.206 -20.942  0.00  0.00    +0.019 C 
ATOM      9  C   UNL     1      31.534  -9.245 -21.896  0.00  0.00    +0.004 C 
ATOM     10  H   UNL     1      30.936 -12.706 -19.616  0.00  0.00    +0.189 HD
ENDROOT
BRANCH   7  14
ATOM     11  N   UNL     1      33.880  -8.297 -24.364  0.00  0.00    -0.218 N 
ATOM     12  N   UNL     1      31.775  -7.784 -24.648  0.00  0.00    -0.206 NA
ATOM     13  N   UNL     1      33.924  -7.310 -25.272  0.00  0.00    -0.157 NA
ATOM     14  C   UNL     1      32.600  -8.571 -24.002  0.00  0.00    +0.149 C 
ATOM     15  C   UNL     1      32.626  -7.034 -25.409  0.00  0.00    +0.218 C 
ATOM     16  H   UNL     1      34.672  -8.763 -24.010  0.00  0.00    +0.176 HD
ENDBRANCH   7  14
BRANCH   4  18
ATOM     17  C   UNL     1      34.751 -15.970 -23.440  0.00  0.00    +0.138 C 
ATOM     18  C   UNL     1      33.206 -14.162 -23.066  0.00  0.00    +0.022 C 
ATOM     19  C   UNL     1      34.083 -15.123 -22.563  0.00  0.00    +0.038 C 
ATOM     20  C   UNL     1      34.554 -15.869 -24.812  0.00  0.00    +0.037 C 
ATOM     21  C   UNL     1      33.003 -14.055 -24.442  0.00  0.00    +0.002 C 
ATOM     22  C   UNL     1      33.677 -14.908 -25.315  0.00  0.00    +0.003 C 
BRANCH  17  23
ATOM     23  O   UNL     1      35.613 -16.915 -22.946  0.00  0.00    -0.478 OA
BRANCH  23  24
ATOM     24  C   UNL     1      35.239 -17.551 -21.730  0.00  0.00    +0.183 C 
BRANCH  24  25
ATOM     25  C   UNL     1      35.707 -18.996 -21.772  0.00  0.00    -0.029 C 
BRANCH  25  26
ATOM     26  N   UNL     1      35.039 -19.784 -20.736  0.00  0.00    +0.389 N 
ATOM     27  C   UNL     1      33.675 -20.136 -21.155  0.00  0.00    -0.077 C 
ATOM     28  C   UNL     1      35.824 -20.985 -20.417  0.00  0.00    -0.077 C 
ATOM     29  C   UNL     1      32.947 -20.920 -20.063  0.00  0.00    -0.023 C 
ATOM     30  C   UNL     1      35.165 -21.795 -19.300  0.00  0.00    -0.023 C 
ATOM     31  C   UNL     1      33.729 -22.163 -19.655  0.00  0.00    -0.004 C 
ATOM     32  H   UNL     1      34.971 -19.220 -19.888  0.00  0.00    -0.080 HD
ENDBRANCH  25  26
ENDBRANCH  24  25
ENDBRANCH  23  24
ENDBRANCH  17  23
ENDBRANCH   4  18
TORSDOF 6
ENDMDL
MODEL 9
REMARK VINA RESULT:     -10.7      9.160     13.923
REMARK  Name = 10430360
REMARK  6 active torsions:
REMARK  status: ('A' for Active; 'I' for Inactive)
REMARK    1  A    between atoms: C_4  and  C_18
REMARK    2  A    between atoms: C_7  and  C_14
REMARK    3  A    between atoms: C_17  and  O_23
REMARK    4  A    between atoms: O_23  and  C_24
REMARK    5  A    between atoms: C_24  and  C_25
REMARK    6  A    between atoms: C_25  and  N_26
REMARK                            x       y       z     vdW  Elec       q    Type
REMARK                         _______ _______ _______ _____ _____    ______ ____
ROOT
ATOM      1  N   UNL     1      33.408 -11.901 -27.498  0.00  0.00    -0.276 N 
ATOM      2  N   UNL     1      33.537 -10.603 -27.174  0.00  0.00    -0.173 NA
ATOM      3  C   UNL     1      33.776 -11.945 -25.336  0.00  0.00    +0.036 A 
ATOM      4  C   UNL     1      33.762 -10.630 -25.855  0.00  0.00    +0.102 A 
ATOM      5  C   UNL     1      33.541 -12.759 -26.439  0.00  0.00    +0.075 A 
ATOM      6  C   UNL     1      33.959 -12.534 -24.074  0.00  0.00    +0.006 C 
ATOM      7  C   UNL     1      33.897 -13.930 -23.971  0.00  0.00    +0.033 C 
ATOM      8  C   UNL     1      33.475 -14.151 -26.359  0.00  0.00    +0.019 C 
ATOM      9  C   UNL     1      33.659 -14.722 -25.095  0.00  0.00    +0.004 C 
ATOM     10  H   UNL     1      33.233 -12.207 -28.416  0.00  0.00    +0.189 HD
ENDROOT
BRANCH   7  14
ATOM     11  N   UNL     1      34.698 -15.756 -22.527  0.00  0.00    -0.218 N 
ATOM     12  N   UNL     1      33.702 -14.094 -21.517  0.00  0.00    -0.206 NA
ATOM     13  N   UNL     1      34.738 -16.112 -21.234  0.00  0.00    -0.157 NA
ATOM     14  C   UNL     1      34.081 -14.556 -22.683  0.00  0.00    +0.149 C 
ATOM     15  C   UNL     1      34.123 -15.075 -20.665  0.00  0.00    +0.218 C 
ATOM     16  H   UNL     1      35.068 -16.293 -23.264  0.00  0.00    +0.176 HD
ENDBRANCH   7  14
BRANCH   4  18
ATOM     17  C   UNL     1      33.060  -7.436 -24.079  0.00  0.00    +0.138 C 
ATOM     18  C   UNL     1      33.958  -9.407 -25.129  0.00  0.00    +0.022 C 
ATOM     19  C   UNL     1      32.861  -8.617 -24.783  0.00  0.00    +0.038 C 
ATOM     20  C   UNL     1      34.340  -7.032 -23.716  0.00  0.00    +0.037 C 
ATOM     21  C   UNL     1      35.245  -9.010 -24.768  0.00  0.00    +0.002 C 
ATOM     22  C   UNL     1      35.437  -7.822 -24.062  0.00  0.00    +0.003 C 
BRANCH  17  23
ATOM     23  O   UNL     1      31.983  -6.660 -23.738  0.00  0.00    -0.478 OA
BRANCH  23  24
ATOM     24  C   UNL     1      31.041  -7.230 -22.838  0.00  0.00    +0.183 C 
BRANCH  24  25
ATOM     25  C   UNL     1      31.763  -7.618 -21.557  0.00  0.00    -0.029 C 
BRANCH  25  26
ATOM     26  N   UNL     1      31.280  -8.908 -21.064  0.00  0.00    +0.389 N 
ATOM     27  C   UNL     1      31.641  -9.984 -21.997  0.00  0.00    -0.077 C 
ATOM     28  C   UNL     1      31.805  -9.172 -19.717  0.00  0.00    -0.077 C 
ATOM     29  C   UNL     1      31.102 -11.332 -21.520  0.00  0.00    -0.023 C 
ATOM     30  C   UNL     1      31.270 -10.495 -19.166  0.00  0.00    -0.023 C 
ATOM     31  C   UNL     1      31.578 -11.654 -20.108  0.00  0.00    -0.004 C 
ATOM     32  H   UNL     1      30.262  -8.874 -21.002  0.00  0.00    -0.080 HD
ENDBRANCH  25  26
ENDBRANCH  24  25
ENDBRANCH  23  24
ENDBRANCH  17  23
ENDBRANCH   4  18
TORSDOF 6
ENDMDL
