MODEL 1
REMARK VINA RESULT:     -11.8      0.000      0.000
REMARK  Name = 158376
REMARK  11 active torsions:
REMARK  status: ('A' for Active; 'I' for Inactive)
REMARK    1  A    between atoms: C_1  and  N_22
REMARK    2  A    between atoms: C_2  and  C_9
REMARK    3  A    between atoms: N_8  and  CA_11
REMARK    4  A    between atoms: CA_11  and  C_13
REMARK    5  A    between atoms: CA_11  and  CB_16
REMARK    6  A    between atoms: C_13  and  O_14
REMARK    7  A    between atoms: CB_16  and  CG_17
REMARK    8  A    between atoms: CG_17  and  CD_19
REMARK    9  A    between atoms: CD_19  and  OE1_20
REMARK   10  A    between atoms: N_22  and  C_24
REMARK   11  A    between atoms: C_24  and  C_29
REMARK                            x       y       z     vdW  Elec       q    Type
REMARK                         _______ _______ _______ _____ _____    ______ ____
ROOT
ATOM      1  C   UNL     1      35.318 -19.817 -20.912  0.00  0.00    +0.048 C 
ATOM      2  C   UNL     1      34.112 -21.916 -19.524  0.00  0.00    +0.053 C 
ATOM      3  C   UNL     1      36.102 -20.709 -20.179  0.00  0.00    +0.015 C 
ATOM      4  C   UNL     1      33.933 -19.974 -20.951  0.00  0.00    +0.015 C 
ATOM      5  C   UNL     1      35.498 -21.758 -19.486  0.00  0.00    +0.006 C 
ATOM      6  C   UNL     1      33.330 -21.024 -20.256  0.00  0.00    +0.006 C 
ENDROOT
BRANCH   2   9
ATOM      7  O   UNL     1      33.550 -24.173 -19.235  0.00  0.00    -0.270 OA
ATOM      8  N   UNL     1      32.834 -22.692 -17.600  0.00  0.00    -0.293 N 
ATOM      9  C   ACE A   0      33.470 -23.033 -18.785  0.00  0.00    +0.246 C 
ATOM     10  H   UNL     1      32.824 -21.747 -17.322  0.00  0.00    +0.150 HD
BRANCH   8  11
ATOM     11  CA  UNL     1      32.187 -23.667 -16.758  0.00  0.00    +0.172 C 
BRANCH  11  13
ATOM     12  OXT UNL     1      30.152 -22.473 -17.363  0.00  0.00    -0.248 OA
ATOM     13  C   UNL     1      30.729 -23.274 -16.638  0.00  0.00    +0.332 C 
BRANCH  13  14
ATOM     14  O   UNL     1      30.102 -23.948 -15.639  0.00  0.00    -0.479 OA
ATOM     15  H   UNL     1      30.263 -24.863 -15.520  0.00  0.00    +0.295 HD
ENDBRANCH  13  14
ENDBRANCH  11  13
BRANCH  11  16
ATOM     16  CB  UNL     1      32.893 -23.847 -15.409  0.00  0.00    +0.043 C 
BRANCH  16  17
ATOM     17  CG  UNL     1      34.424 -23.751 -15.438  0.00  0.00    +0.112 C 
BRANCH  17  19
ATOM     18  OE2 UNL     1      35.654 -25.824 -15.798  0.00  0.00    -0.250 OA
ATOM     19  CD  UNL     1      35.123 -25.031 -15.033  0.00  0.00    +0.314 C 
BRANCH  19  20
ATOM     20  OE1 UNL     1      35.061 -25.231 -13.689  0.00  0.00    -0.480 OA
ATOM     21  HE1 UNL     1      35.762 -25.670 -13.249  0.00  0.00    +0.295 HD
ENDBRANCH  19  20
ENDBRANCH  17  19
ENDBRANCH  16  17
ENDBRANCH  11  16
ENDBRANCH   8  11
ENDBRANCH   2   9
BRANCH   1  22
ATOM     22  N   UNL     1      35.927 -18.757 -21.615  0.00  0.00    -0.302 N 
ATOM     23  C   UNL     1      37.258 -18.912 -22.168  0.00  0.00    +0.112 C 
BRANCH  22  24
ATOM     24  C   UNL     1      35.225 -17.504 -21.806  0.00  0.00    +0.118 C 
BRANCH  24  29
ATOM     25  O   UNL     1      34.243 -17.532 -25.370  0.00  0.00    -0.427 OA
ATOM     26  N   UNL     1      33.658 -15.301 -25.985  0.00  0.00    -0.294 NA
ATOM     27  N   UNL     1      33.864 -13.693 -24.166  0.00  0.00    -0.317 NA
ATOM     28  N   UNL     1      33.152 -13.038 -26.297  0.00  0.00    -0.283 N 
ATOM     29  C   UNL     1      34.783 -17.215 -23.208  0.00  0.00    +0.031 C 
ATOM     30  C   UNL     1      34.401 -15.967 -23.755  0.00  0.00    +0.180 C 
ATOM     31  C   UNL     1      34.076 -16.209 -25.086  0.00  0.00    +0.281 C 
ATOM     32  C   UNL     1      34.671 -18.131 -24.228  0.00  0.00    +0.176 C 
ATOM     33  C   UNL     1      34.280 -14.652 -23.308  0.00  0.00    +0.181 C 
ATOM     34  C   UNL     1      33.583 -14.072 -25.434  0.00  0.00    +0.200 C 
ATOM     35  H   UNL     1      32.930 -13.242 -27.235  0.00  0.00    +0.156 HD
ATOM     36  H   UNL     1      33.074 -12.117 -25.961  0.00  0.00    +0.156 HD
ATOM     37  N   UNL     1      34.586 -14.308 -21.979  0.00  0.00    -0.335 N 
ATOM     38  H   UNL     1      34.496 -13.375 -21.678  0.00  0.00    +0.144 HD
ATOM     39  H   UNL     1      34.890 -15.000 -21.348  0.00  0.00    +0.144 HD
ENDBRANCH  24  29
ENDBRANCH  22  24
ENDBRANCH   1  22
TORSDOF 11
ENDMDL
MODEL 2
REMARK VINA RESULT:     -11.5      1.333      1.702
REMARK  Name = 158376
REMARK  11 active torsions:
REMARK  status: ('A' for Active; 'I' for Inactive)
REMARK    1  A    between atoms: C_1  and  N_22
REMARK    2  A    between atoms: C_2  and  C_9
REMARK    3  A    between atoms: N_8  and  CA_11
REMARK    4  A    between atoms: CA_11  and  C_13
REMARK    5  A    between atoms: CA_11  and  CB_16
REMARK    6  A    between atoms: C_13  and  O_14
REMARK    7  A    between atoms: CB_16  and  CG_17
REMARK    8  A    between atoms: CG_17  and  CD_19
REMARK    9  A    between atoms: CD_19  and  OE1_20
REMARK   10  A    between atoms: N_22  and  C_24
REMARK   11  A    between atoms: C_24  and  C_29
REMARK                            x       y       z     vdW  Elec       q    Type
REMARK                         _______ _______ _______ _____ _____    ______ ____
ROOT
ATOM      1  C   UNL     1      35.147 -19.956 -20.844  0.00  0.00    +0.048 C 
ATOM      2  C   UNL     1      33.912 -21.965 -19.353  0.00  0.00    +0.053 C 
ATOM      3  C   UNL     1      35.920 -20.843 -20.095  0.00  0.00    +0.015 C 
ATOM      4  C   UNL     1      33.757 -20.073 -20.848  0.00  0.00    +0.015 C 
ATOM      5  C   UNL     1      35.302 -21.848 -19.350  0.00  0.00    +0.006 C 
ATOM      6  C   UNL     1      33.140 -21.078 -20.102  0.00  0.00    +0.006 C 
ENDROOT
BRANCH   2   9
ATOM      7  O   UNL     1      33.492 -24.210 -18.826  0.00  0.00    -0.270 OA
ATOM      8  N   UNL     1      32.420 -22.607 -17.537  0.00  0.00    -0.293 N 
ATOM      9  C   ACE A   0      33.254 -23.035 -18.560  0.00  0.00    +0.246 C 
ATOM     10  H   UNL     1      32.292 -21.640 -17.402  0.00  0.00    +0.150 HD
BRANCH   8  11
ATOM     11  CA  UNL     1      31.730 -23.524 -16.664  0.00  0.00    +0.172 C 
BRANCH  11  13
ATOM     12  OXT UNL     1      29.727 -22.272 -17.259  0.00  0.00    -0.248 OA
ATOM     13  C   UNL     1      30.243 -23.306 -16.852  0.00  0.00    +0.332 C 
BRANCH  13  14
ATOM     14  O   UNL     1      29.525 -24.419 -16.550  0.00  0.00    -0.479 OA
ATOM     15  H   UNL     1      29.962 -25.237 -16.418  0.00  0.00    +0.295 HD
ENDBRANCH  13  14
ENDBRANCH  11  13
BRANCH  11  16
ATOM     16  CB  UNL     1      32.193 -23.415 -15.206  0.00  0.00    +0.043 C 
BRANCH  16  17
ATOM     17  CG  UNL     1      32.217 -24.728 -14.414  0.00  0.00    +0.112 C 
BRANCH  17  19
ATOM     18  OE2 UNL     1      30.484 -24.539 -12.712  0.00  0.00    -0.250 OA
ATOM     19  CD  UNL     1      30.905 -25.057 -13.737  0.00  0.00    +0.314 C 
BRANCH  19  20
ATOM     20  OE1 UNL     1      30.240 -26.048 -14.389  0.00  0.00    -0.480 OA
ATOM     21  HE1 UNL     1      30.715 -26.666 -14.908  0.00  0.00    +0.295 HD
ENDBRANCH  19  20
ENDBRANCH  17  19
ENDBRANCH  16  17
ENDBRANCH  11  16
ENDBRANCH   8  11
ENDBRANCH   2   9
BRANCH   1  22
ATOM     22  N   UNL     1      35.770 -18.941 -21.599  0.00  0.00    -0.302 N 
ATOM     23  C   UNL     1      37.064 -19.170 -22.210  0.00  0.00    +0.112 C 
BRANCH  22  24
ATOM     24  C   UNL     1      35.118 -17.659 -21.786  0.00  0.00    +0.118 C 
BRANCH  24  29
ATOM     25  O   UNL     1      34.207 -17.606 -25.368  0.00  0.00    -0.427 OA
ATOM     26  N   UNL     1      33.700 -15.349 -25.959  0.00  0.00    -0.294 NA
ATOM     27  N   UNL     1      33.917 -13.775 -24.112  0.00  0.00    -0.317 NA
ATOM     28  N   UNL     1      33.267 -13.068 -26.247  0.00  0.00    -0.283 N 
ATOM     29  C   UNL     1      34.713 -17.337 -23.191  0.00  0.00    +0.031 C 
ATOM     30  C   UNL     1      34.379 -16.070 -23.726  0.00  0.00    +0.180 C 
ATOM     31  C   UNL     1      34.073 -16.282 -25.067  0.00  0.00    +0.281 C 
ATOM     32  C   UNL     1      34.595 -18.234 -24.228  0.00  0.00    +0.176 C 
ATOM     33  C   UNL     1      34.288 -14.759 -23.261  0.00  0.00    +0.181 C 
ATOM     34  C   UNL     1      33.650 -14.126 -25.391  0.00  0.00    +0.200 C 
ATOM     35  H   UNL     1      33.057 -13.251 -27.191  0.00  0.00    +0.156 HD
ATOM     36  H   UNL     1      33.210 -12.149 -25.898  0.00  0.00    +0.156 HD
ATOM     37  N   UNL     1      34.578 -14.444 -21.921  0.00  0.00    -0.335 N 
ATOM     38  H   UNL     1      34.509 -13.514 -21.608  0.00  0.00    +0.144 HD
ATOM     39  H   UNL     1      34.849 -15.154 -21.295  0.00  0.00    +0.144 HD
ENDBRANCH  24  29
ENDBRANCH  22  24
ENDBRANCH   1  22
TORSDOF 11
ENDMDL
MODEL 3
REMARK VINA RESULT:     -11.3      3.839     11.079
REMARK  Name = 158376
REMARK  11 active torsions:
REMARK  status: ('A' for Active; 'I' for Inactive)
REMARK    1  A    between atoms: C_1  and  N_22
REMARK    2  A    between atoms: C_2  and  C_9
REMARK    3  A    between atoms: N_8  and  CA_11
REMARK    4  A    between atoms: CA_11  and  C_13
REMARK    5  A    between atoms: CA_11  and  CB_16
REMARK    6  A    between atoms: C_13  and  O_14
REMARK    7  A    between atoms: CB_16  and  CG_17
REMARK    8  A    between atoms: CG_17  and  CD_19
REMARK    9  A    between atoms: CD_19  and  OE1_20
REMARK   10  A    between atoms: N_22  and  C_24
REMARK   11  A    between atoms: C_24  and  C_29
REMARK                            x       y       z     vdW  Elec       q    Type
REMARK                         _______ _______ _______ _____ _____    ______ ____
ROOT
ATOM      1  C   UNL     1      33.979 -23.225 -16.484  0.00  0.00    +0.048 C 
ATOM      2  C   UNL     1      35.073 -22.075 -18.779  0.00  0.00    +0.053 C 
ATOM      3  C   UNL     1      35.296 -22.764 -16.473  0.00  0.00    +0.015 C 
ATOM      4  C   UNL     1      33.210 -23.111 -17.642  0.00  0.00    +0.015 C 
ATOM      5  C   UNL     1      35.842 -22.189 -17.621  0.00  0.00    +0.006 C 
ATOM      6  C   UNL     1      33.757 -22.536 -18.789  0.00  0.00    +0.006 C 
ENDROOT
BRANCH   2   9
ATOM      7  O   UNL     1      36.748 -21.850 -20.404  0.00  0.00    -0.270 OA
ATOM      8  N   UNL     1      34.883 -20.488 -20.619  0.00  0.00    -0.293 N 
ATOM      9  C   ACE A   0      35.655 -21.462 -20.001  0.00  0.00    +0.246 C 
ATOM     10  H   UNL     1      34.018 -20.244 -20.218  0.00  0.00    +0.150 HD
BRANCH   8  11
ATOM     11  CA  UNL     1      35.300 -19.819 -21.825  0.00  0.00    +0.172 C 
BRANCH  11  13
ATOM     12  OXT UNL     1      37.443 -18.742 -21.403  0.00  0.00    -0.248 OA
ATOM     13  C   UNL     1      36.220 -18.684 -21.426  0.00  0.00    +0.332 C 
BRANCH  13  14
ATOM     14  O   UNL     1      35.529 -17.553 -21.124  0.00  0.00    -0.479 OA
ATOM     15  H   UNL     1      35.536 -17.220 -20.249  0.00  0.00    +0.295 HD
ENDBRANCH  13  14
ENDBRANCH  11  13
BRANCH  11  16
ATOM     16  CB  UNL     1      34.118 -19.380 -22.698  0.00  0.00    +0.043 C 
BRANCH  16  17
ATOM     17  CG  UNL     1      34.422 -19.194 -24.190  0.00  0.00    +0.112 C 
BRANCH  17  19
ATOM     18  OE2 UNL     1      33.427 -17.326 -25.398  0.00  0.00    -0.250 OA
ATOM     19  CD  UNL     1      34.302 -17.761 -24.662  0.00  0.00    +0.314 C 
BRANCH  19  20
ATOM     20  OE1 UNL     1      35.324 -16.994 -24.198  0.00  0.00    -0.480 OA
ATOM     21  HE1 UNL     1      35.898 -16.565 -24.801  0.00  0.00    +0.295 HD
ENDBRANCH  19  20
ENDBRANCH  17  19
ENDBRANCH  16  17
ENDBRANCH  11  16
ENDBRANCH   8  11
ENDBRANCH   2   9
BRANCH   1  22
ATOM     22  N   UNL     1      33.426 -23.806 -15.325  0.00  0.00    -0.302 N 
ATOM     23  C   UNL     1      32.180 -23.307 -14.777  0.00  0.00    +0.112 C 
BRANCH  22  24
ATOM     24  C   UNL     1      34.088 -24.919 -14.673  0.00  0.00    +0.118 C 
BRANCH  24  29
ATOM     25  O   UNL     1      37.017 -23.609 -12.837  0.00  0.00    -0.427 OA
ATOM     26  N   UNL     1      38.901 -24.961 -13.407  0.00  0.00    -0.294 NA
ATOM     27  N   UNL     1      38.388 -26.752 -14.976  0.00  0.00    -0.317 NA
ATOM     28  N   UNL     1      40.554 -26.444 -14.144  0.00  0.00    -0.283 N 
ATOM     29  C   UNL     1      35.425 -24.615 -14.070  0.00  0.00    +0.031 C 
ATOM     30  C   UNL     1      36.647 -25.297 -14.286  0.00  0.00    +0.180 C 
ATOM     31  C   UNL     1      37.598 -24.646 -13.507  0.00  0.00    +0.281 C 
ATOM     32  C   UNL     1      35.704 -23.600 -13.185  0.00  0.00    +0.176 C 
ATOM     33  C   UNL     1      37.087 -26.386 -15.036  0.00  0.00    +0.181 C 
ATOM     34  C   UNL     1      39.203 -26.027 -14.176  0.00  0.00    +0.200 C 
ATOM     35  H   UNL     1      41.204 -25.961 -13.583  0.00  0.00    +0.156 HD
ATOM     36  H   UNL     1      40.844 -27.215 -14.682  0.00  0.00    +0.156 HD
ATOM     37  N   UNL     1      36.200 -27.108 -15.854  0.00  0.00    -0.335 N 
ATOM     38  H   UNL     1      36.527 -27.875 -16.377  0.00  0.00    +0.144 HD
ATOM     39  H   UNL     1      35.252 -26.848 -15.903  0.00  0.00    +0.144 HD
ENDBRANCH  24  29
ENDBRANCH  22  24
ENDBRANCH   1  22
TORSDOF 11
ENDMDL
MODEL 4
REMARK VINA RESULT:     -10.9      1.200      1.766
REMARK  Name = 158376
REMARK  11 active torsions:
REMARK  status: ('A' for Active; 'I' for Inactive)
REMARK    1  A    between atoms: C_1  and  N_22
REMARK    2  A    between atoms: C_2  and  C_9
REMARK    3  A    between atoms: N_8  and  CA_11
REMARK    4  A    between atoms: CA_11  and  C_13
REMARK    5  A    between atoms: CA_11  and  CB_16
REMARK    6  A    between atoms: C_13  and  O_14
REMARK    7  A    between atoms: CB_16  and  CG_17
REMARK    8  A    between atoms: CG_17  and  CD_19
REMARK    9  A    between atoms: CD_19  and  OE1_20
REMARK   10  A    between atoms: N_22  and  C_24
REMARK   11  A    between atoms: C_24  and  C_29
REMARK                            x       y       z     vdW  Elec       q    Type
REMARK                         _______ _______ _______ _____ _____    ______ ____
ROOT
ATOM      1  C   UNL     1      35.129 -20.307 -20.722  0.00  0.00    +0.048 C 
ATOM      2  C   UNL     1      33.844 -22.208 -19.134  0.00  0.00    +0.053 C 
ATOM      3  C   UNL     1      35.880 -21.186 -19.942  0.00  0.00    +0.015 C 
ATOM      4  C   UNL     1      33.736 -20.378 -20.708  0.00  0.00    +0.015 C 
ATOM      5  C   UNL     1      35.238 -22.137 -19.148  0.00  0.00    +0.006 C 
ATOM      6  C   UNL     1      33.094 -21.328 -19.914  0.00  0.00    +0.006 C 
ENDROOT
BRANCH   2   9
ATOM      7  O   UNL     1      33.372 -24.413 -18.493  0.00  0.00    -0.270 OA
ATOM      8  N   UNL     1      32.331 -22.721 -17.294  0.00  0.00    -0.293 N 
ATOM      9  C   ACE A   0      33.160 -23.220 -18.289  0.00  0.00    +0.246 C 
ATOM     10  H   UNL     1      32.224 -21.746 -17.211  0.00  0.00    +0.150 HD
BRANCH   8  11
ATOM     11  CA  UNL     1      31.618 -23.576 -16.379  0.00  0.00    +0.172 C 
BRANCH  11  13
ATOM     12  OXT UNL     1      29.659 -22.469 -17.312  0.00  0.00    -0.248 OA
ATOM     13  C   UNL     1      30.138 -23.307 -16.558  0.00  0.00    +0.332 C 
BRANCH  13  14
ATOM     14  O   UNL     1      29.376 -24.141 -15.803  0.00  0.00    -0.479 OA
ATOM     15  H   UNL     1      28.911 -24.846 -16.208  0.00  0.00    +0.295 HD
ENDBRANCH  13  14
ENDBRANCH  11  13
BRANCH  11  16
ATOM     16  CB  UNL     1      32.103 -23.429 -14.931  0.00  0.00    +0.043 C 
BRANCH  16  17
ATOM     17  CG  UNL     1      33.151 -24.450 -14.472  0.00  0.00    +0.112 C 
BRANCH  17  19
ATOM     18  OE2 UNL     1      35.204 -24.689 -15.763  0.00  0.00    -0.250 OA
ATOM     19  CD  UNL     1      34.562 -24.109 -14.897  0.00  0.00    +0.314 C 
BRANCH  19  20
ATOM     20  OE1 UNL     1      35.071 -23.082 -14.166  0.00  0.00    -0.480 OA
ATOM     21  HE1 UNL     1      34.917 -22.197 -14.431  0.00  0.00    +0.295 HD
ENDBRANCH  19  20
ENDBRANCH  17  19
ENDBRANCH  16  17
ENDBRANCH  11  16
ENDBRANCH   8  11
ENDBRANCH   2   9
BRANCH   1  22
ATOM     22  N   UNL     1      35.778 -19.347 -21.525  0.00  0.00    -0.302 N 
ATOM     23  C   UNL     1      37.136 -18.937 -21.227  0.00  0.00    +0.112 C 
BRANCH  22  24
ATOM     24  C   UNL     1      35.101 -18.768 -22.669  0.00  0.00    +0.118 C 
BRANCH  24  29
ATOM     25  O   UNL     1      34.637 -15.219 -21.746  0.00  0.00    -0.427 OA
ATOM     26  N   UNL     1      33.944 -14.040 -23.703  0.00  0.00    -0.294 NA
ATOM     27  N   UNL     1      33.744 -15.447 -25.681  0.00  0.00    -0.317 NA
ATOM     28  N   UNL     1      33.283 -13.154 -25.766  0.00  0.00    -0.283 N 
ATOM     29  C   UNL     1      34.836 -17.296 -22.590  0.00  0.00    +0.031 C 
ATOM     30  C   UNL     1      34.421 -16.434 -23.633  0.00  0.00    +0.180 C 
ATOM     31  C   UNL     1      34.312 -15.167 -23.070  0.00  0.00    +0.281 C 
ATOM     32  C   UNL     1      34.951 -16.510 -21.466  0.00  0.00    +0.176 C 
ATOM     33  C   UNL     1      34.121 -16.547 -24.989  0.00  0.00    +0.181 C 
ATOM     34  C   UNL     1      33.681 -14.278 -25.005  0.00  0.00    +0.200 C 
ATOM     35  H   UNL     1      33.215 -12.270 -25.337  0.00  0.00    +0.156 HD
ATOM     36  H   UNL     1      33.075 -13.256 -26.722  0.00  0.00    +0.156 HD
ATOM     37  N   UNL     1      34.201 -17.787 -25.648  0.00  0.00    -0.335 N 
ATOM     38  H   UNL     1      33.986 -17.850 -26.606  0.00  0.00    +0.144 HD
ATOM     39  H   UNL     1      34.473 -18.593 -25.152  0.00  0.00    +0.144 HD
ENDBRANCH  24  29
ENDBRANCH  22  24
ENDBRANCH   1  22
TORSDOF 11
ENDMDL
MODEL 5
REMARK VINA RESULT:     -10.7      3.460     11.419
REMARK  Name = 158376
REMARK  11 active torsions:
REMARK  status: ('A' for Active; 'I' for Inactive)
REMARK    1  A    between atoms: C_1  and  N_22
REMARK    2  A    between atoms: C_2  and  C_9
REMARK    3  A    between atoms: N_8  and  CA_11
REMARK    4  A    between atoms: CA_11  and  C_13
REMARK    5  A    between atoms: CA_11  and  CB_16
REMARK    6  A    between atoms: C_13  and  O_14
REMARK    7  A    between atoms: CB_16  and  CG_17
REMARK    8  A    between atoms: CG_17  and  CD_19
REMARK    9  A    between atoms: CD_19  and  OE1_20
REMARK   10  A    between atoms: N_22  and  C_24
REMARK   11  A    between atoms: C_24  and  C_29
REMARK                            x       y       z     vdW  Elec       q    Type
REMARK                         _______ _______ _______ _____ _____    ______ ____
ROOT
ATOM      1  C   UNL     1      34.678 -17.615 -23.404  0.00  0.00    +0.048 C 
ATOM      2  C   UNL     1      34.054 -14.951 -23.952  0.00  0.00    +0.053 C 
ATOM      3  C   UNL     1      34.185 -17.259 -24.659  0.00  0.00    +0.015 C 
ATOM      4  C   UNL     1      34.860 -16.640 -22.423  0.00  0.00    +0.015 C 
ATOM      5  C   UNL     1      33.873 -15.927 -24.933  0.00  0.00    +0.006 C 
ATOM      6  C   UNL     1      34.547 -15.308 -22.698  0.00  0.00    +0.006 C 
ENDROOT
BRANCH   2   9
ATOM      7  O   UNL     1      33.223 -12.840 -23.361  0.00  0.00    -0.270 OA
ATOM      8  N   UNL     1      34.033 -13.087 -25.521  0.00  0.00    -0.293 N 
ATOM      9  C   ACE A   0      33.722 -13.533 -24.244  0.00  0.00    +0.246 C 
ATOM     10  H   UNL     1      34.432 -13.720 -26.160  0.00  0.00    +0.150 HD
BRANCH   8  11
ATOM     11  CA  UNL     1      33.795 -11.731 -25.947  0.00  0.00    +0.172 C 
BRANCH  11  13
ATOM     12  OXT UNL     1      32.425 -11.424 -27.937  0.00  0.00    -0.248 OA
ATOM     13  C   UNL     1      33.486 -11.764 -27.430  0.00  0.00    +0.332 C 
BRANCH  13  14
ATOM     14  O   UNL     1      34.551 -12.187 -28.161  0.00  0.00    -0.479 OA
ATOM     15  H   UNL     1      35.102 -11.563 -28.589  0.00  0.00    +0.295 HD
ENDBRANCH  13  14
ENDBRANCH  11  13
BRANCH  11  16
ATOM     16  CB  UNL     1      34.940 -10.782 -25.574  0.00  0.00    +0.043 C 
BRANCH  16  17
ATOM     17  CG  UNL     1      34.616  -9.731 -24.506  0.00  0.00    +0.112 C 
BRANCH  17  19
ATOM     18  OE2 UNL     1      32.557  -8.632 -25.210  0.00  0.00    -0.250 OA
ATOM     19  CD  UNL     1      33.148  -9.369 -24.432  0.00  0.00    +0.314 C 
BRANCH  19  20
ATOM     20  OE1 UNL     1      32.547  -9.937 -23.353  0.00  0.00    -0.480 OA
ATOM     21  HE1 UNL     1      32.455 -10.869 -23.305  0.00  0.00    +0.295 HD
ENDBRANCH  19  20
ENDBRANCH  17  19
ENDBRANCH  16  17
ENDBRANCH  11  16
ENDBRANCH   8  11
ENDBRANCH   2   9
BRANCH   1  22
ATOM     22  N   UNL     1      34.995 -18.961 -23.127  0.00  0.00    -0.302 N 
ATOM     23  C   UNL     1      35.074 -19.932 -24.200  0.00  0.00    +0.112 C 
BRANCH  22  24
ATOM     24  C   UNL     1      35.261 -19.387 -21.767  0.00  0.00    +0.118 C 
BRANCH  24  29
ATOM     25  O   UNL     1      32.051 -20.739 -20.528  0.00  0.00    -0.427 OA
ATOM     26  N   UNL     1      32.541 -22.341 -18.827  0.00  0.00    -0.294 NA
ATOM     27  N   UNL     1      34.922 -22.625 -18.400  0.00  0.00    -0.317 NA
ATOM     28  N   UNL     1      33.316 -23.846 -17.212  0.00  0.00    -0.283 N 
ATOM     29  C   UNL     1      34.139 -20.102 -21.081  0.00  0.00    +0.031 C 
ATOM     30  C   UNL     1      34.231 -21.076 -20.057  0.00  0.00    +0.180 C 
ATOM     31  C   UNL     1      32.923 -21.440 -19.748  0.00  0.00    +0.281 C 
ATOM     32  C   UNL     1      32.796 -19.933 -21.329  0.00  0.00    +0.176 C 
ATOM     33  C   UNL     1      35.245 -21.709 -19.341  0.00  0.00    +0.181 C 
ATOM     34  C   UNL     1      33.609 -22.882 -18.204  0.00  0.00    +0.200 C 
ATOM     35  H   UNL     1      32.380 -24.082 -17.017  0.00  0.00    +0.156 HD
ATOM     36  H   UNL     1      34.048 -24.280 -16.718  0.00  0.00    +0.156 HD
ATOM     37  N   UNL     1      36.598 -21.407 -19.580  0.00  0.00    -0.335 N 
ATOM     38  H   UNL     1      37.302 -21.863 -19.066  0.00  0.00    +0.144 HD
ATOM     39  H   UNL     1      36.841 -20.740 -20.262  0.00  0.00    +0.144 HD
ENDBRANCH  24  29
ENDBRANCH  22  24
ENDBRANCH   1  22
TORSDOF 11
ENDMDL
MODEL 6
REMARK VINA RESULT:     -10.7      2.821      4.160
REMARK  Name = 158376
REMARK  11 active torsions:
REMARK  status: ('A' for Active; 'I' for Inactive)
REMARK    1  A    between atoms: C_1  and  N_22
REMARK    2  A    between atoms: C_2  and  C_9
REMARK    3  A    between atoms: N_8  and  CA_11
REMARK    4  A    between atoms: CA_11  and  C_13
REMARK    5  A    between atoms: CA_11  and  CB_16
REMARK    6  A    between atoms: C_13  and  O_14
REMARK    7  A    between atoms: CB_16  and  CG_17
REMARK    8  A    between atoms: CG_17  and  CD_19
REMARK    9  A    between atoms: CD_19  and  OE1_20
REMARK   10  A    between atoms: N_22  and  C_24
REMARK   11  A    between atoms: C_24  and  C_29
REMARK                            x       y       z     vdW  Elec       q    Type
REMARK                         _______ _______ _______ _____ _____    ______ ____
ROOT
ATOM      1  C   UNL     1      34.856 -21.272 -19.644  0.00  0.00    +0.048 C 
ATOM      2  C   UNL     1      36.059 -22.443 -17.416  0.00  0.00    +0.053 C 
ATOM      3  C   UNL     1      36.198 -21.016 -19.361  0.00  0.00    +0.015 C 
ATOM      4  C   UNL     1      34.116 -22.113 -18.814  0.00  0.00    +0.015 C 
ATOM      5  C   UNL     1      36.799 -21.601 -18.247  0.00  0.00    +0.006 C 
ATOM      6  C   UNL     1      34.718 -22.698 -17.699  0.00  0.00    +0.006 C 
ENDROOT
BRANCH   2   9
ATOM      7  O   UNL     1      37.598 -22.464 -15.646  0.00  0.00    -0.270 OA
ATOM      8  N   UNL     1      36.202 -24.305 -15.851  0.00  0.00    -0.293 N 
ATOM      9  C   ACE A   0      36.700 -23.067 -16.229  0.00  0.00    +0.246 C 
ATOM     10  H   UNL     1      35.479 -24.709 -16.384  0.00  0.00    +0.150 HD
BRANCH   8  11
ATOM     11  CA  UNL     1      36.702 -25.026 -14.708  0.00  0.00    +0.172 C 
BRANCH  11  13
ATOM     12  OXT UNL     1      37.877 -27.159 -14.727  0.00  0.00    -0.248 OA
ATOM     13  C   UNL     1      36.968 -26.452 -15.144  0.00  0.00    +0.332 C 
BRANCH  13  14
ATOM     14  O   UNL     1      36.047 -26.888 -16.043  0.00  0.00    -0.479 OA
ATOM     15  H   UNL     1      36.169 -27.707 -16.479  0.00  0.00    +0.295 HD
ENDBRANCH  13  14
ENDBRANCH  11  13
BRANCH  11  16
ATOM     16  CB  UNL     1      35.781 -24.914 -13.487  0.00  0.00    +0.043 C 
BRANCH  16  17
ATOM     17  CG  UNL     1      35.900 -23.616 -12.677  0.00  0.00    +0.112 C 
BRANCH  17  19
ATOM     18  OE2 UNL     1      37.964 -22.430 -12.159  0.00  0.00    -0.250 OA
ATOM     19  CD  UNL     1      37.256 -23.420 -12.036  0.00  0.00    +0.314 C 
BRANCH  19  20
ATOM     20  OE1 UNL     1      37.633 -24.511 -11.318  0.00  0.00    -0.480 OA
ATOM     21  HE1 UNL     1      38.503 -24.567 -10.975  0.00  0.00    +0.295 HD
ENDBRANCH  19  20
ENDBRANCH  17  19
ENDBRANCH  16  17
ENDBRANCH  11  16
ENDBRANCH   8  11
ENDBRANCH   2   9
BRANCH   1  22
ATOM     22  N   UNL     1      34.248 -20.681 -20.771  0.00  0.00    -0.302 N 
ATOM     23  C   UNL     1      32.805 -20.580 -20.858  0.00  0.00    +0.112 C 
BRANCH  22  24
ATOM     24  C   UNL     1      35.059 -20.153 -21.851  0.00  0.00    +0.118 C 
BRANCH  24  29
ATOM     25  O   UNL     1      35.177 -16.468 -21.586  0.00  0.00    -0.427 OA
ATOM     26  N   UNL     1      34.475 -15.562 -23.680  0.00  0.00    -0.294 NA
ATOM     27  N   UNL     1      33.900 -17.250 -25.339  0.00  0.00    -0.317 NA
ATOM     28  N   UNL     1      33.754 -14.965 -25.824  0.00  0.00    -0.283 N 
ATOM     29  C   UNL     1      35.009 -18.668 -22.033  0.00  0.00    +0.031 C 
ATOM     30  C   UNL     1      34.621 -17.951 -23.191  0.00  0.00    +0.180 C 
ATOM     31  C   UNL     1      34.741 -16.602 -22.871  0.00  0.00    +0.281 C 
ATOM     32  C   UNL     1      35.335 -17.722 -21.089  0.00  0.00    +0.176 C 
ATOM     33  C   UNL     1      34.184 -18.255 -24.479  0.00  0.00    +0.181 C 
ATOM     34  C   UNL     1      34.062 -15.984 -24.893  0.00  0.00    +0.200 C 
ATOM     35  H   UNL     1      33.849 -14.019 -25.567  0.00  0.00    +0.156 HD
ATOM     36  H   UNL     1      33.446 -15.202 -26.728  0.00  0.00    +0.156 HD
ATOM     37  N   UNL     1      34.030 -19.589 -24.896  0.00  0.00    -0.335 N 
ATOM     38  H   UNL     1      33.720 -19.787 -25.808  0.00  0.00    +0.144 HD
ATOM     39  H   UNL     1      34.234 -20.326 -24.275  0.00  0.00    +0.144 HD
ENDBRANCH  24  29
ENDBRANCH  22  24
ENDBRANCH   1  22
TORSDOF 11
ENDMDL
MODEL 7
REMARK VINA RESULT:     -10.4      3.408     11.378
REMARK  Name = 158376
REMARK  11 active torsions:
REMARK  status: ('A' for Active; 'I' for Inactive)
REMARK    1  A    between atoms: C_1  and  N_22
REMARK    2  A    between atoms: C_2  and  C_9
REMARK    3  A    between atoms: N_8  and  CA_11
REMARK    4  A    between atoms: CA_11  and  C_13
REMARK    5  A    between atoms: CA_11  and  CB_16
REMARK    6  A    between atoms: C_13  and  O_14
REMARK    7  A    between atoms: CB_16  and  CG_17
REMARK    8  A    between atoms: CG_17  and  CD_19
REMARK    9  A    between atoms: CD_19  and  OE1_20
REMARK   10  A    between atoms: N_22  and  C_24
REMARK   11  A    between atoms: C_24  and  C_29
REMARK                            x       y       z     vdW  Elec       q    Type
REMARK                         _______ _______ _______ _____ _____    ______ ____
ROOT
ATOM      1  C   UNL     1      35.188 -17.192 -22.578  0.00  0.00    +0.048 C 
ATOM      2  C   UNL     1      34.205 -14.765 -23.542  0.00  0.00    +0.053 C 
ATOM      3  C   UNL     1      34.856 -16.171 -21.686  0.00  0.00    +0.015 C 
ATOM      4  C   UNL     1      35.028 -17.000 -23.950  0.00  0.00    +0.015 C 
ATOM      5  C   UNL     1      34.365 -14.958 -22.169  0.00  0.00    +0.006 C 
ATOM      6  C   UNL     1      34.537 -15.786 -24.431  0.00  0.00    +0.006 C 
ENDROOT
BRANCH   2   9
ATOM      7  O   UNL     1      32.840 -12.864 -23.398  0.00  0.00    -0.270 OA
ATOM      8  N   UNL     1      34.217 -13.035 -25.258  0.00  0.00    -0.293 N 
ATOM      9  C   ACE A   0      33.681 -13.473 -24.055  0.00  0.00    +0.246 C 
ATOM     10  H   UNL     1      34.887 -13.596 -25.710  0.00  0.00    +0.150 HD
BRANCH   8  11
ATOM     11  CA  UNL     1      33.829 -11.790 -25.871  0.00  0.00    +0.172 C 
BRANCH  11  13
ATOM     12  OXT UNL     1      34.538 -12.495 -28.092  0.00  0.00    -0.248 OA
ATOM     13  C   UNL     1      33.670 -12.040 -27.357  0.00  0.00    +0.332 C 
BRANCH  13  14
ATOM     14  O   UNL     1      32.419 -11.735 -27.792  0.00  0.00    -0.479 OA
ATOM     15  H   UNL     1      32.001 -10.950 -27.501  0.00  0.00    +0.295 HD
ENDBRANCH  13  14
ENDBRANCH  11  13
BRANCH  11  16
ATOM     16  CB  UNL     1      34.786 -10.640 -25.536  0.00  0.00    +0.043 C 
BRANCH  16  17
ATOM     17  CG  UNL     1      34.405  -9.787 -24.320  0.00  0.00    +0.112 C 
BRANCH  17  19
ATOM     18  OE2 UNL     1      32.387  -8.653 -25.081  0.00  0.00    -0.250 OA
ATOM     19  CD  UNL     1      32.944  -9.395 -24.283  0.00  0.00    +0.314 C 
BRANCH  19  20
ATOM     20  OE1 UNL     1      32.306  -9.941 -23.215  0.00  0.00    -0.480 OA
ATOM     21  HE1 UNL     1      32.368  -9.533 -22.374  0.00  0.00    +0.295 HD
ENDBRANCH  19  20
ENDBRANCH  17  19
ENDBRANCH  16  17
ENDBRANCH  11  16
ENDBRANCH   8  11
ENDBRANCH   2   9
BRANCH   1  22
ATOM     22  N   UNL     1      35.684 -18.418 -22.091  0.00  0.00    -0.302 N 
ATOM     23  C   UNL     1      37.085 -18.559 -21.746  0.00  0.00    +0.112 C 
BRANCH  22  24
ATOM     24  C   UNL     1      34.796 -19.551 -21.915  0.00  0.00    +0.118 C 
BRANCH  24  29
ATOM     25  O   UNL     1      36.403 -21.695 -19.368  0.00  0.00    -0.427 OA
ATOM     26  N   UNL     1      34.674 -22.808 -18.154  0.00  0.00    -0.294 NA
ATOM     27  N   UNL     1      32.426 -22.244 -18.903  0.00  0.00    -0.317 NA
ATOM     28  N   UNL     1      32.784 -23.749 -17.146  0.00  0.00    -0.283 N 
ATOM     29  C   UNL     1      35.159 -20.494 -20.809  0.00  0.00    +0.031 C 
ATOM     30  C   UNL     1      34.282 -21.240 -19.985  0.00  0.00    +0.180 C 
ATOM     31  C   UNL     1      35.090 -21.963 -19.113  0.00  0.00    +0.281 C 
ATOM     32  C   UNL     1      36.433 -20.807 -20.395  0.00  0.00    +0.176 C 
ATOM     33  C   UNL     1      32.905 -21.406 -19.851  0.00  0.00    +0.181 C 
ATOM     34  C   UNL     1      33.328 -22.883 -18.123  0.00  0.00    +0.200 C 
ATOM     35  H   UNL     1      33.382 -24.247 -16.544  0.00  0.00    +0.156 HD
ATOM     36  H   UNL     1      31.808 -23.852 -17.069  0.00  0.00    +0.156 HD
ATOM     37  N   UNL     1      32.007 -20.719 -20.687  0.00  0.00    -0.335 N 
ATOM     38  H   UNL     1      31.038 -20.847 -20.579  0.00  0.00    +0.144 HD
ATOM     39  H   UNL     1      32.348 -20.108 -21.380  0.00  0.00    +0.144 HD
ENDBRANCH  24  29
ENDBRANCH  22  24
ENDBRANCH   1  22
TORSDOF 11
ENDMDL
MODEL 8
REMARK VINA RESULT:     -10.3      1.890      2.482
REMARK  Name = 158376
REMARK  11 active torsions:
REMARK  status: ('A' for Active; 'I' for Inactive)
REMARK    1  A    between atoms: C_1  and  N_22
REMARK    2  A    between atoms: C_2  and  C_9
REMARK    3  A    between atoms: N_8  and  CA_11
REMARK    4  A    between atoms: CA_11  and  C_13
REMARK    5  A    between atoms: CA_11  and  CB_16
REMARK    6  A    between atoms: C_13  and  O_14
REMARK    7  A    between atoms: CB_16  and  CG_17
REMARK    8  A    between atoms: CG_17  and  CD_19
REMARK    9  A    between atoms: CD_19  and  OE1_20
REMARK   10  A    between atoms: N_22  and  C_24
REMARK   11  A    between atoms: C_24  and  C_29
REMARK                            x       y       z     vdW  Elec       q    Type
REMARK                         _______ _______ _______ _____ _____    ______ ____
ROOT
ATOM      1  C   UNL     1      34.416 -20.046 -21.205  0.00  0.00    +0.048 C 
ATOM      2  C   UNL     1      33.995 -22.043 -19.303  0.00  0.00    +0.053 C 
ATOM      3  C   UNL     1      35.504 -20.711 -20.640  0.00  0.00    +0.015 C 
ATOM      4  C   UNL     1      33.118 -20.379 -20.820  0.00  0.00    +0.015 C 
ATOM      5  C   UNL     1      35.294 -21.709 -19.689  0.00  0.00    +0.006 C 
ATOM      6  C   UNL     1      32.908 -21.378 -19.868  0.00  0.00    +0.006 C 
ENDROOT
BRANCH   2   9
ATOM      7  O   UNL     1      33.424 -24.225 -18.662  0.00  0.00    -0.270 OA
ATOM      8  N   UNL     1      34.002 -22.748 -16.970  0.00  0.00    -0.293 N 
ATOM      9  C   ACE A   0      33.771 -23.107 -18.290  0.00  0.00    +0.246 C 
ATOM     10  H   UNL     1      34.278 -21.824 -16.771  0.00  0.00    +0.150 HD
BRANCH   8  11
ATOM     11  CA  UNL     1      33.852 -23.675 -15.877  0.00  0.00    +0.172 C 
BRANCH  11  13
ATOM     12  OXT UNL     1      31.417 -23.620 -15.857  0.00  0.00    -0.248 OA
ATOM     13  C   UNL     1      32.480 -23.454 -15.273  0.00  0.00    +0.332 C 
BRANCH  13  14
ATOM     14  O   UNL     1      32.554 -23.079 -13.969  0.00  0.00    -0.479 OA
ATOM     15  H   UNL     1      33.038 -23.599 -13.359  0.00  0.00    +0.295 HD
ENDBRANCH  13  14
ENDBRANCH  11  13
BRANCH  11  16
ATOM     16  CB  UNL     1      34.998 -23.583 -14.861  0.00  0.00    +0.043 C 
BRANCH  16  17
ATOM     17  CG  UNL     1      36.352 -24.128 -15.331  0.00  0.00    +0.112 C 
BRANCH  17  19
ATOM     18  OE2 UNL     1      36.925 -21.944 -16.247  0.00  0.00    -0.250 OA
ATOM     19  CD  UNL     1      37.264 -23.072 -15.917  0.00  0.00    +0.314 C 
BRANCH  19  20
ATOM     20  OE1 UNL     1      38.530 -23.539 -16.080  0.00  0.00    -0.480 OA
ATOM     21  HE1 UNL     1      39.135 -23.071 -16.621  0.00  0.00    +0.295 HD
ENDBRANCH  19  20
ENDBRANCH  17  19
ENDBRANCH  16  17
ENDBRANCH  11  16
ENDBRANCH   8  11
ENDBRANCH   2   9
BRANCH   1  22
ATOM     22  N   UNL     1      34.628 -19.037 -22.167  0.00  0.00    -0.302 N 
ATOM     23  C   UNL     1      33.921 -19.068 -23.432  0.00  0.00    +0.112 C 
BRANCH  22  24
ATOM     24  C   UNL     1      35.545 -17.947 -21.898  0.00  0.00    +0.118 C 
BRANCH  24  29
ATOM     25  O   UNL     1      33.982 -14.780 -20.807  0.00  0.00    -0.427 OA
ATOM     26  N   UNL     1      33.634 -13.431 -22.746  0.00  0.00    -0.294 NA
ATOM     27  N   UNL     1      34.375 -14.476 -24.818  0.00  0.00    -0.317 NA
ATOM     28  N   UNL     1      33.418 -12.341 -24.805  0.00  0.00    -0.283 N 
ATOM     29  C   UNL     1      34.920 -16.594 -21.754  0.00  0.00    +0.031 C 
ATOM     30  C   UNL     1      34.635 -15.659 -22.778  0.00  0.00    +0.180 C 
ATOM     31  C   UNL     1      34.060 -14.558 -22.150  0.00  0.00    +0.281 C 
ATOM     32  C   UNL     1      34.504 -16.013 -20.578  0.00  0.00    +0.176 C 
ATOM     33  C   UNL     1      34.786 -15.586 -24.161  0.00  0.00    +0.181 C 
ATOM     34  C   UNL     1      33.833 -13.481 -24.079  0.00  0.00    +0.200 C 
ATOM     35  H   UNL     1      33.014 -11.577 -24.331  0.00  0.00    +0.156 HD
ATOM     36  H   UNL     1      33.532 -12.310 -25.781  0.00  0.00    +0.156 HD
ATOM     37  N   UNL     1      35.356 -16.649 -24.885  0.00  0.00    -0.335 N 
ATOM     38  H   UNL     1      35.455 -16.582 -25.862  0.00  0.00    +0.144 HD
ATOM     39  H   UNL     1      35.656 -17.460 -24.415  0.00  0.00    +0.144 HD
ENDBRANCH  24  29
ENDBRANCH  22  24
ENDBRANCH   1  22
TORSDOF 11
ENDMDL
MODEL 9
REMARK VINA RESULT:     -10.3      3.361     10.665
REMARK  Name = 158376
REMARK  11 active torsions:
REMARK  status: ('A' for Active; 'I' for Inactive)
REMARK    1  A    between atoms: C_1  and  N_22
REMARK    2  A    between atoms: C_2  and  C_9
REMARK    3  A    between atoms: N_8  and  CA_11
REMARK    4  A    between atoms: CA_11  and  C_13
REMARK    5  A    between atoms: CA_11  and  CB_16
REMARK    6  A    between atoms: C_13  and  O_14
REMARK    7  A    between atoms: CB_16  and  CG_17
REMARK    8  A    between atoms: CG_17  and  CD_19
REMARK    9  A    between atoms: CD_19  and  OE1_20
REMARK   10  A    between atoms: N_22  and  C_24
REMARK   11  A    between atoms: C_24  and  C_29
REMARK                            x       y       z     vdW  Elec       q    Type
REMARK                         _______ _______ _______ _____ _____    ______ ____
ROOT
ATOM      1  C   UNL     1      35.218 -17.419 -22.620  0.00  0.00    +0.048 C 
ATOM      2  C   UNL     1      34.198 -15.095 -23.781  0.00  0.00    +0.053 C 
ATOM      3  C   UNL     1      34.980 -17.373 -23.994  0.00  0.00    +0.015 C 
ATOM      4  C   UNL     1      34.946 -16.304 -21.827  0.00  0.00    +0.015 C 
ATOM      5  C   UNL     1      34.471 -16.211 -24.574  0.00  0.00    +0.006 C 
ATOM      6  C   UNL     1      34.436 -15.142 -22.408  0.00  0.00    +0.006 C 
ENDROOT
BRANCH   2   9
ATOM      7  O   UNL     1      33.021 -13.941 -25.448  0.00  0.00    -0.270 OA
ATOM      8  N   UNL     1      33.897 -12.678 -23.710  0.00  0.00    -0.293 N 
ATOM      9  C   ACE A   0      33.656 -13.859 -24.400  0.00  0.00    +0.246 C 
ATOM     10  H   UNL     1      34.418 -12.715 -22.876  0.00  0.00    +0.150 HD
BRANCH   8  11
ATOM     11  CA  UNL     1      33.415 -11.400 -24.169  0.00  0.00    +0.172 C 
BRANCH  11  13
ATOM     12  OXT UNL     1      34.668 -10.936 -26.206  0.00  0.00    -0.248 OA
ATOM     13  C   UNL     1      34.511 -10.769 -25.003  0.00  0.00    +0.332 C 
BRANCH  13  14
ATOM     14  O   UNL     1      35.300  -9.945 -24.263  0.00  0.00    -0.479 OA
ATOM     15  H   UNL     1      35.015  -9.658 -23.419  0.00  0.00    +0.295 HD
ENDBRANCH  13  14
ENDBRANCH  11  13
BRANCH  11  16
ATOM     16  CB  UNL     1      32.916 -10.509 -23.025  0.00  0.00    +0.043 C 
BRANCH  16  17
ATOM     17  CG  UNL     1      31.517 -10.835 -22.487  0.00  0.00    +0.112 C 
BRANCH  17  19
ATOM     18  OE2 UNL     1      31.551 -11.387 -20.114  0.00  0.00    -0.250 OA
ATOM     19  CD  UNL     1      31.525 -11.750 -21.282  0.00  0.00    +0.314 C 
BRANCH  19  20
ATOM     20  OE1 UNL     1      31.539 -13.059 -21.648  0.00  0.00    -0.480 OA
ATOM     21  HE1 UNL     1      30.903 -13.650 -21.296  0.00  0.00    +0.295 HD
ENDBRANCH  19  20
ENDBRANCH  17  19
ENDBRANCH  16  17
ENDBRANCH  11  16
ENDBRANCH   8  11
ENDBRANCH   2   9
BRANCH   1  22
ATOM     22  N   UNL     1      35.734 -18.592 -22.033  0.00  0.00    -0.302 N 
ATOM     23  C   UNL     1      37.089 -18.621 -21.518  0.00  0.00    +0.112 C 
BRANCH  22  24
ATOM     24  C   UNL     1      34.911 -19.781 -21.923  0.00  0.00    +0.118 C 
BRANCH  24  29
ATOM     25  O   UNL     1      36.371 -21.825 -19.210  0.00  0.00    -0.427 OA
ATOM     26  N   UNL     1      34.572 -22.817 -17.994  0.00  0.00    -0.294 NA
ATOM     27  N   UNL     1      32.366 -22.230 -18.846  0.00  0.00    -0.317 NA
ATOM     28  N   UNL     1      32.623 -23.644 -16.998  0.00  0.00    -0.283 N 
ATOM     29  C   UNL     1      35.210 -20.670 -20.756  0.00  0.00    +0.031 C 
ATOM     30  C   UNL     1      34.286 -21.343 -19.921  0.00  0.00    +0.180 C 
ATOM     31  C   UNL     1      35.043 -22.040 -18.984  0.00  0.00    +0.281 C 
ATOM     32  C   UNL     1      36.461 -20.997 -20.283  0.00  0.00    +0.176 C 
ATOM     33  C   UNL     1      32.901 -21.461 -19.822  0.00  0.00    +0.181 C 
ATOM     34  C   UNL     1      33.223 -22.851 -18.003  0.00  0.00    +0.200 C 
ATOM     35  H   UNL     1      33.187 -24.125 -16.350  0.00  0.00    +0.156 HD
ATOM     36  H   UNL     1      31.643 -23.714 -16.947  0.00  0.00    +0.156 HD
ATOM     37  N   UNL     1      32.051 -20.796 -20.724  0.00  0.00    -0.335 N 
ATOM     38  H   UNL     1      31.075 -20.889 -20.641  0.00  0.00    +0.144 HD
ATOM     39  H   UNL     1      32.432 -20.235 -21.438  0.00  0.00    +0.144 HD
ENDBRANCH  24  29
ENDBRANCH  22  24
ENDBRANCH   1  22
TORSDOF 11
ENDMDL
