MODEL 1
REMARK VINA RESULT:     -12.4      0.000      0.000
REMARK  Name = 5288607
REMARK  4 active torsions:
REMARK  status: ('A' for Active; 'I' for Inactive)
REMARK    1  A    between atoms: N_2  and  C_19
REMARK    2  A    between atoms: C_3  and  C_6
REMARK    3  A    between atoms: C_5  and  C_16
REMARK    4  A    between atoms: C_19  and  C_21
REMARK                            x       y       z     vdW  Elec       q    Type
REMARK                         _______ _______ _______ _____ _____    ______ ____
ROOT
ATOM      1  O   UNL     1      33.430 -16.588 -25.762  0.00  0.00    -0.270 OA
ATOM      2  N   UNL     1      33.943 -14.531 -24.809  0.00  0.00    -0.270 N 
ATOM      3  C   UNL     1      33.908 -15.928 -24.839  0.00  0.00    +0.249 C 
ATOM      4  C   UNL     1      33.385 -13.779 -25.925  0.00  0.00    +0.116 C 
ENDROOT
BRANCH   3   6
ATOM      5  C   UNL     1      34.477 -17.977 -23.583  0.00  0.00    +0.006 C 
ATOM      6  C   UNL     1      34.472 -16.624 -23.644  0.00  0.00    +0.058 C 
BRANCH   5  16
ATOM      7  O   UNL     1      36.275 -22.549 -17.650  0.00  0.00    -0.275 OA
ATOM      8  N   UNL     1      36.485 -20.937 -19.271  0.00  0.00    -0.270 N 
ATOM      9  N   UNL     1      36.785 -19.324 -20.976  0.00  0.00    -0.229 NA
ATOM     10  C   UNL     1      33.757 -21.324 -19.939  0.00  0.00    +0.039 C 
ATOM     11  C   UNL     1      34.640 -20.412 -20.737  0.00  0.00    +0.010 C 
ATOM     12  C   UNL     1      34.565 -22.459 -19.328  0.00  0.00    +0.090 C 
ATOM     13  C   UNL     1      35.967 -20.211 -20.361  0.00  0.00    +0.130 C 
ATOM     14  C   UNL     1      34.141 -19.665 -21.805  0.00  0.00    +0.000 C 
ATOM     15  C   UNL     1      35.829 -21.977 -18.645  0.00  0.00    +0.227 C 
ATOM     16  C   UNL     1      34.967 -18.764 -22.466  0.00  0.00    +0.019 C 
ATOM     17  C   UNL     1      36.269 -18.630 -22.014  0.00  0.00    +0.100 C 
ATOM     18  H   UNL     1      37.375 -20.685 -18.934  0.00  0.00    +0.156 HD
ENDBRANCH   5  16
ENDBRANCH   3   6
BRANCH   2  19
ATOM     19  C   UNL     1      34.475 -13.727 -23.711  0.00  0.00    +0.122 C 
BRANCH  19  21
ATOM     20  N   UNL     1      32.961 -10.416 -23.977  0.00  0.00    -0.284 N 
ATOM     21  C   UNL     1      33.699 -12.460 -23.597  0.00  0.00    +0.014 C 
ATOM     22  C   UNL     1      32.693 -12.182 -22.641  0.00  0.00    +0.013 C 
ATOM     23  C   UNL     1      32.242 -10.887 -22.901  0.00  0.00    +0.051 C 
ATOM     24  C   UNL     1      33.849 -11.366 -24.404  0.00  0.00    +0.063 C 
ATOM     25  C   UNL     1      32.113 -12.901 -21.577  0.00  0.00    +0.001 C 
ATOM     26  C   UNL     1      31.236 -10.271 -22.147  0.00  0.00    +0.015 C 
ATOM     27  C   UNL     1      32.811  -9.108 -24.579  0.00  0.00    +0.117 C 
ATOM     28  C   UNL     1      31.108 -12.299 -20.813  0.00  0.00    +0.000 C 
ATOM     29  C   UNL     1      30.677 -11.005 -21.096  0.00  0.00    +0.001 C 
ENDBRANCH  19  21
ENDBRANCH   2  19
TORSDOF 4
ENDMDL
MODEL 2
REMARK VINA RESULT:     -12.2      0.687      2.037
REMARK  Name = 5288607
REMARK  4 active torsions:
REMARK  status: ('A' for Active; 'I' for Inactive)
REMARK    1  A    between atoms: N_2  and  C_19
REMARK    2  A    between atoms: C_3  and  C_6
REMARK    3  A    between atoms: C_5  and  C_16
REMARK    4  A    between atoms: C_19  and  C_21
REMARK                            x       y       z     vdW  Elec       q    Type
REMARK                         _______ _______ _______ _____ _____    ______ ____
ROOT
ATOM      1  O   UNL     1      33.367 -16.343 -25.810  0.00  0.00    -0.270 OA
ATOM      2  N   UNL     1      33.882 -14.312 -24.803  0.00  0.00    -0.270 N 
ATOM      3  C   UNL     1      33.829 -15.707 -24.861  0.00  0.00    +0.249 C 
ATOM      4  C   UNL     1      33.367 -13.530 -25.920  0.00  0.00    +0.116 C 
ENDROOT
BRANCH   3   6
ATOM      5  C   UNL     1      34.533 -17.775 -23.708  0.00  0.00    +0.006 C 
ATOM      6  C   UNL     1      34.348 -16.434 -23.664  0.00  0.00    +0.058 C 
BRANCH   5  16
ATOM      7  O   UNL     1      36.202 -22.488 -17.848  0.00  0.00    -0.275 OA
ATOM      8  N   UNL     1      36.459 -20.860 -19.447  0.00  0.00    -0.270 N 
ATOM      9  N   UNL     1      36.805 -19.234 -21.130  0.00  0.00    -0.229 NA
ATOM     10  C   UNL     1      33.718 -21.148 -20.109  0.00  0.00    +0.039 C 
ATOM     11  C   UNL     1      34.627 -20.255 -20.899  0.00  0.00    +0.010 C 
ATOM     12  C   UNL     1      34.491 -22.318 -19.518  0.00  0.00    +0.090 C 
ATOM     13  C   UNL     1      35.961 -20.103 -20.525  0.00  0.00    +0.130 C 
ATOM     14  C   UNL     1      34.148 -19.476 -21.954  0.00  0.00    +0.000 C 
ATOM     15  C   UNL     1      35.771 -21.887 -18.833  0.00  0.00    +0.227 C 
ATOM     16  C   UNL     1      35.002 -18.593 -22.604  0.00  0.00    +0.019 C 
ATOM     17  C   UNL     1      36.308 -18.508 -22.156  0.00  0.00    +0.100 C 
ATOM     18  H   UNL     1      37.358 -20.643 -19.110  0.00  0.00    +0.156 HD
ENDBRANCH   5  16
ENDBRANCH   3   6
BRANCH   2  19
ATOM     19  C   UNL     1      34.394 -13.537 -23.675  0.00  0.00    +0.122 C 
BRANCH  19  21
ATOM     20  N   UNL     1      31.696 -11.414 -22.434  0.00  0.00    -0.284 N 
ATOM     21  C   UNL     1      33.421 -12.465 -23.321  0.00  0.00    +0.014 C 
ATOM     22  C   UNL     1      33.460 -11.123 -23.767  0.00  0.00    +0.013 C 
ATOM     23  C   UNL     1      32.362 -10.479 -23.194  0.00  0.00    +0.051 C 
ATOM     24  C   UNL     1      32.332 -12.623 -22.507  0.00  0.00    +0.063 C 
ATOM     25  C   UNL     1      34.320 -10.382 -24.602  0.00  0.00    +0.001 C 
ATOM     26  C   UNL     1      32.080  -9.126 -23.414  0.00  0.00    +0.015 C 
ATOM     27  C   UNL     1      30.495 -11.168 -21.663  0.00  0.00    +0.117 C 
ATOM     28  C   UNL     1      34.051  -9.029 -24.832  0.00  0.00    +0.000 C 
ATOM     29  C   UNL     1      32.947  -8.412 -24.247  0.00  0.00    +0.001 C 
ENDBRANCH  19  21
ENDBRANCH   2  19
TORSDOF 4
ENDMDL
MODEL 3
REMARK VINA RESULT:     -11.2      5.737     12.315
REMARK  Name = 5288607
REMARK  4 active torsions:
REMARK  status: ('A' for Active; 'I' for Inactive)
REMARK    1  A    between atoms: N_2  and  C_19
REMARK    2  A    between atoms: C_3  and  C_6
REMARK    3  A    between atoms: C_5  and  C_16
REMARK    4  A    between atoms: C_19  and  C_21
REMARK                            x       y       z     vdW  Elec       q    Type
REMARK                         _______ _______ _______ _____ _____    ______ ____
ROOT
ATOM      1  O   UNL     1      30.568 -24.733 -16.441  0.00  0.00    -0.270 OA
ATOM      2  N   UNL     1      32.004 -24.273 -14.673  0.00  0.00    -0.270 N 
ATOM      3  C   UNL     1      31.505 -24.092 -15.966  0.00  0.00    +0.249 C 
ATOM      4  C   UNL     1      31.399 -25.277 -13.808  0.00  0.00    +0.116 C 
ENDROOT
BRANCH   3   6
ATOM      5  C   UNL     1      33.165 -23.438 -17.674  0.00  0.00    +0.006 C 
ATOM      6  C   UNL     1      32.201 -23.066 -16.799  0.00  0.00    +0.058 C 
BRANCH   5  16
ATOM      7  O   UNL     1      36.442 -18.399 -22.491  0.00  0.00    -0.275 OA
ATOM      8  N   UNL     1      36.235 -20.003 -20.862  0.00  0.00    -0.270 N 
ATOM      9  N   UNL     1      36.073 -21.595 -19.120  0.00  0.00    -0.229 NA
ATOM     10  C   UNL     1      33.461 -20.148 -21.427  0.00  0.00    +0.039 C 
ATOM     11  C   UNL     1      34.072 -20.911 -20.290  0.00  0.00    +0.010 C 
ATOM     12  C   UNL     1      34.231 -18.862 -21.689  0.00  0.00    +0.090 C 
ATOM     13  C   UNL     1      35.446 -20.851 -20.061  0.00  0.00    +0.130 C 
ATOM     14  C   UNL     1      33.313 -21.776 -19.501  0.00  0.00    +0.000 C 
ATOM     15  C   UNL     1      35.728 -19.079 -21.753  0.00  0.00    +0.227 C 
ATOM     16  C   UNL     1      33.930 -22.533 -18.513  0.00  0.00    +0.019 C 
ATOM     17  C   UNL     1      35.301 -22.410 -18.367  0.00  0.00    +0.100 C 
ATOM     18  H   UNL     1      37.214 -20.075 -20.780  0.00  0.00    +0.156 HD
ENDBRANCH   5  16
ENDBRANCH   3   6
BRANCH   2  19
ATOM     19  C   UNL     1      33.136 -23.549 -14.099  0.00  0.00    +0.122 C 
BRANCH  19  21
ATOM     20  N   UNL     1      35.836 -25.862 -14.928  0.00  0.00    -0.284 N 
ATOM     21  C   UNL     1      34.370 -24.375 -14.213  0.00  0.00    +0.014 C 
ATOM     22  C   UNL     1      35.500 -24.308 -13.364  0.00  0.00    +0.013 C 
ATOM     23  C   UNL     1      36.411 -25.255 -13.835  0.00  0.00    +0.051 C 
ATOM     24  C   UNL     1      34.595 -25.334 -15.164  0.00  0.00    +0.063 C 
ATOM     25  C   UNL     1      35.847 -23.536 -12.238  0.00  0.00    +0.001 C 
ATOM     26  C   UNL     1      37.657 -25.469 -13.234  0.00  0.00    +0.015 C 
ATOM     27  C   UNL     1      36.442 -26.909 -15.724  0.00  0.00    +0.117 C 
ATOM     28  C   UNL     1      37.088 -23.739 -11.626  0.00  0.00    +0.000 C 
ATOM     29  C   UNL     1      37.978 -24.691 -12.118  0.00  0.00    +0.001 C 
ENDBRANCH  19  21
ENDBRANCH   2  19
TORSDOF 4
ENDMDL
MODEL 4
REMARK VINA RESULT:     -11.1      1.531      2.087
REMARK  Name = 5288607
REMARK  4 active torsions:
REMARK  status: ('A' for Active; 'I' for Inactive)
REMARK    1  A    between atoms: N_2  and  C_19
REMARK    2  A    between atoms: C_3  and  C_6
REMARK    3  A    between atoms: C_5  and  C_16
REMARK    4  A    between atoms: C_19  and  C_21
REMARK                            x       y       z     vdW  Elec       q    Type
REMARK                         _______ _______ _______ _____ _____    ______ ____
ROOT
ATOM      1  O   UNL     1      34.197 -18.084 -25.348  0.00  0.00    -0.270 OA
ATOM      2  N   UNL     1      34.301 -16.086 -24.166  0.00  0.00    -0.270 N 
ATOM      3  C   UNL     1      34.355 -17.477 -24.289  0.00  0.00    +0.249 C 
ATOM      4  C   UNL     1      34.041 -15.274 -25.348  0.00  0.00    +0.116 C 
ENDROOT
BRANCH   3   6
ATOM      5  C   UNL     1      33.850 -19.331 -22.738  0.00  0.00    +0.006 C 
ATOM      6  C   UNL     1      34.595 -18.238 -23.026  0.00  0.00    +0.058 C 
BRANCH   5  16
ATOM      7  O   UNL     1      35.360 -23.457 -16.410  0.00  0.00    -0.275 OA
ATOM      8  N   UNL     1      34.168 -22.450 -18.094  0.00  0.00    -0.270 N 
ATOM      9  N   UNL     1      32.884 -21.364 -19.759  0.00  0.00    -0.229 NA
ATOM     10  C   UNL     1      36.616 -21.684 -19.301  0.00  0.00    +0.039 C 
ATOM     11  C   UNL     1      35.296 -21.228 -19.846  0.00  0.00    +0.010 C 
ATOM     12  C   UNL     1      36.536 -21.894 -17.797  0.00  0.00    +0.090 C 
ATOM     13  C   UNL     1      34.107 -21.654 -19.255  0.00  0.00    +0.130 C 
ATOM     14  C   UNL     1      35.212 -20.461 -21.009  0.00  0.00    +0.000 C 
ATOM     15  C   UNL     1      35.323 -22.701 -17.382  0.00  0.00    +0.227 C 
ATOM     16  C   UNL     1      33.968 -20.132 -21.532  0.00  0.00    +0.019 C 
ATOM     17  C   UNL     1      32.844 -20.607 -20.878  0.00  0.00    +0.100 C 
ATOM     18  H   UNL     1      33.330 -22.853 -17.771  0.00  0.00    +0.156 HD
ENDBRANCH   5  16
ENDBRANCH   3   6
BRANCH   2  19
ATOM     19  C   UNL     1      34.453 -15.346 -22.915  0.00  0.00    +0.122 C 
BRANCH  19  21
ATOM     20  N   UNL     1      33.497 -11.953 -23.867  0.00  0.00    -0.284 N 
ATOM     21  C   UNL     1      33.894 -13.974 -23.074  0.00  0.00    +0.014 C 
ATOM     22  C   UNL     1      32.947 -13.356 -22.222  0.00  0.00    +0.013 C 
ATOM     23  C   UNL     1      32.712 -12.082 -22.744  0.00  0.00    +0.051 C 
ATOM     24  C   UNL     1      34.218 -13.098 -24.074  0.00  0.00    +0.063 C 
ATOM     25  C   UNL     1      32.260 -13.749 -21.057  0.00  0.00    +0.001 C 
ATOM     26  C   UNL     1      31.820 -11.178 -22.156  0.00  0.00    +0.015 C 
ATOM     27  C   UNL     1      33.561 -10.783 -24.718  0.00  0.00    +0.117 C 
ATOM     28  C   UNL     1      31.366 -12.855 -20.457  0.00  0.00    +0.000 C 
ATOM     29  C   UNL     1      31.151 -11.590 -20.999  0.00  0.00    +0.001 C 
ENDBRANCH  19  21
ENDBRANCH   2  19
TORSDOF 4
ENDMDL
MODEL 5
REMARK VINA RESULT:     -10.6      2.487      4.440
REMARK  Name = 5288607
REMARK  4 active torsions:
REMARK  status: ('A' for Active; 'I' for Inactive)
REMARK    1  A    between atoms: N_2  and  C_19
REMARK    2  A    between atoms: C_3  and  C_6
REMARK    3  A    between atoms: C_5  and  C_16
REMARK    4  A    between atoms: C_19  and  C_21
REMARK                            x       y       z     vdW  Elec       q    Type
REMARK                         _______ _______ _______ _____ _____    ______ ____
ROOT
ATOM      1  O   UNL     1      32.739 -12.463 -27.586  0.00  0.00    -0.270 OA
ATOM      2  N   UNL     1      33.697 -10.822 -26.247  0.00  0.00    -0.270 N 
ATOM      3  C   UNL     1      33.448 -12.142 -26.631  0.00  0.00    +0.249 C 
ATOM      4  C   UNL     1      33.093  -9.732 -27.003  0.00  0.00    +0.116 C 
ENDROOT
BRANCH   3   6
ATOM      5  C   UNL     1      33.395 -13.740 -24.749  0.00  0.00    +0.006 C 
ATOM      6  C   UNL     1      34.078 -13.201 -25.787  0.00  0.00    +0.058 C 
BRANCH   5  16
ATOM      7  O   UNL     1      36.225 -19.619 -20.654  0.00  0.00    -0.275 OA
ATOM      8  N   UNL     1      35.345 -17.554 -21.138  0.00  0.00    -0.270 N 
ATOM      9  N   UNL     1      34.518 -15.384 -21.591  0.00  0.00    -0.229 NA
ATOM     10  C   UNL     1      35.048 -18.370 -23.837  0.00  0.00    +0.039 C 
ATOM     11  C   UNL     1      34.752 -16.965 -23.404  0.00  0.00    +0.010 C 
ATOM     12  C   UNL     1      36.131 -18.987 -22.965  0.00  0.00    +0.090 C 
ATOM     13  C   UNL     1      34.869 -16.604 -22.063  0.00  0.00    +0.130 C 
ATOM     14  C   UNL     1      34.256 -16.015 -24.298  0.00  0.00    +0.000 C 
ATOM     15  C   UNL     1      35.880 -18.779 -21.485  0.00  0.00    +0.227 C 
ATOM     16  C   UNL     1      33.909 -14.750 -23.841  0.00  0.00    +0.019 C 
ATOM     17  C   UNL     1      34.055 -14.488 -22.490  0.00  0.00    +0.100 C 
ATOM     18  H   UNL     1      35.292 -17.330 -20.181  0.00  0.00    +0.156 HD
ENDBRANCH   5  16
ENDBRANCH   3   6
BRANCH   2  19
ATOM     19  C   UNL     1      34.506 -10.418 -25.099  0.00  0.00    +0.122 C 
BRANCH  19  21
ATOM     20  N   UNL     1      32.199  -9.355 -22.477  0.00  0.00    -0.284 N 
ATOM     21  C   UNL     1      33.648  -9.721 -24.101  0.00  0.00    +0.014 C 
ATOM     22  C   UNL     1      33.560  -8.321 -23.910  0.00  0.00    +0.013 C 
ATOM     23  C   UNL     1      32.641  -8.115 -22.880  0.00  0.00    +0.051 C 
ATOM     24  C   UNL     1      32.806 -10.336 -23.215  0.00  0.00    +0.063 C 
ATOM     25  C   UNL     1      34.172  -7.201 -24.507  0.00  0.00    +0.001 C 
ATOM     26  C   UNL     1      32.301  -6.840 -22.414  0.00  0.00    +0.015 C 
ATOM     27  C   UNL     1      31.234  -9.603 -21.426  0.00  0.00    +0.117 C 
ATOM     28  C   UNL     1      33.841  -5.920 -24.053  0.00  0.00    +0.000 C 
ATOM     29  C   UNL     1      32.920  -5.744 -23.023  0.00  0.00    +0.001 C 
ENDBRANCH  19  21
ENDBRANCH   2  19
TORSDOF 4
ENDMDL
MODEL 6
REMARK VINA RESULT:     -10.3      6.041     11.825
REMARK  Name = 5288607
REMARK  4 active torsions:
REMARK  status: ('A' for Active; 'I' for Inactive)
REMARK    1  A    between atoms: N_2  and  C_19
REMARK    2  A    between atoms: C_3  and  C_6
REMARK    3  A    between atoms: C_5  and  C_16
REMARK    4  A    between atoms: C_19  and  C_21
REMARK                            x       y       z     vdW  Elec       q    Type
REMARK                         _______ _______ _______ _____ _____    ______ ____
ROOT
ATOM      1  O   UNL     1      30.673 -25.023 -16.426  0.00  0.00    -0.270 OA
ATOM      2  N   UNL     1      31.976 -24.181 -14.695  0.00  0.00    -0.270 N 
ATOM      3  C   UNL     1      31.441 -24.166 -15.986  0.00  0.00    +0.249 C 
ATOM      4  C   UNL     1      31.623 -25.266 -13.788  0.00  0.00    +0.116 C 
ENDROOT
BRANCH   3   6
ATOM      5  C   UNL     1      32.597 -23.286 -17.983  0.00  0.00    +0.006 C 
ATOM      6  C   UNL     1      31.876 -23.039 -16.863  0.00  0.00    +0.058 C 
BRANCH   5  16
ATOM      7  O   UNL     1      36.094 -18.212 -22.605  0.00  0.00    -0.275 OA
ATOM      8  N   UNL     1      34.414 -19.339 -21.519  0.00  0.00    -0.270 N 
ATOM      9  N   UNL     1      32.641 -20.521 -20.491  0.00  0.00    -0.229 NA
ATOM     10  C   UNL     1      36.382 -20.758 -20.053  0.00  0.00    +0.039 C 
ATOM     11  C   UNL     1      34.924 -21.086 -19.933  0.00  0.00    +0.010 C 
ATOM     12  C   UNL     1      36.701 -20.217 -21.439  0.00  0.00    +0.090 C 
ATOM     13  C   UNL     1      33.976 -20.344 -20.636  0.00  0.00    +0.130 C 
ATOM     14  C   UNL     1      34.466 -22.061 -19.044  0.00  0.00    +0.000 C 
ATOM     15  C   UNL     1      35.731 -19.142 -21.885  0.00  0.00    +0.227 C 
ATOM     16  C   UNL     1      33.102 -22.275 -18.895  0.00  0.00    +0.019 C 
ATOM     17  C   UNL     1      32.238 -21.483 -19.633  0.00  0.00    +0.100 C 
ATOM     18  H   UNL     1      33.736 -18.736 -21.901  0.00  0.00    +0.156 HD
ENDBRANCH   5  16
ENDBRANCH   3   6
BRANCH   2  19
ATOM     19  C   UNL     1      32.914 -23.196 -14.162  0.00  0.00    +0.122 C 
BRANCH  19  21
ATOM     20  N   UNL     1      35.960 -25.052 -13.385  0.00  0.00    -0.284 N 
ATOM     21  C   UNL     1      34.271 -23.801 -14.058  0.00  0.00    +0.014 C 
ATOM     22  C   UNL     1      35.392 -23.478 -14.859  0.00  0.00    +0.013 C 
ATOM     23  C   UNL     1      36.445 -24.280 -14.416  0.00  0.00    +0.051 C 
ATOM     24  C   UNL     1      34.640 -24.766 -13.161  0.00  0.00    +0.063 C 
ATOM     25  C   UNL     1      35.623 -22.582 -15.923  0.00  0.00    +0.001 C 
ATOM     26  C   UNL     1      37.723 -24.233 -14.985  0.00  0.00    +0.015 C 
ATOM     27  C   UNL     1      36.722 -26.030 -12.636  0.00  0.00    +0.117 C 
ATOM     28  C   UNL     1      36.895 -22.523 -16.501  0.00  0.00    +0.000 C 
ATOM     29  C   UNL     1      37.927 -23.336 -16.039  0.00  0.00    +0.001 C 
ENDBRANCH  19  21
ENDBRANCH   2  19
TORSDOF 4
ENDMDL
MODEL 7
REMARK VINA RESULT:     -10.3      2.276      3.647
REMARK  Name = 5288607
REMARK  4 active torsions:
REMARK  status: ('A' for Active; 'I' for Inactive)
REMARK    1  A    between atoms: N_2  and  C_19
REMARK    2  A    between atoms: C_3  and  C_6
REMARK    3  A    between atoms: C_5  and  C_16
REMARK    4  A    between atoms: C_19  and  C_21
REMARK                            x       y       z     vdW  Elec       q    Type
REMARK                         _______ _______ _______ _____ _____    ______ ____
ROOT
ATOM      1  O   UNL     1      33.050 -12.420 -27.545  0.00  0.00    -0.270 OA
ATOM      2  N   UNL     1      33.599 -10.764 -26.010  0.00  0.00    -0.270 N 
ATOM      3  C   UNL     1      33.575 -12.078 -26.485  0.00  0.00    +0.249 C 
ATOM      4  C   UNL     1      32.971  -9.708 -26.795  0.00  0.00    +0.116 C 
ENDROOT
BRANCH   3   6
ATOM      5  C   UNL     1      33.446 -13.927 -24.853  0.00  0.00    +0.006 C 
ATOM      6  C   UNL     1      34.212 -13.104 -25.607  0.00  0.00    +0.058 C 
BRANCH   5  16
ATOM      7  O   UNL     1      36.111 -19.856 -20.721  0.00  0.00    -0.275 OA
ATOM      8  N   UNL     1      35.363 -17.746 -21.231  0.00  0.00    -0.270 N 
ATOM      9  N   UNL     1      34.678 -15.535 -21.717  0.00  0.00    -0.229 NA
ATOM     10  C   UNL     1      34.792 -18.639 -23.860  0.00  0.00    +0.039 C 
ATOM     11  C   UNL     1      34.643 -17.199 -23.470  0.00  0.00    +0.010 C 
ATOM     12  C   UNL     1      35.886 -19.309 -23.044  0.00  0.00    +0.090 C 
ATOM     13  C   UNL     1      34.893 -16.797 -22.159  0.00  0.00    +0.130 C 
ATOM     14  C   UNL     1      34.155 -16.247 -24.366  0.00  0.00    +0.000 C 
ATOM     15  C   UNL     1      35.770 -19.023 -21.561  0.00  0.00    +0.227 C 
ATOM     16  C   UNL     1      33.947 -14.940 -23.942  0.00  0.00    +0.019 C 
ATOM     17  C   UNL     1      34.219 -14.639 -22.619  0.00  0.00    +0.100 C 
ATOM     18  H   UNL     1      35.403 -17.481 -20.284  0.00  0.00    +0.156 HD
ENDBRANCH   5  16
ENDBRANCH   3   6
BRANCH   2  19
ATOM     19  C   UNL     1      34.186 -10.339 -24.741  0.00  0.00    +0.122 C 
BRANCH  19  21
ATOM     20  N   UNL     1      31.712  -8.380 -22.905  0.00  0.00    -0.284 N 
ATOM     21  C   UNL     1      33.122  -9.786 -23.857  0.00  0.00    +0.014 C 
ATOM     22  C   UNL     1      32.390 -10.505 -22.882  0.00  0.00    +0.013 C 
ATOM     23  C   UNL     1      31.507  -9.597 -22.295  0.00  0.00    +0.051 C 
ATOM     24  C   UNL     1      32.692  -8.487 -23.854  0.00  0.00    +0.063 C 
ATOM     25  C   UNL     1      32.385 -11.842 -22.436  0.00  0.00    +0.001 C 
ATOM     26  C   UNL     1      30.615  -9.960 -21.280  0.00  0.00    +0.015 C 
ATOM     27  C   UNL     1      31.002  -7.156 -22.597  0.00  0.00    +0.117 C 
ATOM     28  C   UNL     1      31.500 -12.219 -21.421  0.00  0.00    +0.000 C 
ATOM     29  C   UNL     1      30.629 -11.292 -20.853  0.00  0.00    +0.001 C 
ENDBRANCH  19  21
ENDBRANCH   2  19
TORSDOF 4
ENDMDL
MODEL 8
REMARK VINA RESULT:     -10.1      6.068     12.317
REMARK  Name = 5288607
REMARK  4 active torsions:
REMARK  status: ('A' for Active; 'I' for Inactive)
REMARK    1  A    between atoms: N_2  and  C_19
REMARK    2  A    between atoms: C_3  and  C_6
REMARK    3  A    between atoms: C_5  and  C_16
REMARK    4  A    between atoms: C_19  and  C_21
REMARK                            x       y       z     vdW  Elec       q    Type
REMARK                         _______ _______ _______ _____ _____    ______ ____
ROOT
ATOM      1  O   UNL     1      32.734  -7.693 -19.852  0.00  0.00    -0.270 OA
ATOM      2  N   UNL     1      31.745  -9.446 -21.015  0.00  0.00    -0.270 N 
ATOM      3  C   UNL     1      32.256  -8.151 -20.890  0.00  0.00    +0.249 C 
ATOM      4  C   UNL     1      31.763 -10.335 -19.861  0.00  0.00    +0.116 C 
ENDROOT
BRANCH   3   6
ATOM      5  C   UNL     1      33.252  -6.586 -22.521  0.00  0.00    +0.006 C 
ATOM      6  C   UNL     1      32.173  -7.293 -22.110  0.00  0.00    +0.058 C 
BRANCH   5  16
ATOM      7  O   UNL     1      34.150  -2.326 -28.875  0.00  0.00    -0.275 OA
ATOM      8  N   UNL     1      33.276  -3.081 -26.891  0.00  0.00    -0.270 N 
ATOM      9  N   UNL     1      32.286  -3.870 -24.893  0.00  0.00    -0.229 NA
ATOM     10  C   UNL     1      35.441  -4.900 -26.688  0.00  0.00    +0.039 C 
ATOM     11  C   UNL     1      34.310  -4.912 -25.704  0.00  0.00    +0.010 C 
ATOM     12  C   UNL     1      34.965  -4.425 -28.052  0.00  0.00    +0.090 C 
ATOM     13  C   UNL     1      33.279  -3.979 -25.806  0.00  0.00    +0.130 C 
ATOM     14  C   UNL     1      34.306  -5.776 -24.608  0.00  0.00    +0.000 C 
ATOM     15  C   UNL     1      34.128  -3.165 -27.974  0.00  0.00    +0.227 C 
ATOM     16  C   UNL     1      33.285  -5.697 -23.669  0.00  0.00    +0.019 C 
ATOM     17  C   UNL     1      32.309  -4.733 -23.853  0.00  0.00    +0.100 C 
ATOM     18  H   UNL     1      32.623  -2.344 -26.875  0.00  0.00    +0.156 HD
ENDBRANCH   5  16
ENDBRANCH   3   6
BRANCH   2  19
ATOM     19  C   UNL     1      31.144  -9.999 -22.226  0.00  0.00    +0.122 C 
BRANCH  19  21
ATOM     20  N   UNL     1      33.445 -12.512 -23.538  0.00  0.00    -0.284 N 
ATOM     21  C   UNL     1      32.149 -10.824 -22.954  0.00  0.00    +0.014 C 
ATOM     22  C   UNL     1      32.907 -10.416 -24.077  0.00  0.00    +0.013 C 
ATOM     23  C   UNL     1      33.717 -11.497 -24.428  0.00  0.00    +0.051 C 
ATOM     24  C   UNL     1      32.494 -12.110 -22.639  0.00  0.00    +0.063 C 
ATOM     25  C   UNL     1      32.988  -9.233 -24.839  0.00  0.00    +0.001 C 
ATOM     26  C   UNL     1      34.608 -11.456 -25.506  0.00  0.00    +0.015 C 
ATOM     27  C   UNL     1      34.067 -13.820 -23.539  0.00  0.00    +0.117 C 
ATOM     28  C   UNL     1      33.875  -9.176 -25.919  0.00  0.00    +0.000 C 
ATOM     29  C   UNL     1      34.672 -10.271 -26.246  0.00  0.00    +0.001 C 
ENDBRANCH  19  21
ENDBRANCH   2  19
TORSDOF 4
ENDMDL
MODEL 9
REMARK VINA RESULT:     -10.0      1.727      2.560
REMARK  Name = 5288607
REMARK  4 active torsions:
REMARK  status: ('A' for Active; 'I' for Inactive)
REMARK    1  A    between atoms: N_2  and  C_19
REMARK    2  A    between atoms: C_3  and  C_6
REMARK    3  A    between atoms: C_5  and  C_16
REMARK    4  A    between atoms: C_19  and  C_21
REMARK                            x       y       z     vdW  Elec       q    Type
REMARK                         _______ _______ _______ _____ _____    ______ ____
ROOT
ATOM      1  O   UNL     1      35.501 -18.590 -24.299  0.00  0.00    -0.270 OA
ATOM      2  N   UNL     1      34.848 -16.587 -23.319  0.00  0.00    -0.270 N 
ATOM      3  C   UNL     1      35.207 -17.937 -23.298  0.00  0.00    +0.249 C 
ATOM      4  C   UNL     1      34.809 -15.878 -24.591  0.00  0.00    +0.116 C 
ENDROOT
BRANCH   3   6
ATOM      5  C   UNL     1      35.155 -19.949 -21.866  0.00  0.00    +0.006 C 
ATOM      6  C   UNL     1      35.193 -18.599 -21.959  0.00  0.00    +0.058 C 
BRANCH   5  16
ATOM      7  O   UNL     1      34.028 -24.073 -15.459  0.00  0.00    -0.275 OA
ATOM      8  N   UNL     1      35.102 -22.826 -17.060  0.00  0.00    -0.270 N 
ATOM      9  N   UNL     1      36.276 -21.618 -18.721  0.00  0.00    -0.229 NA
ATOM     10  C   UNL     1      32.607 -22.414 -18.341  0.00  0.00    +0.039 C 
ATOM     11  C   UNL     1      33.891 -21.935 -18.949  0.00  0.00    +0.010 C 
ATOM     12  C   UNL     1      32.840 -23.660 -17.499  0.00  0.00    +0.090 C 
ATOM     13  C   UNL     1      35.098 -22.117 -18.276  0.00  0.00    +0.130 C 
ATOM     14  C   UNL     1      33.907 -21.208 -20.140  0.00  0.00    +0.000 C 
ATOM     15  C   UNL     1      34.019 -23.519 -16.558  0.00  0.00    +0.227 C 
ATOM     16  C   UNL     1      35.107 -20.705 -20.627  0.00  0.00    +0.019 C 
ATOM     17  C   UNL     1      36.253 -20.932 -19.885  0.00  0.00    +0.100 C 
ATOM     18  H   UNL     1      35.934 -22.828 -16.532  0.00  0.00    +0.156 HD
ENDBRANCH   5  16
ENDBRANCH   3   6
BRANCH   2  19
ATOM     19  C   UNL     1      34.463 -15.801 -22.149  0.00  0.00    +0.122 C 
BRANCH  19  21
ATOM     20  N   UNL     1      33.761 -12.585 -23.727  0.00  0.00    -0.284 N 
ATOM     21  C   UNL     1      33.986 -14.457 -22.582  0.00  0.00    +0.014 C 
ATOM     22  C   UNL     1      32.995 -13.678 -21.940  0.00  0.00    +0.013 C 
ATOM     23  C   UNL     1      32.870 -12.501 -22.681  0.00  0.00    +0.051 C 
ATOM     24  C   UNL     1      34.444 -13.770 -23.672  0.00  0.00    +0.063 C 
ATOM     25  C   UNL     1      32.183 -13.851 -20.801  0.00  0.00    +0.001 C 
ATOM     26  C   UNL     1      31.971 -11.485 -22.339  0.00  0.00    +0.015 C 
ATOM     27  C   UNL     1      33.959 -11.574 -24.744  0.00  0.00    +0.117 C 
ATOM     28  C   UNL     1      31.281 -12.843 -20.446  0.00  0.00    +0.000 C 
ATOM     29  C   UNL     1      31.177 -11.679 -21.204  0.00  0.00    +0.001 C 
ENDBRANCH  19  21
ENDBRANCH   2  19
TORSDOF 4
ENDMDL
