MODEL 1
REMARK VINA RESULT:     -11.4      0.000      0.000
REMARK  Name = 5288527
REMARK  4 active torsions:
REMARK  status: ('A' for Active; 'I' for Inactive)
REMARK    1  A    between atoms: N_1  and  C_18
REMARK    2  A    between atoms: C_4  and  C_11
REMARK    3  A    between atoms: C_19  and  S_24
REMARK    4  A    between atoms: S_24  and  N_27
REMARK                            x       y       z     vdW  Elec       q    Type
REMARK                         _______ _______ _______ _____ _____    ______ ____
ROOT
ATOM      1  N   UNL     1      32.430 -24.754 -13.321  0.00  0.00    -0.247 N 
ATOM      2  N   UNL     1      34.238 -23.882 -14.536  0.00  0.00    -0.336 NA
ATOM      3  N   UNL     1      34.587 -25.002 -12.431  0.00  0.00    -0.170 NA
ATOM      4  C   UNL     1      35.570 -23.694 -14.609  0.00  0.00    +0.161 C 
ATOM      5  C   UNL     1      33.820 -24.535 -13.435  0.00  0.00    +0.149 C 
ATOM      6  C   UNL     1      36.464 -24.120 -13.652  0.00  0.00    +0.056 C 
ATOM      7  C   UNL     1      35.909 -24.777 -12.572  0.00  0.00    +0.114 C 
ATOM      8  H   UNL     1      32.170 -25.234 -12.501  0.00  0.00    +0.165 HD
ENDROOT
BRANCH   4  11
ATOM      9  N   UNL     1      35.265 -22.815 -16.926  0.00  0.00    -0.246 N 
ATOM     10  N   UNL     1      37.234 -21.819 -17.301  0.00  0.00    -0.227 NA
ATOM     11  C   UNL     1      36.013 -22.993 -15.790  0.00  0.00    +0.107 C 
ATOM     12  C   UNL     1      36.054 -22.093 -17.819  0.00  0.00    +0.139 C 
ATOM     13  C   UNL     1      37.214 -22.373 -16.046  0.00  0.00    +0.118 C 
ATOM     14  C   UNL     1      33.971 -23.239 -17.211  0.00  0.00    +0.071 C 
ATOM     15  C   UNL     1      35.479 -21.785 -19.087  0.00  0.00    +0.035 C 
ATOM     16  C   UNL     1      33.436 -22.945 -18.407  0.00  0.00    +0.017 C 
ATOM     17  C   UNL     1      34.227 -22.193 -19.369  0.00  0.00    +0.004 C 
ENDBRANCH   4  11
BRANCH   1  18
ATOM     18  C   UNL     1      31.342 -24.421 -14.150  0.00  0.00    +0.058 C 
ATOM     19  C   UNL     1      29.184 -23.758 -15.794  0.00  0.00    +0.122 C 
ATOM     20  C   UNL     1      30.435 -25.406 -14.545  0.00  0.00    +0.017 C 
ATOM     21  C   UNL     1      31.166 -23.103 -14.579  0.00  0.00    +0.017 C 
ATOM     22  C   UNL     1      29.357 -25.075 -15.366  0.00  0.00    +0.021 C 
ATOM     23  C   UNL     1      30.089 -22.772 -15.400  0.00  0.00    +0.021 C 
BRANCH  19  24
ATOM     24  S   UNL     1      27.836 -23.344 -16.822  0.00  0.00    +0.057 S 
ATOM     25  O   UNL     1      28.179 -22.140 -17.566  0.00  0.00    -0.153 OA
ATOM     26  O   UNL     1      27.414 -24.540 -17.537  0.00  0.00    -0.153 OA
BRANCH  24  27
ATOM     27  N   UNL     1      26.646 -22.952 -15.659  0.00  0.00    -0.203 NA
ATOM     28  H   UNL     1      25.970 -22.309 -16.068  0.00  0.00    +0.144 HD
ATOM     29  H   UNL     1      27.091 -22.512 -14.853  0.00  0.00    +0.144 HD
ENDBRANCH  24  27
ENDBRANCH  19  24
ENDBRANCH   1  18
TORSDOF 4
ENDMDL
MODEL 2
REMARK VINA RESULT:     -11.3      4.903      6.961
REMARK  Name = 5288527
REMARK  4 active torsions:
REMARK  status: ('A' for Active; 'I' for Inactive)
REMARK    1  A    between atoms: N_1  and  C_18
REMARK    2  A    between atoms: C_4  and  C_11
REMARK    3  A    between atoms: C_19  and  S_24
REMARK    4  A    between atoms: S_24  and  N_27
REMARK                            x       y       z     vdW  Elec       q    Type
REMARK                         _______ _______ _______ _____ _____    ______ ____
ROOT
ATOM      1  N   UNL     1      34.589 -25.092 -13.171  0.00  0.00    -0.247 N 
ATOM      2  N   UNL     1      33.743 -24.078 -15.110  0.00  0.00    -0.336 NA
ATOM      3  N   UNL     1      32.302 -24.574 -13.245  0.00  0.00    -0.170 NA
ATOM      4  C   UNL     1      32.670 -23.573 -15.752  0.00  0.00    +0.161 C 
ATOM      5  C   UNL     1      33.490 -24.555 -13.877  0.00  0.00    +0.149 C 
ATOM      6  C   UNL     1      31.401 -23.532 -15.219  0.00  0.00    +0.056 C 
ATOM      7  C   UNL     1      31.275 -24.052 -13.947  0.00  0.00    +0.114 C 
ATOM      8  H   UNL     1      34.358 -25.429 -12.275  0.00  0.00    +0.165 HD
ENDROOT
BRANCH   4  11
ATOM      9  N   UNL     1      34.179 -22.662 -17.521  0.00  0.00    -0.246 N 
ATOM     10  N   UNL     1      32.760 -22.364 -19.224  0.00  0.00    -0.227 NA
ATOM     11  C   UNL     1      32.946 -23.064 -17.074  0.00  0.00    +0.107 C 
ATOM     12  C   UNL     1      34.013 -22.243 -18.839  0.00  0.00    +0.139 C 
ATOM     13  C   UNL     1      32.095 -22.871 -18.136  0.00  0.00    +0.118 C 
ATOM     14  C   UNL     1      35.401 -22.645 -16.854  0.00  0.00    +0.071 C 
ATOM     15  C   UNL     1      35.176 -21.776 -19.520  0.00  0.00    +0.035 C 
ATOM     16  C   UNL     1      36.491 -22.203 -17.502  0.00  0.00    +0.017 C 
ATOM     17  C   UNL     1      36.361 -21.756 -18.881  0.00  0.00    +0.004 C 
ENDBRANCH   4  11
BRANCH   1  18
ATOM     18  C   UNL     1      35.950 -25.241 -13.497  0.00  0.00    +0.058 C 
ATOM     19  C   UNL     1      38.650 -25.537 -14.145  0.00  0.00    +0.122 C 
ATOM     20  C   UNL     1      36.927 -24.599 -12.734  0.00  0.00    +0.017 C 
ATOM     21  C   UNL     1      36.327 -26.032 -14.585  0.00  0.00    +0.017 C 
ATOM     22  C   UNL     1      38.276 -24.746 -13.058  0.00  0.00    +0.021 C 
ATOM     23  C   UNL     1      37.675 -26.179 -14.908  0.00  0.00    +0.021 C 
BRANCH  19  24
ATOM     24  S   UNL     1      40.338 -25.721 -14.551  0.00  0.00    +0.057 S 
ATOM     25  O   UNL     1      40.985 -24.422 -14.425  0.00  0.00    -0.153 OA
ATOM     26  O   UNL     1      40.867 -26.866 -13.823  0.00  0.00    -0.153 OA
BRANCH  24  27
ATOM     27  N   UNL     1      40.233 -26.127 -16.208  0.00  0.00    -0.203 NA
ATOM     28  H   UNL     1      39.721 -27.002 -16.311  0.00  0.00    +0.144 HD
ATOM     29  H   UNL     1      41.172 -26.233 -16.592  0.00  0.00    +0.144 HD
ENDBRANCH  24  27
ENDBRANCH  19  24
ENDBRANCH   1  18
TORSDOF 4
ENDMDL
MODEL 3
REMARK VINA RESULT:     -10.8      4.278      6.693
REMARK  Name = 5288527
REMARK  4 active torsions:
REMARK  status: ('A' for Active; 'I' for Inactive)
REMARK    1  A    between atoms: N_1  and  C_18
REMARK    2  A    between atoms: C_4  and  C_11
REMARK    3  A    between atoms: C_19  and  S_24
REMARK    4  A    between atoms: S_24  and  N_27
REMARK                            x       y       z     vdW  Elec       q    Type
REMARK                         _______ _______ _______ _____ _____    ______ ____
ROOT
ATOM      1  N   UNL     1      32.333 -22.321 -18.726  0.00  0.00    -0.247 N 
ATOM      2  N   UNL     1      33.855 -22.973 -17.064  0.00  0.00    -0.336 NA
ATOM      3  N   UNL     1      31.555 -23.689 -16.987  0.00  0.00    -0.170 NA
ATOM      4  C   UNL     1      34.064 -23.663 -15.925  0.00  0.00    +0.161 C 
ATOM      5  C   UNL     1      32.594 -23.029 -17.533  0.00  0.00    +0.149 C 
ATOM      6  C   UNL     1      33.090 -24.379 -15.265  0.00  0.00    +0.056 C 
ATOM      7  C   UNL     1      31.840 -24.356 -15.849  0.00  0.00    +0.114 C 
ATOM      8  H   UNL     1      31.399 -22.389 -19.032  0.00  0.00    +0.165 HD
ENDROOT
BRANCH   4  11
ATOM      9  N   UNL     1      36.217 -24.687 -15.180  0.00  0.00    -0.246 N 
ATOM     10  N   UNL     1      37.426 -22.879 -14.656  0.00  0.00    -0.227 NA
ATOM     11  C   UNL     1      35.417 -23.599 -15.425  0.00  0.00    +0.107 C 
ATOM     12  C   UNL     1      37.433 -24.195 -14.712  0.00  0.00    +0.139 C 
ATOM     13  C   UNL     1      36.182 -22.505 -15.097  0.00  0.00    +0.118 C 
ATOM     14  C   UNL     1      35.944 -26.042 -15.341  0.00  0.00    +0.071 C 
ATOM     15  C   UNL     1      38.436 -25.154 -14.387  0.00  0.00    +0.035 C 
ATOM     16  C   UNL     1      36.894 -26.939 -15.032  0.00  0.00    +0.017 C 
ATOM     17  C   UNL     1      38.179 -26.468 -14.539  0.00  0.00    +0.004 C 
ENDBRANCH   4  11
BRANCH   1  18
ATOM     18  C   UNL     1      33.146 -21.535 -19.565  0.00  0.00    +0.058 C 
ATOM     19  C   UNL     1      34.758 -19.976 -21.229  0.00  0.00    +0.122 C 
ATOM     20  C   UNL     1      34.533 -21.700 -19.551  0.00  0.00    +0.017 C 
ATOM     21  C   UNL     1      32.568 -20.588 -20.413  0.00  0.00    +0.017 C 
ATOM     22  C   UNL     1      35.337 -20.921 -20.382  0.00  0.00    +0.021 C 
ATOM     23  C   UNL     1      33.373 -19.810 -21.244  0.00  0.00    +0.021 C 
BRANCH  19  24
ATOM     24  S   UNL     1      35.765 -19.000 -22.269  0.00  0.00    +0.057 S 
ATOM     25  O   UNL     1      37.142 -19.108 -21.807  0.00  0.00    -0.153 OA
ATOM     26  O   UNL     1      35.440 -19.312 -23.654  0.00  0.00    -0.153 OA
BRANCH  24  27
ATOM     27  N   UNL     1      35.184 -17.433 -21.909  0.00  0.00    -0.203 NA
ATOM     28  H   UNL     1      34.272 -17.301 -22.345  0.00  0.00    +0.144 HD
ATOM     29  H   UNL     1      35.838 -16.738 -22.269  0.00  0.00    +0.144 HD
ENDBRANCH  24  27
ENDBRANCH  19  24
ENDBRANCH   1  18
TORSDOF 4
ENDMDL
MODEL 4
REMARK VINA RESULT:     -10.3      4.076      6.831
REMARK  Name = 5288527
REMARK  4 active torsions:
REMARK  status: ('A' for Active; 'I' for Inactive)
REMARK    1  A    between atoms: N_1  and  C_18
REMARK    2  A    between atoms: C_4  and  C_11
REMARK    3  A    between atoms: C_19  and  S_24
REMARK    4  A    between atoms: S_24  and  N_27
REMARK                            x       y       z     vdW  Elec       q    Type
REMARK                         _______ _______ _______ _____ _____    ______ ____
ROOT
ATOM      1  N   UNL     1      32.339 -22.435 -18.673  0.00  0.00    -0.247 N 
ATOM      2  N   UNL     1      33.795 -22.932 -16.902  0.00  0.00    -0.336 NA
ATOM      3  N   UNL     1      31.554 -23.816 -16.946  0.00  0.00    -0.170 NA
ATOM      4  C   UNL     1      33.982 -23.577 -15.733  0.00  0.00    +0.161 C 
ATOM      5  C   UNL     1      32.575 -23.093 -17.446  0.00  0.00    +0.149 C 
ATOM      6  C   UNL     1      33.022 -24.348 -15.115  0.00  0.00    +0.056 C 
ATOM      7  C   UNL     1      31.813 -24.432 -15.775  0.00  0.00    +0.114 C 
ATOM      8  H   UNL     1      31.434 -22.580 -19.034  0.00  0.00    +0.165 HD
ENDROOT
BRANCH   4  11
ATOM      9  N   UNL     1      35.603 -23.612 -13.834  0.00  0.00    -0.246 N 
ATOM     10  N   UNL     1      37.495 -22.964 -14.835  0.00  0.00    -0.227 NA
ATOM     11  C   UNL     1      35.292 -23.401 -15.153  0.00  0.00    +0.107 C 
ATOM     12  C   UNL     1      36.959 -23.332 -13.690  0.00  0.00    +0.139 C 
ATOM     13  C   UNL     1      36.469 -23.006 -15.744  0.00  0.00    +0.118 C 
ATOM     14  C   UNL     1      34.785 -24.024 -12.785  0.00  0.00    +0.071 C 
ATOM     15  C   UNL     1      37.516 -23.484 -12.386  0.00  0.00    +0.035 C 
ATOM     16  C   UNL     1      35.316 -24.164 -11.560  0.00  0.00    +0.017 C 
ATOM     17  C   UNL     1      36.730 -23.881 -11.366  0.00  0.00    +0.004 C 
ENDBRANCH   4  11
BRANCH   1  18
ATOM     18  C   UNL     1      33.144 -21.611 -19.482  0.00  0.00    +0.058 C 
ATOM     19  C   UNL     1      34.743 -19.977 -21.086  0.00  0.00    +0.122 C 
ATOM     20  C   UNL     1      32.558 -20.641 -20.297  0.00  0.00    +0.017 C 
ATOM     21  C   UNL     1      34.533 -21.761 -19.471  0.00  0.00    +0.017 C 
ATOM     22  C   UNL     1      33.356 -19.825 -21.098  0.00  0.00    +0.021 C 
ATOM     23  C   UNL     1      35.331 -20.946 -20.272  0.00  0.00    +0.021 C 
BRANCH  19  24
ATOM     24  S   UNL     1      35.743 -18.957 -22.089  0.00  0.00    +0.057 S 
ATOM     25  O   UNL     1      35.757 -19.510 -23.436  0.00  0.00    -0.153 OA
ATOM     26  O   UNL     1      35.347 -17.572 -21.881  0.00  0.00    -0.153 OA
BRANCH  24  27
ATOM     27  N   UNL     1      37.277 -19.202 -21.377  0.00  0.00    -0.203 NA
ATOM     28  H   UNL     1      37.712 -20.029 -21.783  0.00  0.00    +0.144 HD
ATOM     29  H   UNL     1      37.168 -19.333 -20.371  0.00  0.00    +0.144 HD
ENDBRANCH  24  27
ENDBRANCH  19  24
ENDBRANCH   1  18
TORSDOF 4
ENDMDL
MODEL 5
REMARK VINA RESULT:      -9.4      5.094      7.110
REMARK  Name = 5288527
REMARK  4 active torsions:
REMARK  status: ('A' for Active; 'I' for Inactive)
REMARK    1  A    between atoms: N_1  and  C_18
REMARK    2  A    between atoms: C_4  and  C_11
REMARK    3  A    between atoms: C_19  and  S_24
REMARK    4  A    between atoms: S_24  and  N_27
REMARK                            x       y       z     vdW  Elec       q    Type
REMARK                         _______ _______ _______ _____ _____    ______ ____
ROOT
ATOM      1  N   UNL     1      34.319 -24.766 -15.126  0.00  0.00    -0.247 N 
ATOM      2  N   UNL     1      34.342 -23.378 -17.017  0.00  0.00    -0.336 NA
ATOM      3  N   UNL     1      32.267 -23.982 -15.951  0.00  0.00    -0.170 NA
ATOM      4  C   UNL     1      33.628 -22.661 -17.907  0.00  0.00    +0.161 C 
ATOM      5  C   UNL     1      33.608 -24.004 -16.079  0.00  0.00    +0.149 C 
ATOM      6  C   UNL     1      32.255 -22.554 -17.889  0.00  0.00    +0.056 C 
ATOM      7  C   UNL     1      31.620 -23.244 -16.877  0.00  0.00    +0.114 C 
ATOM      8  H   UNL     1      33.742 -25.206 -14.460  0.00  0.00    +0.165 HD
ENDROOT
BRANCH   4  11
ATOM      9  N   UNL     1      33.914 -21.210 -19.920  0.00  0.00    -0.246 N 
ATOM     10  N   UNL     1      36.137 -21.212 -20.173  0.00  0.00    -0.227 NA
ATOM     11  C   UNL     1      34.419 -21.991 -18.912  0.00  0.00    +0.107 C 
ATOM     12  C   UNL     1      35.002 -20.757 -20.663  0.00  0.00    +0.139 C 
ATOM     13  C   UNL     1      35.783 -21.976 -19.090  0.00  0.00    +0.118 C 
ATOM     14  C   UNL     1      32.592 -20.884 -20.211  0.00  0.00    +0.071 C 
ATOM     15  C   UNL     1      34.717 -19.916 -21.778  0.00  0.00    +0.035 C 
ATOM     16  C   UNL     1      32.333 -20.092 -21.263  0.00  0.00    +0.017 C 
ATOM     17  C   UNL     1      33.441 -19.597 -22.066  0.00  0.00    +0.004 C 
ENDBRANCH   4  11
BRANCH   1  18
ATOM     18  C   UNL     1      35.691 -25.020 -14.941  0.00  0.00    +0.058 C 
ATOM     19  C   UNL     1      38.413 -25.524 -14.575  0.00  0.00    +0.122 C 
ATOM     20  C   UNL     1      36.526 -24.022 -14.435  0.00  0.00    +0.017 C 
ATOM     21  C   UNL     1      36.221 -26.271 -15.263  0.00  0.00    +0.017 C 
ATOM     22  C   UNL     1      37.885 -24.273 -14.253  0.00  0.00    +0.021 C 
ATOM     23  C   UNL     1      37.580 -26.523 -15.081  0.00  0.00    +0.021 C 
BRANCH  19  24
ATOM     24  S   UNL     1      40.115 -25.840 -14.347  0.00  0.00    +0.057 S 
ATOM     25  O   UNL     1      40.775 -24.583 -14.022  0.00  0.00    -0.153 OA
ATOM     26  O   UNL     1      40.259 -26.984 -13.459  0.00  0.00    -0.153 OA
BRANCH  24  27
ATOM     27  N   UNL     1      40.573 -26.311 -15.925  0.00  0.00    -0.203 NA
ATOM     28  H   UNL     1      40.915 -27.271 -15.907  0.00  0.00    +0.144 HD
ATOM     29  H   UNL     1      41.311 -25.693 -16.264  0.00  0.00    +0.144 HD
ENDBRANCH  24  27
ENDBRANCH  19  24
ENDBRANCH   1  18
TORSDOF 4
ENDMDL
MODEL 6
REMARK VINA RESULT:      -9.3     14.124     16.360
REMARK  Name = 5288527
REMARK  4 active torsions:
REMARK  status: ('A' for Active; 'I' for Inactive)
REMARK    1  A    between atoms: N_1  and  C_18
REMARK    2  A    between atoms: C_4  and  C_11
REMARK    3  A    between atoms: C_19  and  S_24
REMARK    4  A    between atoms: S_24  and  N_27
REMARK                            x       y       z     vdW  Elec       q    Type
REMARK                         _______ _______ _______ _____ _____    ______ ____
ROOT
ATOM      1  N   UNL     1      31.647  -9.771 -21.207  0.00  0.00    -0.247 N 
ATOM      2  N   UNL     1      32.323 -11.480 -22.665  0.00  0.00    -0.336 NA
ATOM      3  N   UNL     1      31.757 -11.962 -20.373  0.00  0.00    -0.170 NA
ATOM      4  C   UNL     1      32.576 -12.793 -22.835  0.00  0.00    +0.161 C 
ATOM      5  C   UNL     1      31.923 -11.138 -21.426  0.00  0.00    +0.149 C 
ATOM      6  C   UNL     1      32.447 -13.739 -21.843  0.00  0.00    +0.056 C 
ATOM      7  C   UNL     1      32.029 -13.260 -20.618  0.00  0.00    +0.114 C 
ATOM      8  H   UNL     1      31.358  -9.568 -20.288  0.00  0.00    +0.165 HD
ENDROOT
BRANCH   4  11
ATOM      9  N   UNL     1      33.553 -12.288 -25.078  0.00  0.00    -0.246 N 
ATOM     10  N   UNL     1      33.481 -14.292 -26.070  0.00  0.00    -0.227 NA
ATOM     11  C   UNL     1      33.006 -13.154 -24.165  0.00  0.00    +0.107 C 
ATOM     12  C   UNL     1      33.826 -13.030 -26.224  0.00  0.00    +0.139 C 
ATOM     13  C   UNL     1      32.974 -14.374 -24.798  0.00  0.00    +0.118 C 
ATOM     14  C   UNL     1      33.816 -10.926 -24.960  0.00  0.00    +0.071 C 
ATOM     15  C   UNL     1      34.407 -12.332 -27.323  0.00  0.00    +0.035 C 
ATOM     16  C   UNL     1      34.363 -10.276 -25.999  0.00  0.00    +0.017 C 
ATOM     17  C   UNL     1      34.663 -11.014 -27.216  0.00  0.00    +0.004 C 
ENDBRANCH   4  11
BRANCH   1  18
ATOM     18  C   UNL     1      31.703  -8.642 -22.045  0.00  0.00    +0.058 C 
ATOM     19  C   UNL     1      31.813  -6.401 -23.708  0.00  0.00    +0.122 C 
ATOM     20  C   UNL     1      32.680  -7.665 -21.840  0.00  0.00    +0.017 C 
ATOM     21  C   UNL     1      30.782  -8.495 -23.084  0.00  0.00    +0.017 C 
ATOM     22  C   UNL     1      32.735  -6.546 -22.670  0.00  0.00    +0.021 C 
ATOM     23  C   UNL     1      30.837  -7.376 -23.915  0.00  0.00    +0.021 C 
BRANCH  19  24
ATOM     24  S   UNL     1      31.881  -5.000 -24.748  0.00  0.00    +0.057 S 
ATOM     25  O   UNL     1      32.965  -4.141 -24.290  0.00  0.00    -0.153 OA
ATOM     26  O   UNL     1      31.850  -5.449 -26.132  0.00  0.00    -0.153 OA
BRANCH  24  27
ATOM     27  N   UNL     1      30.390  -4.250 -24.381  0.00  0.00    -0.203 NA
ATOM     28  H   UNL     1      29.664  -4.960 -24.297  0.00  0.00    +0.144 HD
ATOM     29  H   UNL     1      30.145  -3.598 -25.128  0.00  0.00    +0.144 HD
ENDBRANCH  24  27
ENDBRANCH  19  24
ENDBRANCH   1  18
TORSDOF 4
ENDMDL
MODEL 7
REMARK VINA RESULT:      -9.3     13.124     15.379
REMARK  Name = 5288527
REMARK  4 active torsions:
REMARK  status: ('A' for Active; 'I' for Inactive)
REMARK    1  A    between atoms: N_1  and  C_18
REMARK    2  A    between atoms: C_4  and  C_11
REMARK    3  A    between atoms: C_19  and  S_24
REMARK    4  A    between atoms: S_24  and  N_27
REMARK                            x       y       z     vdW  Elec       q    Type
REMARK                         _______ _______ _______ _____ _____    ______ ____
ROOT
ATOM      1  N   UNL     1      32.265 -12.368 -20.653  0.00  0.00    -0.247 N 
ATOM      2  N   UNL     1      31.975 -10.278 -21.680  0.00  0.00    -0.336 NA
ATOM      3  N   UNL     1      31.576 -10.564 -19.321  0.00  0.00    -0.170 NA
ATOM      4  C   UNL     1      31.641  -8.980 -21.537  0.00  0.00    +0.161 C 
ATOM      5  C   UNL     1      31.922 -11.003 -20.546  0.00  0.00    +0.149 C 
ATOM      6  C   UNL     1      31.269  -8.406 -20.342  0.00  0.00    +0.056 C 
ATOM      7  C   UNL     1      31.254  -9.255 -19.254  0.00  0.00    +0.114 C 
ATOM      8  H   UNL     1      32.212 -12.858 -19.801  0.00  0.00    +0.165 HD
ENDROOT
BRANCH   4  11
ATOM      9  N   UNL     1      32.847  -7.712 -23.318  0.00  0.00    -0.246 N 
ATOM     10  N   UNL     1      31.164  -7.083 -24.651  0.00  0.00    -0.227 NA
ATOM     11  C   UNL     1      31.699  -8.208 -22.755  0.00  0.00    +0.107 C 
ATOM     12  C   UNL     1      32.468  -7.033 -24.474  0.00  0.00    +0.139 C 
ATOM     13  C   UNL     1      30.683  -7.809 -23.591  0.00  0.00    +0.118 C 
ATOM     14  C   UNL     1      34.165  -7.822 -22.886  0.00  0.00    +0.071 C 
ATOM     15  C   UNL     1      33.508  -6.426 -25.237  0.00  0.00    +0.035 C 
ATOM     16  C   UNL     1      35.139  -7.247 -23.610  0.00  0.00    +0.017 C 
ATOM     17  C   UNL     1      34.786  -6.527 -24.824  0.00  0.00    +0.004 C 
ENDBRANCH   4  11
BRANCH   1  18
ATOM     18  C   UNL     1      32.670 -13.166 -21.740  0.00  0.00    +0.058 C 
ATOM     19  C   UNL     1      33.471 -14.748 -23.897  0.00  0.00    +0.122 C 
ATOM     20  C   UNL     1      33.634 -14.160 -21.559  0.00  0.00    +0.017 C 
ATOM     21  C   UNL     1      32.108 -12.966 -23.003  0.00  0.00    +0.017 C 
ATOM     22  C   UNL     1      34.034 -14.950 -22.636  0.00  0.00    +0.021 C 
ATOM     23  C   UNL     1      32.508 -13.756 -24.080  0.00  0.00    +0.021 C 
BRANCH  19  24
ATOM     24  S   UNL     1      33.973 -15.737 -25.246  0.00  0.00    +0.057 S 
ATOM     25  O   UNL     1      33.810 -14.962 -26.468  0.00  0.00    -0.153 OA
ATOM     26  O   UNL     1      35.266 -16.328 -24.931  0.00  0.00    -0.153 OA
BRANCH  24  27
ATOM     27  N   UNL     1      32.785 -16.965 -25.209  0.00  0.00    -0.203 NA
ATOM     28  H   UNL     1      32.794 -17.419 -24.296  0.00  0.00    +0.144 HD
ATOM     29  H   UNL     1      32.986 -17.654 -25.934  0.00  0.00    +0.144 HD
ENDBRANCH  24  27
ENDBRANCH  19  24
ENDBRANCH   1  18
TORSDOF 4
ENDMDL
MODEL 8
REMARK VINA RESULT:      -9.2      3.983      7.164
REMARK  Name = 5288527
REMARK  4 active torsions:
REMARK  status: ('A' for Active; 'I' for Inactive)
REMARK    1  A    between atoms: N_1  and  C_18
REMARK    2  A    between atoms: C_4  and  C_11
REMARK    3  A    between atoms: C_19  and  S_24
REMARK    4  A    between atoms: S_24  and  N_27
REMARK                            x       y       z     vdW  Elec       q    Type
REMARK                         _______ _______ _______ _____ _____    ______ ____
ROOT
ATOM      1  N   UNL     1      36.661 -22.047 -18.043  0.00  0.00    -0.247 N 
ATOM      2  N   UNL     1      34.583 -22.746 -17.209  0.00  0.00    -0.336 NA
ATOM      3  N   UNL     1      36.636 -23.428 -16.147  0.00  0.00    -0.170 NA
ATOM      4  C   UNL     1      33.915 -23.453 -16.276  0.00  0.00    +0.161 C 
ATOM      5  C   UNL     1      35.924 -22.777 -17.086  0.00  0.00    +0.149 C 
ATOM      6  C   UNL     1      34.521 -24.163 -15.263  0.00  0.00    +0.056 C 
ATOM      7  C   UNL     1      35.900 -24.114 -15.248  0.00  0.00    +0.114 C 
ATOM      8  H   UNL     1      37.636 -22.098 -17.915  0.00  0.00    +0.165 HD
ENDROOT
BRANCH   4  11
ATOM      9  N   UNL     1      31.593 -24.038 -15.567  0.00  0.00    -0.246 N 
ATOM     10  N   UNL     1      30.365 -23.009 -17.129  0.00  0.00    -0.227 NA
ATOM     11  C   UNL     1      32.478 -23.418 -16.412  0.00  0.00    +0.107 C 
ATOM     12  C   UNL     1      30.315 -23.759 -16.047  0.00  0.00    +0.139 C 
ATOM     13  C   UNL     1      31.700 -22.795 -17.359  0.00  0.00    +0.118 C 
ATOM     14  C   UNL     1      31.839 -24.810 -14.435  0.00  0.00    +0.071 C 
ATOM     15  C   UNL     1      29.218 -24.306 -15.320  0.00  0.00    +0.035 C 
ATOM     16  C   UNL     1      30.801 -25.321 -13.756  0.00  0.00    +0.017 C 
ATOM     17  C   UNL     1      29.449 -25.054 -14.224  0.00  0.00    +0.004 C 
ENDBRANCH   4  11
BRANCH   1  18
ATOM     18  C   UNL     1      36.276 -21.261 -19.145  0.00  0.00    +0.058 C 
ATOM     19  C   UNL     1      35.514 -19.700 -21.332  0.00  0.00    +0.122 C 
ATOM     20  C   UNL     1      35.022 -21.442 -19.732  0.00  0.00    +0.017 C 
ATOM     21  C   UNL     1      37.148 -20.296 -19.656  0.00  0.00    +0.017 C 
ATOM     22  C   UNL     1      34.641 -20.663 -20.823  0.00  0.00    +0.021 C 
ATOM     23  C   UNL     1      36.767 -19.517 -20.748  0.00  0.00    +0.021 C 
BRANCH  19  24
ATOM     24  S   UNL     1      35.038 -18.724 -22.699  0.00  0.00    +0.057 S 
ATOM     25  O   UNL     1      36.144 -18.689 -23.645  0.00  0.00    -0.153 OA
ATOM     26  O   UNL     1      33.721 -19.159 -23.143  0.00  0.00    -0.153 OA
BRANCH  24  27
ATOM     27  N   UNL     1      34.889 -17.187 -21.967  0.00  0.00    -0.203 NA
ATOM     28  H   UNL     1      34.942 -17.287 -20.954  0.00  0.00    +0.144 HD
ATOM     29  H   UNL     1      33.992 -16.774 -22.223  0.00  0.00    +0.144 HD
ENDBRANCH  24  27
ENDBRANCH  19  24
ENDBRANCH   1  18
TORSDOF 4
ENDMDL
MODEL 9
REMARK VINA RESULT:      -9.1      9.161     12.265
REMARK  Name = 5288527
REMARK  4 active torsions:
REMARK  status: ('A' for Active; 'I' for Inactive)
REMARK    1  A    between atoms: N_1  and  C_18
REMARK    2  A    between atoms: C_4  and  C_11
REMARK    3  A    between atoms: C_19  and  S_24
REMARK    4  A    between atoms: S_24  and  N_27
REMARK                            x       y       z     vdW  Elec       q    Type
REMARK                         _______ _______ _______ _____ _____    ______ ____
ROOT
ATOM      1  N   UNL     1      34.655 -17.033 -24.710  0.00  0.00    -0.247 N 
ATOM      2  N   UNL     1      33.651 -15.256 -23.552  0.00  0.00    -0.336 NA
ATOM      3  N   UNL     1      34.026 -15.129 -25.929  0.00  0.00    -0.170 NA
ATOM      4  C   UNL     1      33.110 -14.023 -23.614  0.00  0.00    +0.161 C 
ATOM      5  C   UNL     1      34.082 -15.742 -24.731  0.00  0.00    +0.149 C 
ATOM      6  C   UNL     1      32.992 -13.289 -24.773  0.00  0.00    +0.056 C 
ATOM      7  C   UNL     1      33.472 -13.899 -25.913  0.00  0.00    +0.114 C 
ATOM      8  H   UNL     1      34.956 -17.347 -25.593  0.00  0.00    +0.165 HD
ENDROOT
BRANCH   4  11
ATOM      9  N   UNL     1      32.257 -12.211 -22.122  0.00  0.00    -0.246 N 
ATOM     10  N   UNL     1      32.031 -13.289 -20.175  0.00  0.00    -0.227 NA
ATOM     11  C   UNL     1      32.649 -13.506 -22.347  0.00  0.00    +0.107 C 
ATOM     12  C   UNL     1      31.889 -12.128 -20.782  0.00  0.00    +0.139 C 
ATOM     13  C   UNL     1      32.501 -14.145 -21.139  0.00  0.00    +0.118 C 
ATOM     14  C   UNL     1      32.208 -11.134 -23.003  0.00  0.00    +0.071 C 
ATOM     15  C   UNL     1      31.440 -10.859 -20.311  0.00  0.00    +0.035 C 
ATOM     16  C   UNL     1      31.784  -9.942 -22.552  0.00  0.00    +0.017 C 
ATOM     17  C   UNL     1      31.390  -9.813 -21.158  0.00  0.00    +0.004 C 
ENDBRANCH   4  11
BRANCH   1  18
ATOM     18  C   UNL     1      34.879 -17.958 -23.673  0.00  0.00    +0.058 C 
ATOM     19  C   UNL     1      35.323 -19.795 -21.617  0.00  0.00    +0.122 C 
ATOM     20  C   UNL     1      36.018 -17.852 -22.873  0.00  0.00    +0.017 C 
ATOM     21  C   UNL     1      33.962 -18.986 -23.442  0.00  0.00    +0.017 C 
ATOM     22  C   UNL     1      36.240 -18.769 -21.846  0.00  0.00    +0.021 C 
ATOM     23  C   UNL     1      34.184 -19.903 -22.416  0.00  0.00    +0.021 C 
BRANCH  19  24
ATOM     24  S   UNL     1      35.600 -20.944 -20.333  0.00  0.00    +0.057 S 
ATOM     25  O   UNL     1      35.991 -22.214 -20.929  0.00  0.00    -0.153 OA
ATOM     26  O   UNL     1      36.454 -20.322 -19.331  0.00  0.00    -0.153 OA
BRANCH  24  27
ATOM     27  N   UNL     1      34.024 -21.100 -19.689  0.00  0.00    -0.203 NA
ATOM     28  H   UNL     1      33.662 -22.030 -19.900  0.00  0.00    +0.144 HD
ATOM     29  H   UNL     1      33.416 -20.395 -20.105  0.00  0.00    +0.144 HD
ENDBRANCH  24  27
ENDBRANCH  19  24
ENDBRANCH   1  18
TORSDOF 4
ENDMDL
