MODEL 1
REMARK VINA RESULT:     -11.9      0.000      0.000
REMARK  Name = 447736
REMARK  4 active torsions:
REMARK  status: ('A' for Active; 'I' for Inactive)
REMARK    1  A    between atoms: N_2  and  C_13
REMARK    2  A    between atoms: C_3  and  C_20
REMARK    3  A    between atoms: C_6  and  C_17
REMARK    4  A    between atoms: C_28  and  C_32
REMARK                            x       y       z     vdW  Elec       q    Type
REMARK                         _______ _______ _______ _____ _____    ______ ____
ROOT
ATOM      1  O   UNL     1      33.572 -24.025 -18.175  0.00  0.00    -0.270 OA
ATOM      2  N   UNL     1      34.688 -22.443 -16.840  0.00  0.00    -0.280 N 
ATOM      3  C   UNL     1      34.054 -22.911 -17.999  0.00  0.00    +0.249 C 
ATOM      4  H   UNL     1      35.018 -21.516 -16.873  0.00  0.00    +0.155 HD
ENDROOT
BRANCH   2  13
ATOM      5  N   UNL     1      37.877 -25.685 -12.637  0.00  0.00    +0.388 N 
ATOM      6  C   UNL     1      37.844 -24.722 -13.756  0.00  0.00    -0.039 C 
ATOM      7  C   UNL     1      36.439 -24.268 -14.129  0.00  0.00    -0.045 C 
ATOM      8  C   UNL     1      35.366 -24.476 -13.238  0.00  0.00    -0.030 C 
ATOM      9  C   UNL     1      35.579 -25.204 -11.936  0.00  0.00    +0.003 C 
ATOM     10  C   UNL     1      37.049 -25.221 -11.525  0.00  0.00    -0.076 C 
ATOM     11  C   UNL     1      36.195 -23.568 -15.322  0.00  0.00    +0.008 C 
ATOM     12  C   UNL     1      34.076 -24.043 -13.579  0.00  0.00    -0.003 C 
ATOM     13  C   UNL     1      34.909 -23.130 -15.646  0.00  0.00    +0.050 C 
ATOM     14  C   UNL     1      33.849 -23.373 -14.778  0.00  0.00    +0.014 C 
ATOM     15  H   UNL     1      38.840 -25.789 -12.314  0.00  0.00    -0.084 HD
ATOM     16  H   UNL     1      37.511 -26.578 -12.964  0.00  0.00    -0.084 HD
BRANCH   6  17
ATOM     17  C   UNL     1      38.599 -25.379 -14.920  0.00  0.00    -0.015 C 
ATOM     18  C   UNL     1      40.078 -25.523 -14.579  0.00  0.00    -0.002 C 
ATOM     19  C   UNL     1      37.984 -26.733 -15.253  0.00  0.00    -0.002 C 
ENDBRANCH   6  17
ENDBRANCH   2  13
BRANCH   3  20
ATOM     20  C   UNL     1      33.996 -21.944 -19.127  0.00  0.00    +0.054 C 
ATOM     21  C   UNL     1      35.137 -20.477 -20.654  0.00  0.00    +0.000 C 
ATOM     22  C   UNL     1      35.174 -21.393 -19.589  0.00  0.00    +0.005 C 
ATOM     23  C   UNL     1      33.890 -20.136 -21.232  0.00  0.00    +0.000 C 
ATOM     24  C   UNL     1      32.773 -21.630 -19.670  0.00  0.00    +0.005 C 
ATOM     25  C   UNL     1      32.717 -20.722 -20.727  0.00  0.00    +0.000 C 
ATOM     26  C   UNL     1      33.854 -19.220 -22.295  0.00  0.00    +0.003 C 
ATOM     27  C   UNL     1      36.309 -19.892 -21.158  0.00  0.00    +0.000 C 
ATOM     28  C   UNL     1      35.029 -18.649 -22.783  0.00  0.00    +0.031 C 
ATOM     29  C   UNL     1      36.255 -18.985 -22.215  0.00  0.00    +0.003 C 
BRANCH  28  32
ATOM     30  N   UNL     1      35.629 -16.474 -23.819  0.00  0.00    -0.343 N 
ATOM     31  N   UNL     1      34.289 -17.999 -24.975  0.00  0.00    -0.285 NA
ATOM     32  C   UNL     1      34.973 -17.702 -23.885  0.00  0.00    +0.117 C 
ATOM     33  H   UNL     1      35.580 -15.847 -24.577  0.00  0.00    +0.144 HD
ATOM     34  H   UNL     1      36.143 -16.233 -23.014  0.00  0.00    +0.144 HD
ATOM     35  H   UNL     1      34.251 -17.359 -25.722  0.00  0.00    +0.188 HD
ENDBRANCH  28  32
ENDBRANCH   3  20
TORSDOF 4
ENDMDL
MODEL 2
REMARK VINA RESULT:     -10.9      1.139      2.628
REMARK  Name = 447736
REMARK  4 active torsions:
REMARK  status: ('A' for Active; 'I' for Inactive)
REMARK    1  A    between atoms: N_2  and  C_13
REMARK    2  A    between atoms: C_3  and  C_20
REMARK    3  A    between atoms: C_6  and  C_17
REMARK    4  A    between atoms: C_28  and  C_32
REMARK                            x       y       z     vdW  Elec       q    Type
REMARK                         _______ _______ _______ _____ _____    ______ ____
ROOT
ATOM      1  O   UNL     1      34.126 -23.363 -18.119  0.00  0.00    -0.270 OA
ATOM      2  N   UNL     1      36.147 -22.265 -17.634  0.00  0.00    -0.280 N 
ATOM      3  C   UNL     1      34.949 -22.479 -18.329  0.00  0.00    +0.249 C 
ATOM      4  H   UNL     1      36.693 -21.503 -17.938  0.00  0.00    +0.155 HD
ENDROOT
BRANCH   2  13
ATOM      5  N   UNL     1      36.017 -25.497 -12.353  0.00  0.00    +0.388 N 
ATOM      6  C   UNL     1      35.349 -25.025 -13.582  0.00  0.00    -0.039 C 
ATOM      7  C   UNL     1      36.290 -24.338 -14.563  0.00  0.00    -0.045 C 
ATOM      8  C   UNL     1      37.686 -24.496 -14.437  0.00  0.00    -0.030 C 
ATOM      9  C   UNL     1      38.269 -25.293 -13.298  0.00  0.00    +0.003 C 
ATOM     10  C   UNL     1      37.240 -26.232 -12.672  0.00  0.00    -0.076 C 
ATOM     11  C   UNL     1      35.794 -23.603 -15.652  0.00  0.00    +0.008 C 
ATOM     12  C   UNL     1      38.549 -23.875 -15.351  0.00  0.00    -0.003 C 
ATOM     13  C   UNL     1      36.662 -22.998 -16.564  0.00  0.00    +0.050 C 
ATOM     14  C   UNL     1      38.038 -23.128 -16.410  0.00  0.00    +0.014 C 
ATOM     15  H   UNL     1      35.383 -26.112 -11.843  0.00  0.00    -0.084 HD
ATOM     16  H   UNL     1      36.264 -24.687 -11.785  0.00  0.00    -0.084 HD
BRANCH   6  17
ATOM     17  C   UNL     1      34.185 -24.133 -13.133  0.00  0.00    -0.015 C 
ATOM     18  C   UNL     1      32.854 -24.747 -13.551  0.00  0.00    -0.002 C 
ATOM     19  C   UNL     1      34.233 -23.919 -11.624  0.00  0.00    -0.002 C 
ENDBRANCH   6  17
ENDBRANCH   2  13
BRANCH   3  20
ATOM     20  C   UNL     1      34.688 -21.539 -19.450  0.00  0.00    +0.054 C 
ATOM     21  C   UNL     1      35.523 -19.990 -21.089  0.00  0.00    +0.000 C 
ATOM     22  C   UNL     1      35.754 -20.883 -20.029  0.00  0.00    +0.005 C 
ATOM     23  C   UNL     1      34.199 -19.780 -21.542  0.00  0.00    +0.000 C 
ATOM     24  C   UNL     1      33.392 -21.353 -19.871  0.00  0.00    +0.005 C 
ATOM     25  C   UNL     1      33.144 -20.470 -20.922  0.00  0.00    +0.000 C 
ATOM     26  C   UNL     1      33.969 -18.888 -22.601  0.00  0.00    +0.003 C 
ATOM     27  C   UNL     1      36.578 -19.301 -21.708  0.00  0.00    +0.000 C 
ATOM     28  C   UNL     1      35.029 -18.212 -23.205  0.00  0.00    +0.031 C 
ATOM     29  C   UNL     1      36.331 -18.418 -22.759  0.00  0.00    +0.003 C 
BRANCH  28  32
ATOM     30  N   UNL     1      35.374 -16.033 -24.345  0.00  0.00    -0.343 N 
ATOM     31  N   UNL     1      33.955 -17.639 -25.277  0.00  0.00    -0.285 NA
ATOM     32  C   UNL     1      34.773 -17.290 -24.301  0.00  0.00    +0.117 C 
ATOM     33  H   UNL     1      35.188 -15.425 -25.097  0.00  0.00    +0.144 HD
ATOM     34  H   UNL     1      35.985 -15.754 -23.626  0.00  0.00    +0.144 HD
ATOM     35  H   UNL     1      33.781 -17.016 -26.020  0.00  0.00    +0.188 HD
ENDBRANCH  28  32
ENDBRANCH   3  20
TORSDOF 4
ENDMDL
MODEL 3
REMARK VINA RESULT:     -10.8      7.840     15.013
REMARK  Name = 447736
REMARK  4 active torsions:
REMARK  status: ('A' for Active; 'I' for Inactive)
REMARK    1  A    between atoms: N_2  and  C_13
REMARK    2  A    between atoms: C_3  and  C_20
REMARK    3  A    between atoms: C_6  and  C_17
REMARK    4  A    between atoms: C_28  and  C_32
REMARK                            x       y       z     vdW  Elec       q    Type
REMARK                         _______ _______ _______ _____ _____    ______ ____
ROOT
ATOM      1  O   UNL     1      33.421 -12.729 -25.473  0.00  0.00    -0.270 OA
ATOM      2  N   UNL     1      34.581 -11.443 -23.883  0.00  0.00    -0.280 N 
ATOM      3  C   UNL     1      34.046 -12.620 -24.424  0.00  0.00    +0.249 C 
ATOM      4  H   UNL     1      35.056 -11.538 -23.026  0.00  0.00    +0.155 HD
ENDROOT
BRANCH   2  13
ATOM      5  N   UNL     1      32.654  -5.579 -24.396  0.00  0.00    +0.388 N 
ATOM      6  C   UNL     1      32.871  -6.789 -23.577  0.00  0.00    -0.039 C 
ATOM      7  C   UNL     1      33.678  -7.869 -24.287  0.00  0.00    -0.045 C 
ATOM      8  C   UNL     1      34.426  -7.554 -25.439  0.00  0.00    -0.030 C 
ATOM      9  C   UNL     1      34.391  -6.164 -26.022  0.00  0.00    +0.003 C 
ATOM     10  C   UNL     1      33.903  -5.132 -25.009  0.00  0.00    -0.076 C 
ATOM     11  C   UNL     1      33.759  -9.173 -23.770  0.00  0.00    +0.008 C 
ATOM     12  C   UNL     1      35.180  -8.547 -26.081  0.00  0.00    -0.003 C 
ATOM     13  C   UNL     1      34.522 -10.152 -24.410  0.00  0.00    +0.050 C 
ATOM     14  C   UNL     1      35.227  -9.841 -25.568  0.00  0.00    +0.014 C 
ATOM     15  H   UNL     1      32.290  -4.835 -23.801  0.00  0.00    -0.084 HD
ATOM     16  H   UNL     1      31.990  -5.803 -25.137  0.00  0.00    -0.084 HD
BRANCH   6  17
ATOM     17  C   UNL     1      31.485  -7.266 -23.125  0.00  0.00    -0.015 C 
ATOM     18  C   UNL     1      31.476  -7.519 -21.621  0.00  0.00    -0.002 C 
ATOM     19  C   UNL     1      30.421  -6.244 -23.509  0.00  0.00    -0.002 C 
ENDBRANCH   6  17
ENDBRANCH   2  13
BRANCH   3  20
ATOM     20  C   UNL     1      34.250 -13.844 -23.607  0.00  0.00    +0.054 C 
ATOM     21  C   UNL     1      34.702 -16.204 -23.494  0.00  0.00    +0.000 C 
ATOM     22  C   UNL     1      34.508 -15.037 -24.251  0.00  0.00    +0.005 C 
ATOM     23  C   UNL     1      34.629 -16.134 -22.082  0.00  0.00    +0.000 C 
ATOM     24  C   UNL     1      34.174 -13.749 -22.237  0.00  0.00    +0.005 C 
ATOM     25  C   UNL     1      34.364 -14.898 -21.469  0.00  0.00    +0.000 C 
ATOM     26  C   UNL     1      34.823 -17.300 -21.325  0.00  0.00    +0.003 C 
ATOM     27  C   UNL     1      34.968 -17.439 -24.107  0.00  0.00    +0.000 C 
ATOM     28  C   UNL     1      35.086 -18.519 -21.951  0.00  0.00    +0.031 C 
ATOM     29  C   UNL     1      35.158 -18.588 -23.339  0.00  0.00    +0.003 C 
BRANCH  28  32
ATOM     30  N   UNL     1      36.517 -20.008 -20.571  0.00  0.00    -0.343 N 
ATOM     31  N   UNL     1      34.282 -20.560 -20.970  0.00  0.00    -0.285 NA
ATOM     32  C   UNL     1      35.284 -19.718 -21.153  0.00  0.00    +0.117 C 
ATOM     33  H   UNL     1      36.629 -20.825 -20.034  0.00  0.00    +0.144 HD
ATOM     34  H   UNL     1      37.276 -19.394 -20.697  0.00  0.00    +0.144 HD
ATOM     35  H   UNL     1      34.414 -21.372 -20.430  0.00  0.00    +0.188 HD
ENDBRANCH  28  32
ENDBRANCH   3  20
TORSDOF 4
ENDMDL
MODEL 4
REMARK VINA RESULT:     -10.6      7.624     14.794
REMARK  Name = 447736
REMARK  4 active torsions:
REMARK  status: ('A' for Active; 'I' for Inactive)
REMARK    1  A    between atoms: N_2  and  C_13
REMARK    2  A    between atoms: C_3  and  C_20
REMARK    3  A    between atoms: C_6  and  C_17
REMARK    4  A    between atoms: C_28  and  C_32
REMARK                            x       y       z     vdW  Elec       q    Type
REMARK                         _______ _______ _______ _____ _____    ______ ____
ROOT
ATOM      1  O   UNL     1      33.120 -12.773 -26.236  0.00  0.00    -0.270 OA
ATOM      2  N   UNL     1      34.480 -11.864 -24.548  0.00  0.00    -0.280 N 
ATOM      3  C   UNL     1      33.839 -12.894 -25.251  0.00  0.00    +0.249 C 
ATOM      4  H   UNL     1      35.023 -12.142 -23.774  0.00  0.00    +0.155 HD
ENDROOT
BRANCH   2  13
ATOM      5  N   UNL     1      32.807  -5.954 -23.760  0.00  0.00    +0.388 N 
ATOM      6  C   UNL     1      33.026  -7.307 -23.211  0.00  0.00    -0.039 C 
ATOM      7  C   UNL     1      33.724  -8.253 -24.179  0.00  0.00    -0.045 C 
ATOM      8  C   UNL     1      34.397  -7.744 -25.308  0.00  0.00    -0.030 C 
ATOM      9  C   UNL     1      34.385  -6.266 -25.608  0.00  0.00    +0.003 C 
ATOM     10  C   UNL     1      34.026  -5.437 -24.378  0.00  0.00    -0.076 C 
ATOM     11  C   UNL     1      33.780  -9.635 -23.932  0.00  0.00    +0.008 C 
ATOM     12  C   UNL     1      35.051  -8.616 -26.190  0.00  0.00    -0.003 C 
ATOM     13  C   UNL     1      34.444 -10.494 -24.810  0.00  0.00    +0.050 C 
ATOM     14  C   UNL     1      35.074  -9.987 -25.941  0.00  0.00    +0.014 C 
ATOM     15  H   UNL     1      32.525  -5.329 -23.005  0.00  0.00    -0.084 HD
ATOM     16  H   UNL     1      32.079  -6.006 -24.473  0.00  0.00    -0.084 HD
BRANCH   6  17
ATOM     17  C   UNL     1      31.657  -7.818 -22.745  0.00  0.00    -0.015 C 
ATOM     18  C   UNL     1      31.609  -7.893 -21.222  0.00  0.00    -0.002 C 
ATOM     19  C   UNL     1      30.546  -6.920 -23.279  0.00  0.00    -0.002 C 
ENDBRANCH   6  17
ENDBRANCH   2  13
BRANCH   3  20
ATOM     20  C   UNL     1      34.048 -14.261 -24.707  0.00  0.00    +0.054 C 
ATOM     21  C   UNL     1      34.527 -15.691 -22.833  0.00  0.00    +0.000 C 
ATOM     22  C   UNL     1      34.326 -14.406 -23.363  0.00  0.00    +0.005 C 
ATOM     23  C   UNL     1      34.441 -16.815 -23.690  0.00  0.00    +0.000 C 
ATOM     24  C   UNL     1      33.959 -15.335 -25.560  0.00  0.00    +0.005 C 
ATOM     25  C   UNL     1      34.157 -16.619 -25.052  0.00  0.00    +0.000 C 
ATOM     26  C   UNL     1      34.643 -18.099 -23.161  0.00  0.00    +0.003 C 
ATOM     27  C   UNL     1      34.812 -15.886 -21.473  0.00  0.00    +0.000 C 
ATOM     28  C   UNL     1      34.924 -18.275 -21.806  0.00  0.00    +0.031 C 
ATOM     29  C   UNL     1      35.009 -17.170 -20.963  0.00  0.00    +0.003 C 
BRANCH  28  32
ATOM     30  N   UNL     1      36.328 -19.969 -20.655  0.00  0.00    -0.343 N 
ATOM     31  N   UNL     1      34.173 -20.516 -21.374  0.00  0.00    -0.285 NA
ATOM     32  C   UNL     1      35.131 -19.612 -21.273  0.00  0.00    +0.117 C 
ATOM     33  H   UNL     1      36.447 -20.880 -20.301  0.00  0.00    +0.144 HD
ATOM     34  H   UNL     1      37.055 -19.310 -20.573  0.00  0.00    +0.144 HD
ATOM     35  H   UNL     1      34.311 -21.422 -21.013  0.00  0.00    +0.188 HD
ENDBRANCH  28  32
ENDBRANCH   3  20
TORSDOF 4
ENDMDL
MODEL 5
REMARK VINA RESULT:     -10.3      8.122     15.102
REMARK  Name = 447736
REMARK  4 active torsions:
REMARK  status: ('A' for Active; 'I' for Inactive)
REMARK    1  A    between atoms: N_2  and  C_13
REMARK    2  A    between atoms: C_3  and  C_20
REMARK    3  A    between atoms: C_6  and  C_17
REMARK    4  A    between atoms: C_28  and  C_32
REMARK                            x       y       z     vdW  Elec       q    Type
REMARK                         _______ _______ _______ _____ _____    ______ ____
ROOT
ATOM      1  O   UNL     1      33.551 -12.009 -25.026  0.00  0.00    -0.270 OA
ATOM      2  N   UNL     1      32.878 -11.122 -22.956  0.00  0.00    -0.280 N 
ATOM      3  C   UNL     1      33.406 -12.098 -23.812  0.00  0.00    +0.249 C 
ATOM      4  H   UNL     1      32.833 -11.362 -22.002  0.00  0.00    +0.155 HD
ENDROOT
BRANCH   2  13
ATOM      5  N   UNL     1      32.957  -5.532 -25.620  0.00  0.00    +0.388 N 
ATOM      6  C   UNL     1      33.386  -6.944 -25.595  0.00  0.00    -0.039 C 
ATOM      7  C   UNL     1      32.650  -7.787 -24.562  0.00  0.00    -0.045 C 
ATOM      8  C   UNL     1      31.450  -7.319 -23.988  0.00  0.00    -0.030 C 
ATOM      9  C   UNL     1      30.911  -5.956 -24.340  0.00  0.00    +0.003 C 
ATOM     10  C   UNL     1      31.499  -5.429 -25.646  0.00  0.00    -0.076 C 
ATOM     11  C   UNL     1      33.101  -9.072 -24.217  0.00  0.00    +0.008 C 
ATOM     12  C   UNL     1      30.767  -8.104 -23.048  0.00  0.00    -0.003 C 
ATOM     13  C   UNL     1      32.407  -9.851 -23.289  0.00  0.00    +0.050 C 
ATOM     14  C   UNL     1      31.244  -9.366 -22.700  0.00  0.00    +0.014 C 
ATOM     15  H   UNL     1      33.338  -5.082 -26.453  0.00  0.00    -0.084 HD
ATOM     16  H   UNL     1      33.300  -5.072 -24.777  0.00  0.00    -0.084 HD
BRANCH   6  17
ATOM     17  C   UNL     1      34.907  -6.936 -25.399  0.00  0.00    -0.015 C 
ATOM     18  C   UNL     1      35.519  -5.698 -26.045  0.00  0.00    -0.002 C 
ATOM     19  C   UNL     1      35.250  -6.999 -23.915  0.00  0.00    -0.002 C 
ENDBRANCH   6  17
ENDBRANCH   2  13
BRANCH   3  20
ATOM     20  C   UNL     1      33.798 -13.373 -23.157  0.00  0.00    +0.054 C 
ATOM     21  C   UNL     1      34.553 -15.649 -23.346  0.00  0.00    +0.000 C 
ATOM     22  C   UNL     1      34.180 -14.436 -23.949  0.00  0.00    +0.005 C 
ATOM     23  C   UNL     1      34.530 -15.756 -21.935  0.00  0.00    +0.000 C 
ATOM     24  C   UNL     1      33.766 -13.451 -21.785  0.00  0.00    +0.005 C 
ATOM     25  C   UNL     1      34.133 -14.648 -21.168  0.00  0.00    +0.000 C 
ATOM     26  C   UNL     1      34.902 -16.968 -21.332  0.00  0.00    +0.003 C 
ATOM     27  C   UNL     1      34.949 -16.756 -24.112  0.00  0.00    +0.000 C 
ATOM     28  C   UNL     1      35.294 -18.059 -22.109  0.00  0.00    +0.031 C 
ATOM     29  C   UNL     1      35.317 -17.953 -23.497  0.00  0.00    +0.003 C 
BRANCH  28  32
ATOM     30  N   UNL     1      36.871 -19.424 -20.763  0.00  0.00    -0.343 N 
ATOM     31  N   UNL     1      34.882 -20.361 -21.555  0.00  0.00    -0.285 NA
ATOM     32  C   UNL     1      35.676 -19.308 -21.469  0.00  0.00    +0.117 C 
ATOM     33  H   UNL     1      37.110 -20.279 -20.336  0.00  0.00    +0.144 HD
ATOM     34  H   UNL     1      37.477 -18.651 -20.689  0.00  0.00    +0.144 HD
ATOM     35  H   UNL     1      35.140 -21.207 -21.123  0.00  0.00    +0.188 HD
ENDBRANCH  28  32
ENDBRANCH   3  20
TORSDOF 4
ENDMDL
MODEL 6
REMARK VINA RESULT:     -10.2      4.594     12.493
REMARK  Name = 447736
REMARK  4 active torsions:
REMARK  status: ('A' for Active; 'I' for Inactive)
REMARK    1  A    between atoms: N_2  and  C_13
REMARK    2  A    between atoms: C_3  and  C_20
REMARK    3  A    between atoms: C_6  and  C_17
REMARK    4  A    between atoms: C_28  and  C_32
REMARK                            x       y       z     vdW  Elec       q    Type
REMARK                         _______ _______ _______ _____ _____    ______ ____
ROOT
ATOM      1  O   UNL     1      34.956 -17.532 -25.107  0.00  0.00    -0.270 OA
ATOM      2  N   UNL     1      34.340 -15.926 -23.504  0.00  0.00    -0.280 N 
ATOM      3  C   UNL     1      34.761 -17.188 -23.946  0.00  0.00    +0.249 C 
ATOM      4  H   UNL     1      34.233 -15.823 -22.531  0.00  0.00    +0.155 HD
ENDROOT
BRANCH   2  13
ATOM      5  N   UNL     1      32.903 -10.008 -24.628  0.00  0.00    +0.388 N 
ATOM      6  C   UNL     1      33.499 -11.037 -23.753  0.00  0.00    -0.039 C 
ATOM      7  C   UNL     1      33.620 -12.404 -24.413  0.00  0.00    -0.045 C 
ATOM      8  C   UNL     1      33.515 -12.527 -25.814  0.00  0.00    -0.030 C 
ATOM      9  C   UNL     1      33.219 -11.323 -26.671  0.00  0.00    +0.003 C 
ATOM     10  C   UNL     1      33.532 -10.016 -25.947  0.00  0.00    -0.076 C 
ATOM     11  C   UNL     1      33.917 -13.551 -23.659  0.00  0.00    +0.008 C 
ATOM     12  C   UNL     1      33.642 -13.786 -26.420  0.00  0.00    -0.003 C 
ATOM     13  C   UNL     1      34.054 -14.798 -24.274  0.00  0.00    +0.050 C 
ATOM     14  C   UNL     1      33.910 -14.916 -25.652  0.00  0.00    +0.014 C 
ATOM     15  H   UNL     1      33.034  -9.091 -24.202  0.00  0.00    -0.084 HD
ATOM     16  H   UNL     1      31.910 -10.211 -24.740  0.00  0.00    -0.084 HD
BRANCH   6  17
ATOM     17  C   UNL     1      32.662 -11.057 -22.467  0.00  0.00    -0.015 C 
ATOM     18  C   UNL     1      31.928  -9.732 -22.291  0.00  0.00    -0.002 C 
ATOM     19  C   UNL     1      31.679 -12.222 -22.493  0.00  0.00    -0.002 C 
ENDBRANCH   6  17
ENDBRANCH   2  13
BRANCH   3  20
ATOM     20  C   UNL     1      34.958 -18.202 -22.878  0.00  0.00    +0.054 C 
ATOM     21  C   UNL     1      34.024 -19.824 -21.368  0.00  0.00    +0.000 C 
ATOM     22  C   UNL     1      33.855 -18.863 -22.378  0.00  0.00    +0.005 C 
ATOM     23  C   UNL     1      35.326 -20.096 -20.881  0.00  0.00    +0.000 C 
ATOM     24  C   UNL     1      36.232 -18.447 -22.423  0.00  0.00    +0.005 C 
ATOM     25  C   UNL     1      36.420 -19.398 -21.419  0.00  0.00    +0.000 C 
ATOM     26  C   UNL     1      35.494 -21.056 -19.871  0.00  0.00    +0.003 C 
ATOM     27  C   UNL     1      32.931 -20.522 -20.830  0.00  0.00    +0.000 C 
ATOM     28  C   UNL     1      34.397 -21.740 -19.348  0.00  0.00    +0.031 C 
ATOM     29  C   UNL     1      33.117 -21.473 -19.827  0.00  0.00    +0.003 C 
BRANCH  28  32
ATOM     30  N   UNL     1      35.631 -22.624 -17.383  0.00  0.00    -0.343 N 
ATOM     31  N   UNL     1      33.765 -23.761 -18.212  0.00  0.00    -0.285 NA
ATOM     32  C   UNL     1      34.588 -22.732 -18.302  0.00  0.00    +0.117 C 
ATOM     33  H   UNL     1      35.742 -23.306 -16.682  0.00  0.00    +0.144 HD
ATOM     34  H   UNL     1      36.256 -21.866 -17.435  0.00  0.00    +0.144 HD
ATOM     35  H   UNL     1      33.893 -24.433 -17.504  0.00  0.00    +0.188 HD
ENDBRANCH  28  32
ENDBRANCH   3  20
TORSDOF 4
ENDMDL
MODEL 7
REMARK VINA RESULT:     -10.1      3.363     11.265
REMARK  Name = 447736
REMARK  4 active torsions:
REMARK  status: ('A' for Active; 'I' for Inactive)
REMARK    1  A    between atoms: N_2  and  C_13
REMARK    2  A    between atoms: C_3  and  C_20
REMARK    3  A    between atoms: C_6  and  C_17
REMARK    4  A    between atoms: C_28  and  C_32
REMARK                            x       y       z     vdW  Elec       q    Type
REMARK                         _______ _______ _______ _____ _____    ______ ____
ROOT
ATOM      1  O   UNL     1      34.527 -19.806 -23.308  0.00  0.00    -0.270 OA
ATOM      2  N   UNL     1      34.838 -17.885 -21.988  0.00  0.00    -0.280 N 
ATOM      3  C   UNL     1      34.777 -19.263 -22.237  0.00  0.00    +0.249 C 
ATOM      4  H   UNL     1      35.052 -17.623 -21.063  0.00  0.00    +0.155 HD
ENDROOT
BRANCH   2  13
ATOM      5  N   UNL     1      32.937 -12.314 -23.913  0.00  0.00    +0.388 N 
ATOM      6  C   UNL     1      33.390 -13.209 -22.829  0.00  0.00    -0.039 C 
ATOM      7  C   UNL     1      33.906 -14.554 -23.323  0.00  0.00    -0.045 C 
ATOM      8  C   UNL     1      34.245 -14.728 -24.680  0.00  0.00    -0.030 C 
ATOM      9  C   UNL     1      34.043 -13.611 -25.672  0.00  0.00    +0.003 C 
ATOM     10  C   UNL     1      33.926 -12.253 -24.987  0.00  0.00    -0.076 C 
ATOM     11  C   UNL     1      34.131 -15.617 -22.433  0.00  0.00    +0.008 C 
ATOM     12  C   UNL     1      34.735 -15.964 -25.129  0.00  0.00    -0.003 C 
ATOM     13  C   UNL     1      34.630 -16.839 -22.888  0.00  0.00    +0.050 C 
ATOM     14  C   UNL     1      34.926 -17.015 -24.235  0.00  0.00    +0.014 C 
ATOM     15  H   UNL     1      32.796 -11.377 -23.535  0.00  0.00    -0.084 HD
ATOM     16  H   UNL     1      32.065 -12.681 -24.295  0.00  0.00    -0.084 HD
BRANCH   6  17
ATOM     17  C   UNL     1      32.219 -13.333 -21.846  0.00  0.00    -0.015 C 
ATOM     18  C   UNL     1      32.722 -13.762 -20.472  0.00  0.00    -0.002 C 
ATOM     19  C   UNL     1      31.459 -12.014 -21.757  0.00  0.00    -0.002 C 
ENDBRANCH   6  17
ENDBRANCH   2  13
BRANCH   3  20
ATOM     20  C   UNL     1      35.019 -20.134 -21.057  0.00  0.00    +0.054 C 
ATOM     21  C   UNL     1      34.165 -21.641 -19.388  0.00  0.00    +0.000 C 
ATOM     22  C   UNL     1      33.953 -20.814 -20.505  0.00  0.00    +0.005 C 
ATOM     23  C   UNL     1      35.470 -21.759 -18.852  0.00  0.00    +0.000 C 
ATOM     24  C   UNL     1      36.295 -20.231 -20.555  0.00  0.00    +0.005 C 
ATOM     25  C   UNL     1      36.524 -21.047 -19.447  0.00  0.00    +0.000 C 
ATOM     26  C   UNL     1      35.681 -22.585 -17.736  0.00  0.00    +0.003 C 
ATOM     27  C   UNL     1      33.111 -22.353 -18.794  0.00  0.00    +0.000 C 
ATOM     28  C   UNL     1      34.622 -23.286 -17.158  0.00  0.00    +0.031 C 
ATOM     29  C   UNL     1      33.339 -23.169 -17.687  0.00  0.00    +0.003 C 
BRANCH  28  32
ATOM     30  N   UNL     1      33.852 -24.388 -15.070  0.00  0.00    -0.343 N 
ATOM     31  N   UNL     1      36.045 -24.686 -15.821  0.00  0.00    -0.285 NA
ATOM     32  C   UNL     1      34.857 -24.137 -16.003  0.00  0.00    +0.117 C 
ATOM     33  H   UNL     1      34.032 -24.968 -14.296  0.00  0.00    +0.144 HD
ATOM     34  H   UNL     1      32.961 -23.985 -15.187  0.00  0.00    +0.144 HD
ATOM     35  H   UNL     1      36.205 -25.263 -15.039  0.00  0.00    +0.188 HD
ENDBRANCH  28  32
ENDBRANCH   3  20
TORSDOF 4
ENDMDL
MODEL 8
REMARK VINA RESULT:     -10.0      8.211     15.209
REMARK  Name = 447736
REMARK  4 active torsions:
REMARK  status: ('A' for Active; 'I' for Inactive)
REMARK    1  A    between atoms: N_2  and  C_13
REMARK    2  A    between atoms: C_3  and  C_20
REMARK    3  A    between atoms: C_6  and  C_17
REMARK    4  A    between atoms: C_28  and  C_32
REMARK                            x       y       z     vdW  Elec       q    Type
REMARK                         _______ _______ _______ _____ _____    ______ ____
ROOT
ATOM      1  O   UNL     1      33.436 -11.665 -25.809  0.00  0.00    -0.270 OA
ATOM      2  N   UNL     1      32.957 -11.220 -23.551  0.00  0.00    -0.280 N 
ATOM      3  C   UNL     1      33.382 -12.004 -24.632  0.00  0.00    +0.249 C 
ATOM      4  H   UNL     1      32.977 -11.655 -22.667  0.00  0.00    +0.155 HD
ENDROOT
BRANCH   2  13
ATOM      5  N   UNL     1      32.908  -5.240 -25.162  0.00  0.00    +0.388 N 
ATOM      6  C   UNL     1      33.261  -6.643 -25.457  0.00  0.00    -0.039 C 
ATOM      7  C   UNL     1      32.654  -7.644 -24.482  0.00  0.00    -0.045 C 
ATOM      8  C   UNL     1      31.585  -7.261 -23.646  0.00  0.00    -0.030 C 
ATOM      9  C   UNL     1      31.070  -5.844 -23.657  0.00  0.00    +0.003 C 
ATOM     10  C   UNL     1      31.472  -5.101 -24.929  0.00  0.00    -0.076 C 
ATOM     11  C   UNL     1      33.085  -8.980 -24.449  0.00  0.00    +0.008 C 
ATOM     12  C   UNL     1      31.018  -8.189 -22.760  0.00  0.00    -0.003 C 
ATOM     13  C   UNL     1      32.506  -9.899 -23.572  0.00  0.00    +0.050 C 
ATOM     14  C   UNL     1      31.478  -9.503 -22.724  0.00  0.00    +0.014 C 
ATOM     15  H   UNL     1      33.176  -4.655 -25.953  0.00  0.00    -0.084 HD
ATOM     16  H   UNL     1      33.403  -4.951 -24.318  0.00  0.00    -0.084 HD
BRANCH   6  17
ATOM     17  C   UNL     1      34.792  -6.707 -25.515  0.00  0.00    -0.015 C 
ATOM     18  C   UNL     1      35.349  -5.465 -26.203  0.00  0.00    -0.002 C 
ATOM     19  C   UNL     1      35.370  -6.855 -24.113  0.00  0.00    -0.002 C 
ENDBRANCH   6  17
ENDBRANCH   2  13
BRANCH   3  20
ATOM     20  C   UNL     1      33.779 -13.395 -24.291  0.00  0.00    +0.054 C 
ATOM     21  C   UNL     1      34.339 -15.038 -22.626  0.00  0.00    +0.000 C 
ATOM     22  C   UNL     1      33.962 -13.727 -22.965  0.00  0.00    +0.005 C 
ATOM     23  C   UNL     1      34.523 -15.993 -23.655  0.00  0.00    +0.000 C 
ATOM     24  C   UNL     1      33.953 -14.303 -25.309  0.00  0.00    +0.005 C 
ATOM     25  C   UNL     1      34.327 -15.609 -24.991  0.00  0.00    +0.000 C 
ATOM     26  C   UNL     1      34.900 -17.303 -23.316  0.00  0.00    +0.003 C 
ATOM     27  C   UNL     1      34.535 -15.421 -21.290  0.00  0.00    +0.000 C 
ATOM     28  C   UNL     1      35.090 -17.666 -21.983  0.00  0.00    +0.031 C 
ATOM     29  C   UNL     1      34.908 -16.727 -20.971  0.00  0.00    +0.003 C 
BRANCH  28  32
ATOM     30  N   UNL     1      36.651 -19.292 -20.939  0.00  0.00    -0.343 N 
ATOM     31  N   UNL     1      34.720 -20.040 -22.023  0.00  0.00    -0.285 NA
ATOM     32  C   UNL     1      35.481 -19.027 -21.648  0.00  0.00    +0.117 C 
ATOM     33  H   UNL     1      36.895 -20.220 -20.722  0.00  0.00    +0.144 HD
ATOM     34  H   UNL     1      37.231 -18.550 -20.653  0.00  0.00    +0.144 HD
ATOM     35  H   UNL     1      34.983 -20.962 -21.797  0.00  0.00    +0.188 HD
ENDBRANCH  28  32
ENDBRANCH   3  20
TORSDOF 4
ENDMDL
MODEL 9
REMARK VINA RESULT:      -9.9      0.750      1.519
REMARK  Name = 447736
REMARK  4 active torsions:
REMARK  status: ('A' for Active; 'I' for Inactive)
REMARK    1  A    between atoms: N_2  and  C_13
REMARK    2  A    between atoms: C_3  and  C_20
REMARK    3  A    between atoms: C_6  and  C_17
REMARK    4  A    between atoms: C_28  and  C_32
REMARK                            x       y       z     vdW  Elec       q    Type
REMARK                         _______ _______ _______ _____ _____    ______ ____
ROOT
ATOM      1  O   UNL     1      34.302 -23.450 -18.505  0.00  0.00    -0.270 OA
ATOM      2  N   UNL     1      35.579 -22.147 -17.022  0.00  0.00    -0.280 N 
ATOM      3  C   UNL     1      34.971 -22.455 -18.247  0.00  0.00    +0.249 C 
ATOM      4  H   UNL     1      36.082 -21.301 -16.990  0.00  0.00    +0.155 HD
ENDROOT
BRANCH   2  13
ATOM      5  N   UNL     1      37.778 -25.906 -12.619  0.00  0.00    +0.388 N 
ATOM      6  C   UNL     1      38.008 -24.915 -13.689  0.00  0.00    -0.039 C 
ATOM      7  C   UNL     1      36.730 -24.268 -14.207  0.00  0.00    -0.045 C 
ATOM      8  C   UNL     1      35.537 -24.358 -13.461  0.00  0.00    -0.030 C 
ATOM      9  C   UNL     1      35.491 -25.146 -12.177  0.00  0.00    +0.003 C 
ATOM     10  C   UNL     1      36.884 -25.370 -11.594  0.00  0.00    -0.076 C 
ATOM     11  C   UNL     1      36.728 -23.506 -15.387  0.00  0.00    +0.008 C 
ATOM     12  C   UNL     1      34.365 -23.748 -13.933  0.00  0.00    -0.003 C 
ATOM     13  C   UNL     1      35.559 -22.892 -15.842  0.00  0.00    +0.050 C 
ATOM     14  C   UNL     1      34.378 -23.018 -15.120  0.00  0.00    +0.014 C 
ATOM     15  H   UNL     1      38.671 -26.146 -12.189  0.00  0.00    -0.084 HD
ATOM     16  H   UNL     1      37.344 -26.733 -13.028  0.00  0.00    -0.084 HD
BRANCH   6  17
ATOM     17  C   UNL     1      38.811 -25.631 -14.783  0.00  0.00    -0.015 C 
ATOM     18  C   UNL     1      40.224 -25.930 -14.293  0.00  0.00    -0.002 C 
ATOM     19  C   UNL     1      38.103 -26.911 -15.209  0.00  0.00    -0.002 C 
ENDBRANCH   6  17
ENDBRANCH   2  13
BRANCH   3  20
ATOM     20  C   UNL     1      35.198 -21.469 -19.335  0.00  0.00    +0.054 C 
ATOM     21  C   UNL     1      34.337 -20.190 -21.181  0.00  0.00    +0.000 C 
ATOM     22  C   UNL     1      34.138 -21.120 -20.147  0.00  0.00    +0.005 C 
ATOM     23  C   UNL     1      35.622 -19.629 -21.370  0.00  0.00    +0.000 C 
ATOM     24  C   UNL     1      36.456 -20.939 -19.498  0.00  0.00    +0.005 C 
ATOM     25  C   UNL     1      36.672 -20.014 -20.520  0.00  0.00    +0.000 C 
ATOM     26  C   UNL     1      35.820 -18.700 -22.404  0.00  0.00    +0.003 C 
ATOM     27  C   UNL     1      33.287 -19.806 -22.031  0.00  0.00    +0.000 C 
ATOM     28  C   UNL     1      34.766 -18.328 -23.239  0.00  0.00    +0.031 C 
ATOM     29  C   UNL     1      33.502 -18.881 -23.052  0.00  0.00    +0.003 C 
BRANCH  28  32
ATOM     30  N   UNL     1      35.631 -16.152 -24.066  0.00  0.00    -0.343 N 
ATOM     31  N   UNL     1      34.572 -17.633 -25.531  0.00  0.00    -0.285 NA
ATOM     32  C   UNL     1      34.988 -17.365 -24.306  0.00  0.00    +0.117 C 
ATOM     33  H   UNL     1      35.772 -15.515 -24.803  0.00  0.00    +0.144 HD
ATOM     34  H   UNL     1      35.946 -15.934 -23.159  0.00  0.00    +0.144 HD
ATOM     35  H   UNL     1      34.722 -16.982 -26.255  0.00  0.00    +0.188 HD
ENDBRANCH  28  32
ENDBRANCH   3  20
TORSDOF 4
ENDMDL
