MODEL 1
REMARK VINA RESULT:     -12.0      0.000      0.000
REMARK  Name = 6914657
REMARK  8 active torsions:
REMARK  status: ('A' for Active; 'I' for Inactive)
REMARK    1  A    between atoms: C_1  and  C_4
REMARK    2  A    between atoms: C_1  and  C_16
REMARK    3  A    between atoms: C_9  and  C_10
REMARK    4  A    between atoms: C_16  and  C_17
REMARK    5  A    between atoms: C_17  and  C_18
REMARK    6  A    between atoms: C_18  and  N_20
REMARK    7  A    between atoms: C_21  and  C_23
REMARK    8  A    between atoms: C_24  and  C_26
REMARK                            x       y       z     vdW  Elec       q    Type
REMARK                         _______ _______ _______ _____ _____    ______ ____
ROOT
ATOM      1  C   UNL     1      32.008 -13.145 -21.386  0.00  0.00    +0.000 C 
ENDROOT
BRANCH   1   4
ATOM      2  O   UNL     1      33.038  -7.124 -20.182  0.00  0.00    -0.270 OA
ATOM      3  N   UNL     1      32.012  -8.850 -21.380  0.00  0.00    -0.276 N 
ATOM      4  C   UNL     1      31.511 -11.702 -21.428  0.00  0.00    +0.003 C 
ATOM      5  C   UNL     1      32.087 -10.959 -22.644  0.00  0.00    +0.022 C 
ATOM      6  C   UNL     1      31.872 -10.962 -20.129  0.00  0.00    +0.022 C 
ATOM      7  C   UNL     1      31.656  -9.495 -22.650  0.00  0.00    +0.094 C 
ATOM      8  C   UNL     1      31.454  -9.494 -20.192  0.00  0.00    +0.094 C 
ATOM      9  C   UNL     1      32.775  -7.688 -21.243  0.00  0.00    +0.249 C 
BRANCH   9  10
ATOM     10  C   UNL     1      33.330  -7.076 -22.456  0.00  0.00    +0.054 C 
ATOM     11  C   UNL     1      34.475  -7.611 -23.047  0.00  0.00    +0.005 C 
ATOM     12  C   UNL     1      32.713  -5.959 -23.019  0.00  0.00    +0.005 C 
ATOM     13  C   UNL     1      35.003  -7.030 -24.199  0.00  0.00    +0.000 C 
ATOM     14  C   UNL     1      33.240  -5.378 -24.173  0.00  0.00    +0.000 C 
ATOM     15  C   UNL     1      34.386  -5.913 -24.762  0.00  0.00    +0.000 C 
ENDBRANCH   9  10
ENDBRANCH   1   4
BRANCH   1  16
ATOM     16  C   UNL     1      32.771 -13.503 -22.659  0.00  0.00    +0.002 C 
BRANCH  16  17
ATOM     17  C   UNL     1      34.141 -14.096 -22.331  0.00  0.00    +0.021 C 
BRANCH  17  18
ATOM     18  C   UNL     1      34.605 -15.056 -23.419  0.00  0.00    +0.090 C 
BRANCH  18  20
ATOM     19  O   UNL     1      34.672 -17.446 -25.056  0.00  0.00    -0.270 OA
ATOM     20  N   UNL     1      34.569 -16.422 -22.970  0.00  0.00    -0.301 N 
ATOM     21  C   UNL     1      34.606 -17.510 -23.832  0.00  0.00    +0.246 C 
ATOM     22  H   UNL     1      34.515 -16.593 -22.003  0.00  0.00    +0.150 HD
BRANCH  21  23
ATOM     23  C   UNL     1      34.555 -18.808 -23.100  0.00  0.00    +0.058 C 
ATOM     24  C   UNL     1      34.523 -18.819 -21.760  0.00  0.00    +0.006 C 
BRANCH  24  26
ATOM     25  N   UNL     1      35.637 -21.802 -19.770  0.00  0.00    -0.242 NA
ATOM     26  C   UNL     1      34.463 -20.038 -20.934  0.00  0.00    +0.019 C 
ATOM     27  C   UNL     1      33.244 -20.579 -20.540  0.00  0.00    +0.003 C 
ATOM     28  C   UNL     1      35.621 -20.682 -20.526  0.00  0.00    +0.099 C 
ATOM     29  C   UNL     1      33.220 -21.730 -19.762  0.00  0.00    +0.021 C 
ATOM     30  C   UNL     1      34.432 -22.299 -19.406  0.00  0.00    +0.099 C 
ENDBRANCH  24  26
ENDBRANCH  21  23
ENDBRANCH  18  20
ENDBRANCH  17  18
ENDBRANCH  16  17
ENDBRANCH   1  16
TORSDOF 8
ENDMDL
MODEL 2
REMARK VINA RESULT:     -10.8      6.959     13.509
REMARK  Name = 6914657
REMARK  8 active torsions:
REMARK  status: ('A' for Active; 'I' for Inactive)
REMARK    1  A    between atoms: C_1  and  C_4
REMARK    2  A    between atoms: C_1  and  C_16
REMARK    3  A    between atoms: C_9  and  C_10
REMARK    4  A    between atoms: C_16  and  C_17
REMARK    5  A    between atoms: C_17  and  C_18
REMARK    6  A    between atoms: C_18  and  N_20
REMARK    7  A    between atoms: C_21  and  C_23
REMARK    8  A    between atoms: C_24  and  C_26
REMARK                            x       y       z     vdW  Elec       q    Type
REMARK                         _______ _______ _______ _____ _____    ______ ____
ROOT
ATOM      1  C   UNL     1      37.192 -23.233 -15.898  0.00  0.00    +0.000 C 
ENDROOT
BRANCH   1   4
ATOM      2  O   UNL     1      31.941 -23.092 -12.555  0.00  0.00    -0.270 OA
ATOM      3  N   UNL     1      33.479 -24.166 -13.951  0.00  0.00    -0.276 N 
ATOM      4  C   UNL     1      36.130 -23.989 -15.103  0.00  0.00    +0.003 C 
ATOM      5  C   UNL     1      34.887 -24.257 -15.967  0.00  0.00    +0.022 C 
ATOM      6  C   UNL     1      35.742 -23.212 -13.834  0.00  0.00    +0.022 C 
ATOM      7  C   UNL     1      33.792 -24.945 -15.156  0.00  0.00    +0.094 C 
ATOM      8  C   UNL     1      34.621 -23.917 -13.073  0.00  0.00    +0.094 C 
ATOM      9  C   UNL     1      32.211 -23.708 -13.584  0.00  0.00    +0.249 C 
BRANCH   9  10
ATOM     10  C   UNL     1      31.090 -23.965 -14.497  0.00  0.00    +0.054 C 
ATOM     11  C   UNL     1      30.326 -25.124 -14.356  0.00  0.00    +0.005 C 
ATOM     12  C   UNL     1      30.789 -23.051 -15.507  0.00  0.00    +0.005 C 
ATOM     13  C   UNL     1      29.262 -25.368 -15.223  0.00  0.00    +0.000 C 
ATOM     14  C   UNL     1      29.724 -23.295 -16.374  0.00  0.00    +0.000 C 
ATOM     15  C   UNL     1      28.961 -24.454 -16.232  0.00  0.00    +0.000 C 
ENDBRANCH   9  10
ENDBRANCH   1   4
BRANCH   1  16
ATOM     16  C   UNL     1      36.638 -21.922 -16.451  0.00  0.00    +0.002 C 
BRANCH  16  17
ATOM     17  C   UNL     1      36.687 -21.906 -17.979  0.00  0.00    +0.021 C 
BRANCH  17  18
ATOM     18  C   UNL     1      35.319 -22.204 -18.581  0.00  0.00    +0.090 C 
BRANCH  18  20
ATOM     19  O   UNL     1      32.734 -21.864 -19.844  0.00  0.00    -0.270 OA
ATOM     20  N   UNL     1      34.956 -21.232 -19.576  0.00  0.00    -0.301 N 
ATOM     21  C   UNL     1      33.685 -21.143 -20.129  0.00  0.00    +0.246 C 
ATOM     22  H   UNL     1      35.644 -20.598 -19.881  0.00  0.00    +0.150 HD
BRANCH  21  23
ATOM     23  C   UNL     1      33.587 -20.047 -21.135  0.00  0.00    +0.058 C 
ATOM     24  C   UNL     1      34.662 -19.704 -21.859  0.00  0.00    +0.006 C 
BRANCH  24  26
ATOM     25  N   UNL     1      34.175 -17.955 -25.146  0.00  0.00    -0.242 NA
ATOM     26  C   UNL     1      34.677 -18.646 -22.884  0.00  0.00    +0.019 C 
ATOM     27  C   UNL     1      35.182 -17.381 -22.602  0.00  0.00    +0.003 C 
ATOM     28  C   UNL     1      34.189 -18.880 -24.159  0.00  0.00    +0.099 C 
ATOM     29  C   UNL     1      35.184 -16.404 -23.590  0.00  0.00    +0.021 C 
ATOM     30  C   UNL     1      34.674 -16.738 -24.834  0.00  0.00    +0.099 C 
ENDBRANCH  24  26
ENDBRANCH  21  23
ENDBRANCH  18  20
ENDBRANCH  17  18
ENDBRANCH  16  17
ENDBRANCH   1  16
TORSDOF 8
ENDMDL
MODEL 3
REMARK VINA RESULT:     -10.8      2.391      3.567
REMARK  Name = 6914657
REMARK  8 active torsions:
REMARK  status: ('A' for Active; 'I' for Inactive)
REMARK    1  A    between atoms: C_1  and  C_4
REMARK    2  A    between atoms: C_1  and  C_16
REMARK    3  A    between atoms: C_9  and  C_10
REMARK    4  A    between atoms: C_16  and  C_17
REMARK    5  A    between atoms: C_17  and  C_18
REMARK    6  A    between atoms: C_18  and  N_20
REMARK    7  A    between atoms: C_21  and  C_23
REMARK    8  A    between atoms: C_24  and  C_26
REMARK                            x       y       z     vdW  Elec       q    Type
REMARK                         _______ _______ _______ _____ _____    ______ ____
ROOT
ATOM      1  C   UNL     1      33.428 -13.894 -26.188  0.00  0.00    +0.000 C 
ENDROOT
BRANCH   1   4
ATOM      2  O   UNL     1      31.979  -7.890 -25.400  0.00  0.00    -0.270 OA
ATOM      3  N   UNL     1      33.371  -9.743 -25.087  0.00  0.00    -0.276 N 
ATOM      4  C   UNL     1      33.893 -12.461 -25.940  0.00  0.00    +0.003 C 
ATOM      5  C   UNL     1      33.754 -12.090 -24.455  0.00  0.00    +0.022 C 
ATOM      6  C   UNL     1      33.104 -11.472 -26.815  0.00  0.00    +0.022 C 
ATOM      7  C   UNL     1      34.144 -10.634 -24.213  0.00  0.00    +0.094 C 
ATOM      8  C   UNL     1      33.501 -10.028 -26.515  0.00  0.00    +0.094 C 
ATOM      9  C   UNL     1      32.593  -8.662 -24.665  0.00  0.00    +0.249 C 
BRANCH   9  10
ATOM     10  C   UNL     1      32.475  -8.414 -23.223  0.00  0.00    +0.054 C 
ATOM     11  C   UNL     1      33.271  -7.443 -22.615  0.00  0.00    +0.005 C 
ATOM     12  C   UNL     1      31.568  -9.149 -22.461  0.00  0.00    +0.005 C 
ATOM     13  C   UNL     1      33.159  -7.208 -21.245  0.00  0.00    +0.000 C 
ATOM     14  C   UNL     1      31.455  -8.914 -21.090  0.00  0.00    +0.000 C 
ATOM     15  C   UNL     1      32.252  -7.943 -20.482  0.00  0.00    +0.000 C 
ENDBRANCH   9  10
ENDBRANCH   1   4
BRANCH   1  16
ATOM     16  C   UNL     1      33.421 -14.704 -24.895  0.00  0.00    +0.002 C 
BRANCH  16  17
ATOM     17  C   UNL     1      33.637 -16.191 -25.176  0.00  0.00    +0.021 C 
BRANCH  17  18
ATOM     18  C   UNL     1      35.053 -16.624 -24.818  0.00  0.00    +0.090 C 
BRANCH  18  20
ATOM     19  O   UNL     1      34.954 -15.941 -22.004  0.00  0.00    -0.270 OA
ATOM     20  N   UNL     1      35.064 -17.528 -23.700  0.00  0.00    -0.301 N 
ATOM     21  C   UNL     1      35.013 -17.108 -22.378  0.00  0.00    +0.246 C 
ATOM     22  H   UNL     1      35.109 -18.494 -23.883  0.00  0.00    +0.150 HD
BRANCH  21  23
ATOM     23  C   UNL     1      35.037 -18.254 -21.424  0.00  0.00    +0.058 C 
ATOM     24  C   UNL     1      34.142 -19.245 -21.545  0.00  0.00    +0.006 C 
BRANCH  24  26
ATOM     25  N   UNL     1      32.732 -22.017 -19.442  0.00  0.00    -0.242 NA
ATOM     26  C   UNL     1      34.078 -20.426 -20.668  0.00  0.00    +0.019 C 
ATOM     27  C   UNL     1      35.236 -21.064 -20.238  0.00  0.00    +0.003 C 
ATOM     28  C   UNL     1      32.861 -20.938 -20.246  0.00  0.00    +0.099 C 
ATOM     29  C   UNL     1      35.144 -22.177 -19.410  0.00  0.00    +0.021 C 
ATOM     30  C   UNL     1      33.880 -22.610 -19.044  0.00  0.00    +0.099 C 
ENDBRANCH  24  26
ENDBRANCH  21  23
ENDBRANCH  18  20
ENDBRANCH  17  18
ENDBRANCH  16  17
ENDBRANCH   1  16
TORSDOF 8
ENDMDL
MODEL 4
REMARK VINA RESULT:     -10.8      7.826     11.569
REMARK  Name = 6914657
REMARK  8 active torsions:
REMARK  status: ('A' for Active; 'I' for Inactive)
REMARK    1  A    between atoms: C_1  and  C_4
REMARK    2  A    between atoms: C_1  and  C_16
REMARK    3  A    between atoms: C_9  and  C_10
REMARK    4  A    between atoms: C_16  and  C_17
REMARK    5  A    between atoms: C_17  and  C_18
REMARK    6  A    between atoms: C_18  and  N_20
REMARK    7  A    between atoms: C_21  and  C_23
REMARK    8  A    between atoms: C_24  and  C_26
REMARK                            x       y       z     vdW  Elec       q    Type
REMARK                         _______ _______ _______ _____ _____    ______ ____
ROOT
ATOM      1  C   UNL     1      36.477 -22.255 -16.276  0.00  0.00    +0.000 C 
ENDROOT
BRANCH   1   4
ATOM      2  O   UNL     1      32.354 -20.670 -20.664  0.00  0.00    -0.270 OA
ATOM      3  N   UNL     1      34.407 -21.550 -19.973  0.00  0.00    -0.276 N 
ATOM      4  C   UNL     1      35.916 -22.473 -17.679  0.00  0.00    +0.003 C 
ATOM      5  C   UNL     1      36.487 -21.440 -18.663  0.00  0.00    +0.022 C 
ATOM      6  C   UNL     1      34.379 -22.408 -17.669  0.00  0.00    +0.022 C 
ATOM      7  C   UNL     1      35.872 -21.603 -20.051  0.00  0.00    +0.094 C 
ATOM      8  C   UNL     1      33.808 -22.541 -19.079  0.00  0.00    +0.094 C 
ATOM      9  C   UNL     1      33.583 -20.686 -20.698  0.00  0.00    +0.249 C 
BRANCH   9  10
ATOM     10  C   UNL     1      34.219 -19.696 -21.575  0.00  0.00    +0.054 C 
ATOM     11  C   UNL     1      33.958 -19.707 -22.945  0.00  0.00    +0.005 C 
ATOM     12  C   UNL     1      35.086 -18.743 -21.039  0.00  0.00    +0.005 C 
ATOM     13  C   UNL     1      34.562 -18.767 -23.779  0.00  0.00    +0.000 C 
ATOM     14  C   UNL     1      35.690 -17.802 -21.873  0.00  0.00    +0.000 C 
ATOM     15  C   UNL     1      35.428 -17.814 -23.243  0.00  0.00    +0.000 C 
ENDBRANCH   9  10
ENDBRANCH   1   4
BRANCH   1  16
ATOM     16  C   UNL     1      37.258 -23.476 -15.797  0.00  0.00    +0.002 C 
BRANCH  16  17
ATOM     17  C   UNL     1      37.025 -23.728 -14.307  0.00  0.00    +0.021 C 
BRANCH  17  18
ATOM     18  C   UNL     1      36.353 -25.075 -14.072  0.00  0.00    +0.090 C 
BRANCH  18  20
ATOM     19  O   UNL     1      34.254 -23.965 -12.410  0.00  0.00    -0.270 OA
ATOM     20  N   UNL     1      34.946 -25.023 -14.363  0.00  0.00    -0.301 N 
ATOM     21  C   UNL     1      34.008 -24.468 -13.502  0.00  0.00    +0.246 C 
ATOM     22  H   UNL     1      34.632 -25.398 -15.217  0.00  0.00    +0.150 HD
BRANCH  21  23
ATOM     23  C   UNL     1      32.625 -24.545 -14.054  0.00  0.00    +0.058 C 
ATOM     24  C   UNL     1      32.213 -23.644 -14.957  0.00  0.00    +0.006 C 
BRANCH  24  26
ATOM     25  N   UNL     1      29.383 -22.722 -17.247  0.00  0.00    -0.242 NA
ATOM     26  C   UNL     1      30.875 -23.630 -15.575  0.00  0.00    +0.019 C 
ATOM     27  C   UNL     1      29.862 -24.463 -15.113  0.00  0.00    +0.003 C 
ATOM     28  C   UNL     1      30.588 -22.786 -16.636  0.00  0.00    +0.099 C 
ATOM     29  C   UNL     1      28.610 -24.426 -15.716  0.00  0.00    +0.021 C 
ATOM     30  C   UNL     1      28.423 -23.546 -16.769  0.00  0.00    +0.099 C 
ENDBRANCH  24  26
ENDBRANCH  21  23
ENDBRANCH  18  20
ENDBRANCH  17  18
ENDBRANCH  16  17
ENDBRANCH   1  16
TORSDOF 8
ENDMDL
MODEL 5
REMARK VINA RESULT:     -10.5      5.533     13.226
REMARK  Name = 6914657
REMARK  8 active torsions:
REMARK  status: ('A' for Active; 'I' for Inactive)
REMARK    1  A    between atoms: C_1  and  C_4
REMARK    2  A    between atoms: C_1  and  C_16
REMARK    3  A    between atoms: C_9  and  C_10
REMARK    4  A    between atoms: C_16  and  C_17
REMARK    5  A    between atoms: C_17  and  C_18
REMARK    6  A    between atoms: C_18  and  N_20
REMARK    7  A    between atoms: C_21  and  C_23
REMARK    8  A    between atoms: C_24  and  C_26
REMARK                            x       y       z     vdW  Elec       q    Type
REMARK                         _______ _______ _______ _____ _____    ______ ____
ROOT
ATOM      1  C   UNL     1      36.389 -22.058 -16.442  0.00  0.00    +0.000 C 
ENDROOT
BRANCH   1   4
ATOM      2  O   UNL     1      31.569 -24.040 -13.035  0.00  0.00    -0.270 OA
ATOM      3  N   UNL     1      32.982 -24.166 -14.894  0.00  0.00    -0.276 N 
ATOM      4  C   UNL     1      35.467 -23.202 -16.027  0.00  0.00    +0.003 C 
ATOM      5  C   UNL     1      34.145 -23.152 -16.810  0.00  0.00    +0.022 C 
ATOM      6  C   UNL     1      35.193 -23.162 -14.514  0.00  0.00    +0.022 C 
ATOM      7  C   UNL     1      33.188 -24.246 -16.346  0.00  0.00    +0.094 C 
ATOM      8  C   UNL     1      34.206 -24.251 -14.099  0.00  0.00    +0.094 C 
ATOM      9  C   UNL     1      31.745 -24.065 -14.252  0.00  0.00    +0.249 C 
BRANCH   9  10
ATOM     10  C   UNL     1      30.539 -23.969 -15.082  0.00  0.00    +0.054 C 
ATOM     11  C   UNL     1      29.790 -25.113 -15.360  0.00  0.00    +0.005 C 
ATOM     12  C   UNL     1      30.140 -22.734 -15.594  0.00  0.00    +0.005 C 
ATOM     13  C   UNL     1      28.644 -25.022 -16.149  0.00  0.00    +0.000 C 
ATOM     14  C   UNL     1      28.993 -22.643 -16.382  0.00  0.00    +0.000 C 
ATOM     15  C   UNL     1      28.245 -23.787 -16.660  0.00  0.00    +0.000 C 
ENDBRANCH   9  10
ENDBRANCH   1   4
BRANCH   1  16
ATOM     16  C   UNL     1      36.875 -22.234 -17.878  0.00  0.00    +0.002 C 
BRANCH  16  17
ATOM     17  C   UNL     1      36.628 -20.969 -18.701  0.00  0.00    +0.021 C 
BRANCH  17  18
ATOM     18  C   UNL     1      36.123 -21.307 -20.099  0.00  0.00    +0.090 C 
BRANCH  18  20
ATOM     19  O   UNL     1      37.468 -19.061 -21.341  0.00  0.00    -0.270 OA
ATOM     20  N   UNL     1      35.516 -20.168 -20.731  0.00  0.00    -0.301 N 
ATOM     21  C   UNL     1      36.244 -19.133 -21.304  0.00  0.00    +0.246 C 
ATOM     22  H   UNL     1      34.533 -20.120 -20.760  0.00  0.00    +0.150 HD
BRANCH  21  23
ATOM     23  C   UNL     1      35.362 -18.083 -21.889  0.00  0.00    +0.058 C 
ATOM     24  C   UNL     1      35.654 -17.554 -23.085  0.00  0.00    +0.006 C 
BRANCH  24  26
ATOM     25  N   UNL     1      33.646 -15.802 -25.731  0.00  0.00    -0.242 NA
ATOM     26  C   UNL     1      34.851 -16.520 -23.761  0.00  0.00    +0.019 C 
ATOM     27  C   UNL     1      34.534 -15.326 -23.124  0.00  0.00    +0.003 C 
ATOM     28  C   UNL     1      34.386 -16.708 -25.053  0.00  0.00    +0.099 C 
ATOM     29  C   UNL     1      33.776 -14.369 -23.788  0.00  0.00    +0.021 C 
ATOM     30  C   UNL     1      33.360 -14.652 -25.078  0.00  0.00    +0.099 C 
ENDBRANCH  24  26
ENDBRANCH  21  23
ENDBRANCH  18  20
ENDBRANCH  17  18
ENDBRANCH  16  17
ENDBRANCH   1  16
TORSDOF 8
ENDMDL
MODEL 6
REMARK VINA RESULT:     -10.5      5.325     13.699
REMARK  Name = 6914657
REMARK  8 active torsions:
REMARK  status: ('A' for Active; 'I' for Inactive)
REMARK    1  A    between atoms: C_1  and  C_4
REMARK    2  A    between atoms: C_1  and  C_16
REMARK    3  A    between atoms: C_9  and  C_10
REMARK    4  A    between atoms: C_16  and  C_17
REMARK    5  A    between atoms: C_17  and  C_18
REMARK    6  A    between atoms: C_18  and  N_20
REMARK    7  A    between atoms: C_21  and  C_23
REMARK    8  A    between atoms: C_24  and  C_26
REMARK                            x       y       z     vdW  Elec       q    Type
REMARK                         _______ _______ _______ _____ _____    ______ ____
ROOT
ATOM      1  C   UNL     1      33.299 -23.170 -18.826  0.00  0.00    +0.000 C 
ENDROOT
BRANCH   1   4
ATOM      2  O   UNL     1      33.250 -24.936 -12.856  0.00  0.00    -0.270 OA
ATOM      3  N   UNL     1      33.863 -23.480 -14.579  0.00  0.00    -0.276 N 
ATOM      4  C   UNL     1      33.387 -22.786 -17.351  0.00  0.00    +0.003 C 
ATOM      5  C   UNL     1      34.805 -23.025 -16.806  0.00  0.00    +0.022 C 
ATOM      6  C   UNL     1      32.357 -23.569 -16.520  0.00  0.00    +0.022 C 
ATOM      7  C   UNL     1      34.880 -22.717 -15.313  0.00  0.00    +0.094 C 
ATOM      8  C   UNL     1      32.490 -23.257 -15.031  0.00  0.00    +0.094 C 
ATOM      9  C   UNL     1      34.106 -24.329 -13.497  0.00  0.00    +0.249 C 
BRANCH   9  10
ATOM     10  C   UNL     1      35.497 -24.540 -13.080  0.00  0.00    +0.054 C 
ATOM     11  C   UNL     1      36.088 -23.673 -12.160  0.00  0.00    +0.005 C 
ATOM     12  C   UNL     1      36.229 -25.605 -13.602  0.00  0.00    +0.005 C 
ATOM     13  C   UNL     1      37.410 -23.872 -11.763  0.00  0.00    +0.000 C 
ATOM     14  C   UNL     1      37.551 -25.805 -13.204  0.00  0.00    +0.000 C 
ATOM     15  C   UNL     1      38.142 -24.938 -12.285  0.00  0.00    +0.000 C 
ENDBRANCH   9  10
ENDBRANCH   1   4
BRANCH   1  16
ATOM     16  C   UNL     1      33.767 -22.027 -19.723  0.00  0.00    +0.002 C 
BRANCH  16  17
ATOM     17  C   UNL     1      35.262 -22.138 -20.021  0.00  0.00    +0.021 C 
BRANCH  17  18
ATOM     18  C   UNL     1      35.946 -20.779 -19.937  0.00  0.00    +0.090 C 
BRANCH  18  20
ATOM     19  O   UNL     1      37.566 -18.862 -21.385  0.00  0.00    -0.270 OA
ATOM     20  N   UNL     1      35.524 -19.907 -21.000  0.00  0.00    -0.301 N 
ATOM     21  C   UNL     1      36.376 -19.016 -21.639  0.00  0.00    +0.246 C 
ATOM     22  H   UNL     1      34.584 -19.946 -21.288  0.00  0.00    +0.150 HD
BRANCH  21  23
ATOM     23  C   UNL     1      35.677 -18.237 -22.702  0.00  0.00    +0.058 C 
ATOM     24  C   UNL     1      35.330 -16.962 -22.479  0.00  0.00    +0.006 C 
BRANCH  24  26
ATOM     25  N   UNL     1      33.757 -15.804 -25.686  0.00  0.00    -0.242 NA
ATOM     26  C   UNL     1      34.646 -16.098 -23.457  0.00  0.00    +0.019 C 
ATOM     27  C   UNL     1      34.247 -14.809 -23.120  0.00  0.00    +0.003 C 
ATOM     28  C   UNL     1      34.380 -16.544 -24.741  0.00  0.00    +0.099 C 
ATOM     29  C   UNL     1      33.605 -14.017 -24.065  0.00  0.00    +0.021 C 
ATOM     30  C   UNL     1      33.385 -14.556 -25.322  0.00  0.00    +0.099 C 
ENDBRANCH  24  26
ENDBRANCH  21  23
ENDBRANCH  18  20
ENDBRANCH  17  18
ENDBRANCH  16  17
ENDBRANCH   1  16
TORSDOF 8
ENDMDL
MODEL 7
REMARK VINA RESULT:     -10.5      2.531      4.182
REMARK  Name = 6914657
REMARK  8 active torsions:
REMARK  status: ('A' for Active; 'I' for Inactive)
REMARK    1  A    between atoms: C_1  and  C_4
REMARK    2  A    between atoms: C_1  and  C_16
REMARK    3  A    between atoms: C_9  and  C_10
REMARK    4  A    between atoms: C_16  and  C_17
REMARK    5  A    between atoms: C_17  and  C_18
REMARK    6  A    between atoms: C_18  and  N_20
REMARK    7  A    between atoms: C_21  and  C_23
REMARK    8  A    between atoms: C_24  and  C_26
REMARK                            x       y       z     vdW  Elec       q    Type
REMARK                         _______ _______ _______ _____ _____    ______ ____
ROOT
ATOM      1  C   UNL     1      34.774 -10.986 -26.982  0.00  0.00    +0.000 C 
ENDROOT
BRANCH   1   4
ATOM      2  O   UNL     1      30.332  -8.187 -23.636  0.00  0.00    -0.270 OA
ATOM      3  N   UNL     1      32.560  -8.766 -24.047  0.00  0.00    -0.276 N 
ATOM      4  C   UNL     1      34.375  -9.877 -26.011  0.00  0.00    +0.003 C 
ATOM      5  C   UNL     1      34.316 -10.409 -24.569  0.00  0.00    +0.022 C 
ATOM      6  C   UNL     1      33.024  -9.262 -26.410  0.00  0.00    +0.022 C 
ATOM      7  C   UNL     1      33.843  -9.325 -23.603  0.00  0.00    +0.094 C 
ATOM      8  C   UNL     1      32.573  -8.209 -25.399  0.00  0.00    +0.094 C 
ATOM      9  C   UNL     1      31.395  -8.693 -23.279  0.00  0.00    +0.249 C 
BRANCH   9  10
ATOM     10  C   UNL     1      31.415  -9.274 -21.932  0.00  0.00    +0.054 C 
ATOM     11  C   UNL     1      31.202 -10.642 -21.758  0.00  0.00    +0.005 C 
ATOM     12  C   UNL     1      31.646  -8.459 -20.824  0.00  0.00    +0.005 C 
ATOM     13  C   UNL     1      31.221 -11.194 -20.478  0.00  0.00    +0.000 C 
ATOM     14  C   UNL     1      31.666  -9.012 -19.543  0.00  0.00    +0.000 C 
ATOM     15  C   UNL     1      31.453 -10.380 -19.370  0.00  0.00    +0.000 C 
ENDBRANCH   9  10
ENDBRANCH   1   4
BRANCH   1  16
ATOM     16  C   UNL     1      33.610 -11.937 -27.244  0.00  0.00    +0.002 C 
BRANCH  16  17
ATOM     17  C   UNL     1      33.908 -13.334 -26.701  0.00  0.00    +0.021 C 
BRANCH  17  18
ATOM     18  C   UNL     1      33.098 -13.626 -25.444  0.00  0.00    +0.090 C 
BRANCH  18  20
ATOM     19  O   UNL     1      33.495 -16.478 -25.764  0.00  0.00    -0.270 OA
ATOM     20  N   UNL     1      33.799 -14.514 -24.556  0.00  0.00    -0.301 N 
ATOM     21  C   UNL     1      33.940 -15.875 -24.793  0.00  0.00    +0.246 C 
ATOM     22  H   UNL     1      34.200 -14.137 -23.740  0.00  0.00    +0.150 HD
BRANCH  21  23
ATOM     23  C   UNL     1      34.712 -16.554 -23.713  0.00  0.00    +0.058 C 
ATOM     24  C   UNL     1      34.556 -17.869 -23.503  0.00  0.00    +0.006 C 
BRANCH  24  26
ATOM     25  N   UNL     1      37.321 -19.072 -21.266  0.00  0.00    -0.242 NA
ATOM     26  C   UNL     1      35.271 -18.643 -22.474  0.00  0.00    +0.019 C 
ATOM     27  C   UNL     1      34.628 -19.642 -21.751  0.00  0.00    +0.003 C 
ATOM     28  C   UNL     1      36.606 -18.399 -22.196  0.00  0.00    +0.099 C 
ATOM     29  C   UNL     1      35.330 -20.356 -20.787  0.00  0.00    +0.021 C 
ATOM     30  C   UNL     1      36.662 -20.036 -20.584  0.00  0.00    +0.099 C 
ENDBRANCH  24  26
ENDBRANCH  21  23
ENDBRANCH  18  20
ENDBRANCH  17  18
ENDBRANCH  16  17
ENDBRANCH   1  16
TORSDOF 8
ENDMDL
MODEL 8
REMARK VINA RESULT:     -10.4      1.292      1.972
REMARK  Name = 6914657
REMARK  8 active torsions:
REMARK  status: ('A' for Active; 'I' for Inactive)
REMARK    1  A    between atoms: C_1  and  C_4
REMARK    2  A    between atoms: C_1  and  C_16
REMARK    3  A    between atoms: C_9  and  C_10
REMARK    4  A    between atoms: C_16  and  C_17
REMARK    5  A    between atoms: C_17  and  C_18
REMARK    6  A    between atoms: C_18  and  N_20
REMARK    7  A    between atoms: C_21  and  C_23
REMARK    8  A    between atoms: C_24  and  C_26
REMARK                            x       y       z     vdW  Elec       q    Type
REMARK                         _______ _______ _______ _____ _____    ______ ____
ROOT
ATOM      1  C   UNL     1      33.583 -14.328 -22.559  0.00  0.00    +0.000 C 
ENDROOT
BRANCH   1   4
ATOM      2  O   UNL     1      31.773  -8.512 -21.268  0.00  0.00    -0.270 OA
ATOM      3  N   UNL     1      32.132 -10.289 -22.744  0.00  0.00    -0.276 N 
ATOM      4  C   UNL     1      32.719 -13.121 -22.915  0.00  0.00    +0.003 C 
ATOM      5  C   UNL     1      33.534 -12.075 -23.694  0.00  0.00    +0.022 C 
ATOM      6  C   UNL     1      32.111 -12.491 -21.651  0.00  0.00    +0.022 C 
ATOM      7  C   UNL     1      32.698 -10.832 -23.986  0.00  0.00    +0.094 C 
ATOM      8  C   UNL     1      31.313 -11.233 -21.985  0.00  0.00    +0.094 C 
ATOM      9  C   UNL     1      32.281  -8.978 -22.286  0.00  0.00    +0.249 C 
BRANCH   9  10
ATOM     10  C   UNL     1      33.122  -8.063 -23.067  0.00  0.00    +0.054 C 
ATOM     11  C   UNL     1      32.665  -6.778 -23.364  0.00  0.00    +0.005 C 
ATOM     12  C   UNL     1      34.377  -8.476 -23.514  0.00  0.00    +0.005 C 
ATOM     13  C   UNL     1      33.464  -5.908 -24.106  0.00  0.00    +0.000 C 
ATOM     14  C   UNL     1      35.176  -7.606 -24.255  0.00  0.00    +0.000 C 
ATOM     15  C   UNL     1      34.718  -6.322 -24.552  0.00  0.00    +0.000 C 
ENDBRANCH   9  10
ENDBRANCH   1   4
BRANCH   1  16
ATOM     16  C   UNL     1      34.546 -14.672 -23.692  0.00  0.00    +0.002 C 
BRANCH  16  17
ATOM     17  C   UNL     1      33.857 -15.520 -24.761  0.00  0.00    +0.021 C 
BRANCH  17  18
ATOM     18  C   UNL     1      34.605 -16.826 -25.001  0.00  0.00    +0.090 C 
BRANCH  18  20
ATOM     19  O   UNL     1      36.251 -17.947 -22.896  0.00  0.00    -0.270 OA
ATOM     20  N   UNL     1      34.232 -17.833 -24.045  0.00  0.00    -0.301 N 
ATOM     21  C   UNL     1      35.092 -18.312 -23.065  0.00  0.00    +0.246 C 
ATOM     22  H   UNL     1      33.319 -18.200 -24.086  0.00  0.00    +0.150 HD
BRANCH  21  23
ATOM     23  C   UNL     1      34.446 -19.349 -22.210  0.00  0.00    +0.058 C 
ATOM     24  C   UNL     1      35.110 -19.866 -21.167  0.00  0.00    +0.006 C 
BRANCH  24  26
ATOM     25  N   UNL     1      34.981 -22.668 -18.670  0.00  0.00    -0.242 NA
ATOM     26  C   UNL     1      34.569 -20.886 -20.252  0.00  0.00    +0.019 C 
ATOM     27  C   UNL     1      33.198 -21.049 -20.090  0.00  0.00    +0.003 C 
ATOM     28  C   UNL     1      35.411 -21.713 -19.526  0.00  0.00    +0.099 C 
ATOM     29  C   UNL     1      32.717 -22.021 -19.220  0.00  0.00    +0.021 C 
ATOM     30  C   UNL     1      33.641 -22.797 -18.540  0.00  0.00    +0.099 C 
ENDBRANCH  24  26
ENDBRANCH  21  23
ENDBRANCH  18  20
ENDBRANCH  17  18
ENDBRANCH  16  17
ENDBRANCH   1  16
TORSDOF 8
ENDMDL
MODEL 9
REMARK VINA RESULT:     -10.4      1.736      2.392
REMARK  Name = 6914657
REMARK  8 active torsions:
REMARK  status: ('A' for Active; 'I' for Inactive)
REMARK    1  A    between atoms: C_1  and  C_4
REMARK    2  A    between atoms: C_1  and  C_16
REMARK    3  A    between atoms: C_9  and  C_10
REMARK    4  A    between atoms: C_16  and  C_17
REMARK    5  A    between atoms: C_17  and  C_18
REMARK    6  A    between atoms: C_18  and  N_20
REMARK    7  A    between atoms: C_21  and  C_23
REMARK    8  A    between atoms: C_24  and  C_26
REMARK                            x       y       z     vdW  Elec       q    Type
REMARK                         _______ _______ _______ _____ _____    ______ ____
ROOT
ATOM      1  C   UNL     1      33.950 -12.431 -24.842  0.00  0.00    +0.000 C 
ENDROOT
BRANCH   1   4
ATOM      2  O   UNL     1      33.357  -6.675 -22.544  0.00  0.00    -0.270 OA
ATOM      3  N   UNL     1      32.883  -8.332 -24.123  0.00  0.00    -0.276 N 
ATOM      4  C   UNL     1      33.113 -11.161 -24.701  0.00  0.00    +0.003 C 
ATOM      5  C   UNL     1      33.574 -10.089 -25.702  0.00  0.00    +0.022 C 
ATOM      6  C   UNL     1      33.182 -10.617 -23.265  0.00  0.00    +0.022 C 
ATOM      7  C   UNL     1      32.793  -8.790 -25.515  0.00  0.00    +0.094 C 
ATOM      8  C   UNL     1      32.418  -9.301 -23.131  0.00  0.00    +0.094 C 
ATOM      9  C   UNL     1      33.320  -7.073 -23.706  0.00  0.00    +0.249 C 
BRANCH   9  10
ATOM     10  C   UNL     1      33.793  -6.131 -24.728  0.00  0.00    +0.054 C 
ATOM     11  C   UNL     1      35.057  -6.294 -25.297  0.00  0.00    +0.005 C 
ATOM     12  C   UNL     1      32.979  -5.072 -25.131  0.00  0.00    +0.005 C 
ATOM     13  C   UNL     1      35.506  -5.399 -26.267  0.00  0.00    +0.000 C 
ATOM     14  C   UNL     1      33.428  -4.177 -26.102  0.00  0.00    +0.000 C 
ATOM     15  C   UNL     1      34.692  -4.341 -26.670  0.00  0.00    +0.000 C 
ENDBRANCH   9  10
ENDBRANCH   1   4
BRANCH   1  16
ATOM     16  C   UNL     1      33.518 -13.491 -23.833  0.00  0.00    +0.002 C 
BRANCH  16  17
ATOM     17  C   UNL     1      33.676 -14.897 -24.411  0.00  0.00    +0.021 C 
BRANCH  17  18
ATOM     18  C   UNL     1      34.927 -15.581 -23.872  0.00  0.00    +0.090 C 
BRANCH  18  20
ATOM     19  O   UNL     1      34.407 -18.074 -25.254  0.00  0.00    -0.270 OA
ATOM     20  N   UNL     1      34.621 -16.857 -23.284  0.00  0.00    -0.301 N 
ATOM     21  C   UNL     1      34.385 -18.005 -24.029  0.00  0.00    +0.246 C 
ATOM     22  H   UNL     1      34.578 -16.919 -22.302  0.00  0.00    +0.150 HD
BRANCH  21  23
ATOM     23  C   UNL     1      34.094 -19.184 -23.165  0.00  0.00    +0.058 C 
ATOM     24  C   UNL     1      34.446 -19.170 -21.872  0.00  0.00    +0.006 C 
BRANCH  24  26
ATOM     25  N   UNL     1      32.616 -21.650 -19.726  0.00  0.00    -0.242 NA
ATOM     26  C   UNL     1      34.201 -20.272 -20.925  0.00  0.00    +0.019 C 
ATOM     27  C   UNL     1      35.255 -20.968 -20.344  0.00  0.00    +0.003 C 
ATOM     28  C   UNL     1      32.911 -20.649 -20.587  0.00  0.00    +0.099 C 
ATOM     29  C   UNL     1      34.992 -22.002 -19.454  0.00  0.00    +0.021 C 
ATOM     30  C   UNL     1      33.668 -22.302 -19.181  0.00  0.00    +0.099 C 
ENDBRANCH  24  26
ENDBRANCH  21  23
ENDBRANCH  18  20
ENDBRANCH  17  18
ENDBRANCH  16  17
ENDBRANCH   1  16
TORSDOF 8
ENDMDL
