MODEL 1
REMARK VINA RESULT:     -11.1      0.000      0.000
REMARK  Name = 2765355
REMARK  2 active torsions:
REMARK  status: ('A' for Active; 'I' for Inactive)
REMARK    1  A    between atoms: C_4  and  C_20
REMARK    2  A    between atoms: C_6  and  C_13
REMARK                            x       y       z     vdW  Elec       q    Type
REMARK                         _______ _______ _______ _____ _____    ______ ____
ROOT
ATOM      1  O   UNL     1      31.407 -22.754 -17.961  0.00  0.00    -0.353 OA
ATOM      2  N   UNL     1      30.952 -23.453 -16.851  0.00  0.00    -0.077 NA
ATOM      3  C   UNL     1      33.197 -23.178 -16.745  0.00  0.00    +0.058 A 
ATOM      4  C   UNL     1      32.754 -22.592 -17.892  0.00  0.00    +0.177 A 
ATOM      5  C   UNL     1      32.032 -23.721 -16.095  0.00  0.00    +0.123 A 
ATOM      6  C   UNL     1      34.599 -23.914 -15.076  0.00  0.00    +0.031 C 
ATOM      7  C   UNL     1      34.511 -23.230 -16.305  0.00  0.00    +0.007 C 
ATOM      8  C   UNL     1      32.146 -24.400 -14.870  0.00  0.00    +0.023 C 
ATOM      9  C   UNL     1      33.474 -24.473 -14.390  0.00  0.00    +0.004 C 
ENDROOT
BRANCH   6  13
ATOM     10  N   UNL     1      36.855 -24.567 -15.282  0.00  0.00    -0.338 NA
ATOM     11  N   UNL     1      38.411 -24.390 -13.451  0.00  0.00    -0.170 NA
ATOM     12  N   UNL     1      39.092 -25.230 -15.534  0.00  0.00    -0.293 N 
ATOM     13  C   UNL     1      35.908 -24.062 -14.469  0.00  0.00    +0.146 C 
ATOM     14  C   UNL     1      36.124 -23.702 -13.158  0.00  0.00    +0.055 C 
ATOM     15  C   UNL     1      37.411 -23.890 -12.697  0.00  0.00    +0.114 C 
ATOM     16  C   UNL     1      38.068 -24.703 -14.715  0.00  0.00    +0.141 C 
ATOM     17  H   UNL     1      38.898 -25.476 -16.468  0.00  0.00    +0.155 HD
ATOM     18  H   UNL     1      39.998 -25.351 -15.171  0.00  0.00    +0.155 HD
ENDBRANCH   6  13
BRANCH   4  20
ATOM     19 CL   UNL     1      35.207 -19.637 -22.441  0.00  0.00    -0.082 Cl
ATOM     20  C   UNL     1      33.346 -21.881 -18.989  0.00  0.00    +0.037 C 
ATOM     21  C   UNL     1      34.716 -21.991 -19.244  0.00  0.00    +0.004 C 
ATOM     22  C   UNL     1      32.556 -21.070 -19.811  0.00  0.00    +0.004 C 
ATOM     23  C   UNL     1      35.291 -21.299 -20.310  0.00  0.00    +0.011 C 
ATOM     24  C   UNL     1      33.131 -20.378 -20.877  0.00  0.00    +0.011 C 
ATOM     25  C   UNL     1      34.498 -20.491 -21.126  0.00  0.00    +0.058 C 
ENDBRANCH   4  20
TORSDOF 2
ENDMDL
MODEL 2
REMARK VINA RESULT:     -11.1      1.991      5.190
REMARK  Name = 2765355
REMARK  2 active torsions:
REMARK  status: ('A' for Active; 'I' for Inactive)
REMARK    1  A    between atoms: C_4  and  C_20
REMARK    2  A    between atoms: C_6  and  C_13
REMARK                            x       y       z     vdW  Elec       q    Type
REMARK                         _______ _______ _______ _____ _____    ______ ____
ROOT
ATOM      1  O   UNL     1      36.264 -22.749 -17.259  0.00  0.00    -0.353 OA
ATOM      2  N   UNL     1      36.295 -23.496 -16.089  0.00  0.00    -0.077 NA
ATOM      3  C   UNL     1      34.162 -23.228 -16.799  0.00  0.00    +0.058 A 
ATOM      4  C   UNL     1      34.982 -22.592 -17.681  0.00  0.00    +0.177 A 
ATOM      5  C   UNL     1      35.019 -23.799 -15.792  0.00  0.00    +0.123 A 
ATOM      6  C   UNL     1      32.261 -24.042 -15.792  0.00  0.00    +0.031 C 
ATOM      7  C   UNL     1      32.779 -23.303 -16.873  0.00  0.00    +0.007 C 
ATOM      8  C   UNL     1      34.477 -24.532 -14.722  0.00  0.00    +0.023 C 
ATOM      9  C   UNL     1      33.067 -24.629 -14.765  0.00  0.00    +0.004 C 
ENDROOT
BRANCH   6  13
ATOM     10  N   UNL     1      30.108 -23.409 -16.514  0.00  0.00    -0.338 NA
ATOM     11  N   UNL     1      28.112 -24.453 -15.659  0.00  0.00    -0.170 NA
ATOM     12  N   UNL     1      27.985 -22.745 -17.263  0.00  0.00    -0.293 N 
ATOM     13  C   UNL     1      30.823 -24.220 -15.713  0.00  0.00    +0.146 C 
ATOM     14  C   UNL     1      30.273 -25.159 -14.869  0.00  0.00    +0.055 C 
ATOM     15  C   UNL     1      28.895 -25.232 -14.884  0.00  0.00    +0.114 C 
ATOM     16  C   UNL     1      28.774 -23.577 -16.438  0.00  0.00    +0.141 C 
ATOM     17  H   UNL     1      28.417 -22.085 -17.853  0.00  0.00    +0.155 HD
ATOM     18  H   UNL     1      27.005 -22.824 -17.247  0.00  0.00    +0.155 HD
ENDBRANCH   6  13
BRANCH   4  20
ATOM     19 CL   UNL     1      34.305 -19.438 -22.684  0.00  0.00    -0.082 Cl
ATOM     20  C   UNL     1      34.820 -21.832 -18.887  0.00  0.00    +0.037 C 
ATOM     21  C   UNL     1      35.937 -21.322 -19.555  0.00  0.00    +0.004 C 
ATOM     22  C   UNL     1      33.542 -21.595 -19.404  0.00  0.00    +0.004 C 
ATOM     23  C   UNL     1      35.779 -20.583 -20.728  0.00  0.00    +0.011 C 
ATOM     24  C   UNL     1      33.383 -20.857 -20.576  0.00  0.00    +0.011 C 
ATOM     25  C   UNL     1      34.501 -20.350 -21.238  0.00  0.00    +0.058 C 
ENDBRANCH   4  20
TORSDOF 2
ENDMDL
MODEL 3
REMARK VINA RESULT:     -10.9      2.082      5.256
REMARK  Name = 2765355
REMARK  2 active torsions:
REMARK  status: ('A' for Active; 'I' for Inactive)
REMARK    1  A    between atoms: C_4  and  C_20
REMARK    2  A    between atoms: C_6  and  C_13
REMARK                            x       y       z     vdW  Elec       q    Type
REMARK                         _______ _______ _______ _____ _____    ______ ____
ROOT
ATOM      1  O   UNL     1      36.354 -22.688 -17.403  0.00  0.00    -0.353 OA
ATOM      2  N   UNL     1      36.323 -23.439 -16.236  0.00  0.00    -0.077 NA
ATOM      3  C   UNL     1      34.221 -23.050 -16.979  0.00  0.00    +0.058 A 
ATOM      4  C   UNL     1      35.090 -22.457 -17.844  0.00  0.00    +0.177 A 
ATOM      5  C   UNL     1      35.027 -23.672 -15.961  0.00  0.00    +0.123 A 
ATOM      6  C   UNL     1      32.261 -23.760 -16.006  0.00  0.00    +0.031 C 
ATOM      7  C   UNL     1      32.837 -23.047 -17.075  0.00  0.00    +0.007 C 
ATOM      8  C   UNL     1      34.428 -24.376 -14.902  0.00  0.00    +0.023 C 
ATOM      9  C   UNL     1      33.016 -24.394 -14.969  0.00  0.00    +0.004 C 
ENDROOT
BRANCH   6  13
ATOM     10  N   UNL     1      30.344 -24.896 -15.235  0.00  0.00    -0.338 NA
ATOM     11  N   UNL     1      28.115 -24.154 -15.768  0.00  0.00    -0.170 NA
ATOM     12  N   UNL     1      28.466 -26.061 -14.445  0.00  0.00    -0.293 N 
ATOM     13  C   UNL     1      30.815 -23.858 -15.950  0.00  0.00    +0.146 C 
ATOM     14  C   UNL     1      30.019 -22.937 -16.595  0.00  0.00    +0.055 C 
ATOM     15  C   UNL     1      28.660 -23.138 -16.468  0.00  0.00    +0.114 C 
ATOM     16  C   UNL     1      29.002 -24.984 -15.186  0.00  0.00    +0.141 C 
ATOM     17  H   UNL     1      29.069 -26.698 -13.998  0.00  0.00    +0.155 HD
ATOM     18  H   UNL     1      27.491 -26.173 -14.376  0.00  0.00    +0.155 HD
ENDBRANCH   6  13
BRANCH   4  20
ATOM     19 CL   UNL     1      34.676 -19.260 -22.849  0.00  0.00    -0.082 Cl
ATOM     20  C   UNL     1      34.989 -21.686 -19.050  0.00  0.00    +0.037 C 
ATOM     21  C   UNL     1      33.741 -21.445 -19.631  0.00  0.00    +0.004 C 
ATOM     22  C   UNL     1      36.140 -21.170 -19.654  0.00  0.00    +0.004 C 
ATOM     23  C   UNL     1      33.643 -20.695 -20.804  0.00  0.00    +0.011 C 
ATOM     24  C   UNL     1      36.044 -20.421 -20.826  0.00  0.00    +0.011 C 
ATOM     25  C   UNL     1      34.796 -20.184 -21.402  0.00  0.00    +0.058 C 
ENDBRANCH   4  20
TORSDOF 2
ENDMDL
MODEL 4
REMARK VINA RESULT:     -10.8      0.930      1.807
REMARK  Name = 2765355
REMARK  2 active torsions:
REMARK  status: ('A' for Active; 'I' for Inactive)
REMARK    1  A    between atoms: C_4  and  C_20
REMARK    2  A    between atoms: C_6  and  C_13
REMARK                            x       y       z     vdW  Elec       q    Type
REMARK                         _______ _______ _______ _____ _____    ______ ____
ROOT
ATOM      1  O   UNL     1      31.762 -22.481 -18.433  0.00  0.00    -0.353 OA
ATOM      2  N   UNL     1      31.207 -23.207 -17.388  0.00  0.00    -0.077 NA
ATOM      3  C   UNL     1      33.440 -22.982 -17.094  0.00  0.00    +0.058 A 
ATOM      4  C   UNL     1      33.102 -22.350 -18.252  0.00  0.00    +0.177 A 
ATOM      5  C   UNL     1      32.217 -23.521 -16.558  0.00  0.00    +0.123 A 
ATOM      6  C   UNL     1      34.690 -23.802 -15.346  0.00  0.00    +0.031 C 
ATOM      7  C   UNL     1      34.714 -23.077 -16.553  0.00  0.00    +0.007 C 
ATOM      8  C   UNL     1      32.221 -24.243 -15.352  0.00  0.00    +0.023 C 
ATOM      9  C   UNL     1      33.504 -24.360 -14.771  0.00  0.00    +0.004 C 
ENDROOT
BRANCH   6  13
ATOM     10  N   UNL     1      36.009 -23.415 -13.430  0.00  0.00    -0.338 NA
ATOM     11  N   UNL     1      38.245 -24.288 -13.216  0.00  0.00    -0.170 NA
ATOM     12  N   UNL     1      37.285 -23.002 -11.504  0.00  0.00    -0.293 N 
ATOM     13  C   UNL     1      35.944 -23.998 -14.642  0.00  0.00    +0.146 C 
ATOM     14  C   UNL     1      36.964 -24.730 -15.205  0.00  0.00    +0.055 C 
ATOM     15  C   UNL     1      38.105 -24.844 -14.438  0.00  0.00    +0.114 C 
ATOM     16  C   UNL     1      37.174 -23.598 -12.780  0.00  0.00    +0.141 C 
ATOM     17  H   UNL     1      36.532 -22.485 -11.135  0.00  0.00    +0.155 HD
ATOM     18  H   UNL     1      38.114 -23.103 -10.984  0.00  0.00    +0.155 HD
ENDBRANCH   6  13
BRANCH   4  20
ATOM     19 CL   UNL     1      35.968 -19.307 -22.491  0.00  0.00    -0.082 Cl
ATOM     20  C   UNL     1      33.793 -21.615 -19.273  0.00  0.00    +0.037 C 
ATOM     21  C   UNL     1      33.081 -20.799 -20.158  0.00  0.00    +0.004 C 
ATOM     22  C   UNL     1      35.183 -21.712 -19.393  0.00  0.00    +0.004 C 
ATOM     23  C   UNL     1      33.753 -20.085 -21.151  0.00  0.00    +0.011 C 
ATOM     24  C   UNL     1      35.854 -20.999 -20.385  0.00  0.00    +0.011 C 
ATOM     25  C   UNL     1      35.140 -20.186 -21.265  0.00  0.00    +0.058 C 
ENDBRANCH   4  20
TORSDOF 2
ENDMDL
MODEL 5
REMARK VINA RESULT:     -10.6      2.783      6.132
REMARK  Name = 2765355
REMARK  2 active torsions:
REMARK  status: ('A' for Active; 'I' for Inactive)
REMARK    1  A    between atoms: C_4  and  C_20
REMARK    2  A    between atoms: C_6  and  C_13
REMARK                            x       y       z     vdW  Elec       q    Type
REMARK                         _______ _______ _______ _____ _____    ______ ____
ROOT
ATOM      1  O   UNL     1      34.612 -23.503 -17.254  0.00  0.00    -0.353 OA
ATOM      2  N   UNL     1      34.244 -24.266 -16.154  0.00  0.00    -0.077 NA
ATOM      3  C   UNL     1      32.445 -23.184 -17.001  0.00  0.00    +0.058 A 
ATOM      4  C   UNL     1      33.529 -22.856 -17.758  0.00  0.00    +0.177 A 
ATOM      5  C   UNL     1      32.922 -24.085 -15.984  0.00  0.00    +0.123 A 
ATOM      6  C   UNL     1      30.284 -23.279 -16.217  0.00  0.00    +0.031 C 
ATOM      7  C   UNL     1      31.147 -22.733 -17.187  0.00  0.00    +0.007 C 
ATOM      8  C   UNL     1      32.041 -24.616 -15.026  0.00  0.00    +0.023 C 
ATOM      9  C   UNL     1      30.707 -24.177 -15.186  0.00  0.00    +0.004 C 
ENDROOT
BRANCH   6  13
ATOM     10  N   UNL     1      28.368 -22.798 -17.504  0.00  0.00    -0.338 NA
ATOM     11  N   UNL     1      26.258 -22.223 -16.493  0.00  0.00    -0.170 NA
ATOM     12  N   UNL     1      26.488 -22.326 -18.827  0.00  0.00    -0.293 N 
ATOM     13  C   UNL     1      28.882 -22.911 -16.265  0.00  0.00    +0.146 C 
ATOM     14  C   UNL     1      28.167 -22.701 -15.107  0.00  0.00    +0.055 C 
ATOM     15  C   UNL     1      26.842 -22.355 -15.285  0.00  0.00    +0.114 C 
ATOM     16  C   UNL     1      27.067 -22.456 -17.544  0.00  0.00    +0.141 C 
ATOM     17  H   UNL     1      27.033 -22.485 -19.631  0.00  0.00    +0.155 HD
ATOM     18  H   UNL     1      25.540 -22.078 -18.915  0.00  0.00    +0.155 HD
ENDBRANCH   6  13
BRANCH   4  20
ATOM     19 CL   UNL     1      34.580 -19.424 -22.507  0.00  0.00    -0.082 Cl
ATOM     20  C   UNL     1      33.782 -22.030 -18.903  0.00  0.00    +0.037 C 
ATOM     21  C   UNL     1      35.091 -21.832 -19.354  0.00  0.00    +0.004 C 
ATOM     22  C   UNL     1      32.723 -21.414 -19.577  0.00  0.00    +0.004 C 
ATOM     23  C   UNL     1      35.338 -21.028 -20.467  0.00  0.00    +0.011 C 
ATOM     24  C   UNL     1      32.969 -20.611 -20.690  0.00  0.00    +0.011 C 
ATOM     25  C   UNL     1      34.276 -20.416 -21.135  0.00  0.00    +0.058 C 
ENDBRANCH   4  20
TORSDOF 2
ENDMDL
MODEL 6
REMARK VINA RESULT:      -9.9     11.376     14.089
REMARK  Name = 2765355
REMARK  2 active torsions:
REMARK  status: ('A' for Active; 'I' for Inactive)
REMARK    1  A    between atoms: C_4  and  C_20
REMARK    2  A    between atoms: C_6  and  C_13
REMARK                            x       y       z     vdW  Elec       q    Type
REMARK                         _______ _______ _______ _____ _____    ______ ____
ROOT
ATOM      1  O   UNL     1      31.203  -9.263 -20.534  0.00  0.00    -0.353 OA
ATOM      2  N   UNL     1      31.019 -10.436 -19.814  0.00  0.00    -0.077 NA
ATOM      3  C   UNL     1      31.985 -10.880 -21.812  0.00  0.00    +0.058 A 
ATOM      4  C   UNL     1      31.782  -9.536 -21.732  0.00  0.00    +0.177 A 
ATOM      5  C   UNL     1      31.493 -11.436 -20.579  0.00  0.00    +0.123 A 
ATOM      6  C   UNL     1      32.608 -12.944 -22.614  0.00  0.00    +0.031 C 
ATOM      7  C   UNL     1      32.556 -11.561 -22.877  0.00  0.00    +0.007 C 
ATOM      8  C   UNL     1      31.555 -12.820 -20.341  0.00  0.00    +0.023 C 
ATOM      9  C   UNL     1      32.132 -13.547 -21.406  0.00  0.00    +0.004 C 
ENDROOT
BRANCH   6  13
ATOM     10  N   UNL     1      33.973 -14.790 -23.154  0.00  0.00    -0.338 NA
ATOM     11  N   UNL     1      34.313 -15.508 -25.429  0.00  0.00    -0.170 NA
ATOM     12  N   UNL     1      35.341 -16.632 -23.643  0.00  0.00    -0.293 N 
ATOM     13  C   UNL     1      33.179 -13.811 -23.628  0.00  0.00    +0.146 C 
ATOM     14  C   UNL     1      32.904 -13.614 -24.962  0.00  0.00    +0.055 C 
ATOM     15  C   UNL     1      33.506 -14.504 -25.828  0.00  0.00    +0.114 C 
ATOM     16  C   UNL     1      34.501 -15.592 -24.098  0.00  0.00    +0.141 C 
ATOM     17  H   UNL     1      35.513 -16.741 -22.680  0.00  0.00    +0.155 HD
ATOM     18  H   UNL     1      35.754 -17.249 -24.290  0.00  0.00    +0.155 HD
ENDBRANCH   6  13
BRANCH   4  20
ATOM     19 CL   UNL     1      32.788  -4.817 -25.220  0.00  0.00    -0.082 Cl
ATOM     20  C   UNL     1      32.024  -8.398 -22.573  0.00  0.00    +0.037 C 
ATOM     21  C   UNL     1      31.113  -8.057 -23.577  0.00  0.00    +0.004 C 
ATOM     22  C   UNL     1      33.174  -7.622 -22.394  0.00  0.00    +0.004 C 
ATOM     23  C   UNL     1      31.348  -6.951 -24.394  0.00  0.00    +0.011 C 
ATOM     24  C   UNL     1      33.409  -6.516 -23.211  0.00  0.00    +0.011 C 
ATOM     25  C   UNL     1      32.497  -6.181 -24.212  0.00  0.00    +0.058 C 
ENDBRANCH   4  20
TORSDOF 2
ENDMDL
MODEL 7
REMARK VINA RESULT:      -9.7      3.596      6.816
REMARK  Name = 2765355
REMARK  2 active torsions:
REMARK  status: ('A' for Active; 'I' for Inactive)
REMARK    1  A    between atoms: C_4  and  C_20
REMARK    2  A    between atoms: C_6  and  C_13
REMARK                            x       y       z     vdW  Elec       q    Type
REMARK                         _______ _______ _______ _____ _____    ______ ____
ROOT
ATOM      1  O   UNL     1      33.552 -25.183 -13.909  0.00  0.00    -0.353 OA
ATOM      2  N   UNL     1      32.255 -24.812 -14.237  0.00  0.00    -0.077 NA
ATOM      3  C   UNL     1      33.718 -24.007 -15.766  0.00  0.00    +0.058 A 
ATOM      4  C   UNL     1      34.425 -24.697 -14.829  0.00  0.00    +0.177 A 
ATOM      5  C   UNL     1      32.336 -24.093 -15.371  0.00  0.00    +0.123 A 
ATOM      6  C   UNL     1      33.216 -22.749 -17.626  0.00  0.00    +0.031 C 
ATOM      7  C   UNL     1      34.240 -23.358 -16.874  0.00  0.00    +0.007 C 
ATOM      8  C   UNL     1      31.332 -23.476 -16.137  0.00  0.00    +0.023 C 
ATOM      9  C   UNL     1      31.829 -22.804 -17.277  0.00  0.00    +0.004 C 
ENDROOT
BRANCH   6  13
ATOM     10  N   UNL     1      32.560 -21.452 -19.482  0.00  0.00    -0.338 NA
ATOM     11  N   UNL     1      34.150 -20.630 -21.095  0.00  0.00    -0.170 NA
ATOM     12  N   UNL     1      31.861 -20.165 -21.315  0.00  0.00    -0.293 N 
ATOM     13  C   UNL     1      33.587 -22.023 -18.825  0.00  0.00    +0.146 C 
ATOM     14  C   UNL     1      34.902 -21.948 -19.227  0.00  0.00    +0.055 C 
ATOM     15  C   UNL     1      35.127 -21.230 -20.384  0.00  0.00    +0.114 C 
ATOM     16  C   UNL     1      32.909 -20.780 -20.595  0.00  0.00    +0.141 C 
ATOM     17  H   UNL     1      30.932 -20.241 -20.995  0.00  0.00    +0.155 HD
ATOM     18  H   UNL     1      32.058 -19.660 -22.136  0.00  0.00    +0.155 HD
ENDBRANCH   6  13
BRANCH   4  20
ATOM     19 CL   UNL     1      40.149 -26.018 -13.860  0.00  0.00    -0.082 Cl
ATOM     20  C   UNL     1      35.805 -25.015 -14.597  0.00  0.00    +0.037 C 
ATOM     21  C   UNL     1      36.383 -26.133 -15.206  0.00  0.00    +0.004 C 
ATOM     22  C   UNL     1      36.582 -24.210 -13.758  0.00  0.00    +0.004 C 
ATOM     23  C   UNL     1      37.725 -26.443 -14.979  0.00  0.00    +0.011 C 
ATOM     24  C   UNL     1      37.923 -24.519 -13.531  0.00  0.00    +0.011 C 
ATOM     25  C   UNL     1      38.495 -25.636 -14.141  0.00  0.00    +0.058 C 
ENDBRANCH   4  20
TORSDOF 2
ENDMDL
MODEL 8
REMARK VINA RESULT:      -9.7      3.939      6.687
REMARK  Name = 2765355
REMARK  2 active torsions:
REMARK  status: ('A' for Active; 'I' for Inactive)
REMARK    1  A    between atoms: C_4  and  C_20
REMARK    2  A    between atoms: C_6  and  C_13
REMARK                            x       y       z     vdW  Elec       q    Type
REMARK                         _______ _______ _______ _____ _____    ______ ____
ROOT
ATOM      1  O   UNL     1      35.113 -24.377 -14.177  0.00  0.00    -0.353 OA
ATOM      2  N   UNL     1      36.437 -24.020 -14.395  0.00  0.00    -0.077 NA
ATOM      3  C   UNL     1      35.125 -23.248 -16.071  0.00  0.00    +0.058 A 
ATOM      4  C   UNL     1      34.330 -23.912 -15.185  0.00  0.00    +0.177 A 
ATOM      5  C   UNL     1      36.464 -23.328 -15.548  0.00  0.00    +0.123 A 
ATOM      6  C   UNL     1      35.801 -22.037 -17.906  0.00  0.00    +0.031 C 
ATOM      7  C   UNL     1      34.709 -22.624 -17.237  0.00  0.00    +0.007 C 
ATOM      8  C   UNL     1      37.538 -22.735 -16.235  0.00  0.00    +0.023 C 
ATOM      9  C   UNL     1      37.150 -22.088 -17.431  0.00  0.00    +0.004 C 
ENDROOT
BRANCH   6  13
ATOM     10  N   UNL     1      36.556 -20.563 -19.584  0.00  0.00    -0.338 NA
ATOM     11  N   UNL     1      35.190 -19.971 -21.478  0.00  0.00    -0.170 NA
ATOM     12  N   UNL     1      37.351 -19.090 -21.229  0.00  0.00    -0.293 N 
ATOM     13  C   UNL     1      35.544 -21.338 -19.151  0.00  0.00    +0.146 C 
ATOM     14  C   UNL     1      34.344 -21.485 -19.808  0.00  0.00    +0.055 C 
ATOM     15  C   UNL     1      34.221 -20.768 -20.982  0.00  0.00    +0.114 C 
ATOM     16  C   UNL     1      36.314 -19.916 -20.739  0.00  0.00    +0.141 C 
ATOM     17  H   UNL     1      38.196 -19.012 -20.729  0.00  0.00    +0.155 HD
ATOM     18  H   UNL     1      37.228 -18.594 -22.070  0.00  0.00    +0.155 HD
ENDBRANCH   6  13
BRANCH   4  20
ATOM     19 CL   UNL     1      28.535 -25.192 -14.722  0.00  0.00    -0.082 Cl
ATOM     20  C   UNL     1      32.933 -24.220 -15.072  0.00  0.00    +0.037 C 
ATOM     21  C   UNL     1      32.470 -25.017 -14.022  0.00  0.00    +0.004 C 
ATOM     22  C   UNL     1      32.025 -23.726 -16.015  0.00  0.00    +0.004 C 
ATOM     23  C   UNL     1      31.111 -25.316 -13.912  0.00  0.00    +0.011 C 
ATOM     24  C   UNL     1      30.667 -24.026 -15.906  0.00  0.00    +0.011 C 
ATOM     25  C   UNL     1      30.210 -24.821 -14.856  0.00  0.00    +0.058 C 
ENDBRANCH   4  20
TORSDOF 2
ENDMDL
MODEL 9
REMARK VINA RESULT:      -9.5      3.710      7.240
REMARK  Name = 2765355
REMARK  2 active torsions:
REMARK  status: ('A' for Active; 'I' for Inactive)
REMARK    1  A    between atoms: C_4  and  C_20
REMARK    2  A    between atoms: C_6  and  C_13
REMARK                            x       y       z     vdW  Elec       q    Type
REMARK                         _______ _______ _______ _____ _____    ______ ____
ROOT
ATOM      1  O   UNL     1      36.264 -22.747 -17.543  0.00  0.00    -0.353 OA
ATOM      2  N   UNL     1      35.560 -22.181 -18.598  0.00  0.00    -0.077 NA
ATOM      3  C   UNL     1      34.132 -23.061 -17.078  0.00  0.00    +0.058 A 
ATOM      4  C   UNL     1      35.402 -23.274 -16.634  0.00  0.00    +0.177 A 
ATOM      5  C   UNL     1      34.254 -22.362 -18.331  0.00  0.00    +0.123 A 
ATOM      6  C   UNL     1      31.833 -23.060 -17.183  0.00  0.00    +0.031 C 
ATOM      7  C   UNL     1      32.964 -23.446 -16.436  0.00  0.00    +0.007 C 
ATOM      8  C   UNL     1      33.111 -21.989 -19.058  0.00  0.00    +0.023 C 
ATOM      9  C   UNL     1      31.900 -22.366 -18.433  0.00  0.00    +0.004 C 
ENDROOT
BRANCH   6  13
ATOM     10  N   UNL     1      29.500 -22.725 -17.231  0.00  0.00    -0.338 NA
ATOM     11  N   UNL     1      28.007 -23.906 -15.754  0.00  0.00    -0.170 NA
ATOM     12  N   UNL     1      27.184 -22.358 -17.315  0.00  0.00    -0.293 N 
ATOM     13  C   UNL     1      30.522 -23.386 -16.655  0.00  0.00    +0.146 C 
ATOM     14  C   UNL     1      30.377 -24.306 -15.642  0.00  0.00    +0.055 C 
ATOM     15  C   UNL     1      29.080 -24.529 -15.226  0.00  0.00    +0.114 C 
ATOM     16  C   UNL     1      28.285 -23.030 -16.738  0.00  0.00    +0.141 C 
ATOM     17  H   UNL     1      27.329 -21.706 -18.039  0.00  0.00    +0.155 HD
ATOM     18  H   UNL     1      26.273 -22.542 -16.993  0.00  0.00    +0.155 HD
ENDBRANCH   6  13
BRANCH   4  20
ATOM     19 CL   UNL     1      37.932 -25.835 -11.893  0.00  0.00    -0.082 Cl
ATOM     20  C   UNL     1      36.013 -23.892 -15.492  0.00  0.00    +0.037 C 
ATOM     21  C   UNL     1      36.008 -25.283 -15.357  0.00  0.00    +0.004 C 
ATOM     22  C   UNL     1      36.615 -23.106 -14.505  0.00  0.00    +0.004 C 
ATOM     23  C   UNL     1      36.602 -25.884 -14.246  0.00  0.00    +0.011 C 
ATOM     24  C   UNL     1      37.209 -23.706 -13.394  0.00  0.00    +0.011 C 
ATOM     25  C   UNL     1      37.201 -25.095 -13.264  0.00  0.00    +0.058 C 
ENDBRANCH   4  20
TORSDOF 2
ENDMDL
