MODEL 1
REMARK VINA RESULT:     -11.7      0.000      0.000
REMARK  Name = 16048422
REMARK  11 active torsions:
REMARK  status: ('A' for Active; 'I' for Inactive)
REMARK    1  A    between atoms: C_1  and  C_4
REMARK    2  A    between atoms: C_1  and  N_18
REMARK    3  A    between atoms: C_1  and  C_33
REMARK    4  A    between atoms: N_3  and  C_6
REMARK    5  A    between atoms: C_6  and  C_9
REMARK    6  A    between atoms: C_9  and  C_11
REMARK    7  A    between atoms: C_19  and  C_21
REMARK    8  A    between atoms: C_24  and  C_27
REMARK    9  A    between atoms: C_33  and  C_34
REMARK   10  A    between atoms: C_34  and  C_36
REMARK   11  A    between atoms: C_36  and  O_37
REMARK                            x       y       z     vdW  Elec       q    Type
REMARK                         _______ _______ _______ _____ _____    ______ ____
ROOT
ATOM      1  C   UNL     1      34.480 -24.270 -16.053  0.00  0.00    +0.149 C 
ENDROOT
BRANCH   1   4
ATOM      2  O   UNL     1      33.496 -23.198 -14.121  0.00  0.00    -0.273 OA
ATOM      3  N   UNL     1      32.108 -24.349 -15.584  0.00  0.00    -0.306 N 
ATOM      4  C   UNL     1      33.329 -23.862 -15.143  0.00  0.00    +0.240 C 
ATOM      5  H   UNL     1      32.086 -24.872 -16.419  0.00  0.00    +0.149 HD
BRANCH   3   6
ATOM      6  C   UNL     1      30.866 -24.129 -14.879  0.00  0.00    +0.061 C 
ATOM      7  C   UNL     1      31.008 -24.634 -13.435  0.00  0.00    +0.020 C 
ATOM      8  C   UNL     1      30.601 -22.615 -14.844  0.00  0.00    +0.020 C 
BRANCH   6   9
ATOM      9  C   UNL     1      29.689 -24.818 -15.616  0.00  0.00    +0.044 C 
BRANCH   9  11
ATOM     10  F   UNL     1      25.569 -21.410 -17.414  0.00  0.00    -0.204 F 
ATOM     11  C   UNL     1      28.584 -23.905 -16.098  0.00  0.00    -0.020 C 
ATOM     12  C   UNL     1      27.825 -23.182 -15.177  0.00  0.00    -0.002 C 
ATOM     13  C   UNL     1      28.324 -23.785 -17.463  0.00  0.00    -0.002 C 
ATOM     14  C   UNL     1      26.807 -22.339 -15.622  0.00  0.00    +0.029 C 
ATOM     15  C   UNL     1      27.306 -22.942 -17.908  0.00  0.00    +0.029 C 
ATOM     16  C   UNL     1      26.548 -22.219 -16.987  0.00  0.00    +0.140 C 
ENDBRANCH   9  11
ENDBRANCH   6   9
ENDBRANCH   3   6
ENDBRANCH   1   4
BRANCH   1  18
ATOM     17  O   UNL     1      33.136 -24.275 -18.590  0.00  0.00    -0.270 OA
ATOM     18  N   UNL     1      34.554 -23.248 -17.068  0.00  0.00    -0.295 N 
ATOM     19  C   UNL     1      33.864 -23.339 -18.269  0.00  0.00    +0.246 C 
ATOM     20  H   UNL     1      35.114 -22.456 -16.904  0.00  0.00    +0.150 HD
BRANCH  19  21
ATOM     21  C   UNL     1      34.066 -22.217 -19.221  0.00  0.00    +0.053 C 
ATOM     22  C   UNL     1      35.357 -21.832 -19.581  0.00  0.00    +0.005 C 
ATOM     23  C   UNL     1      32.964 -21.550 -19.756  0.00  0.00    +0.005 C 
ATOM     24  C   UNL     1      34.445 -20.111 -21.010  0.00  0.00    +0.000 C 
ATOM     25  C   UNL     1      35.547 -20.778 -20.475  0.00  0.00    +0.000 C 
ATOM     26  C   UNL     1      33.153 -20.496 -20.651  0.00  0.00    +0.000 C 
BRANCH  24  27
ATOM     27  C   UNL     1      34.641 -19.018 -21.938  0.00  0.00    +0.000 C 
ATOM     28  C   UNL     1      34.391 -19.204 -23.297  0.00  0.00    +0.000 C 
ATOM     29  C   UNL     1      35.079 -17.778 -21.473  0.00  0.00    +0.000 C 
ATOM     30  C   UNL     1      34.578 -18.150 -24.192  0.00  0.00    +0.000 C 
ATOM     31  C   UNL     1      35.267 -16.724 -22.368  0.00  0.00    +0.000 C 
ATOM     32  C   UNL     1      35.017 -16.910 -23.727  0.00  0.00    +0.000 C 
ENDBRANCH  24  27
ENDBRANCH  19  21
ENDBRANCH   1  18
BRANCH   1  33
ATOM     33  C   UNL     1      35.805 -24.368 -15.286  0.00  0.00    +0.041 C 
BRANCH  33  34
ATOM     34  C   UNL     1      36.005 -25.689 -14.541  0.00  0.00    +0.112 C 
BRANCH  34  36
ATOM     35  O   UNL     1      36.408 -27.262 -16.357  0.00  0.00    -0.250 OA
ATOM     36  C   UNL     1      36.790 -26.711 -15.334  0.00  0.00    +0.314 C 
BRANCH  36  37
ATOM     37  O   UNL     1      38.012 -26.934 -14.785  0.00  0.00    -0.480 OA
ATOM     38  H   UNL     1      38.711 -27.263 -15.315  0.00  0.00    +0.295 HD
ENDBRANCH  36  37
ENDBRANCH  34  36
ENDBRANCH  33  34
ENDBRANCH   1  33
TORSDOF 11
ENDMDL
MODEL 2
REMARK VINA RESULT:     -11.6      0.580      1.552
REMARK  Name = 16048422
REMARK  11 active torsions:
REMARK  status: ('A' for Active; 'I' for Inactive)
REMARK    1  A    between atoms: C_1  and  C_4
REMARK    2  A    between atoms: C_1  and  N_18
REMARK    3  A    between atoms: C_1  and  C_33
REMARK    4  A    between atoms: N_3  and  C_6
REMARK    5  A    between atoms: C_6  and  C_9
REMARK    6  A    between atoms: C_9  and  C_11
REMARK    7  A    between atoms: C_19  and  C_21
REMARK    8  A    between atoms: C_24  and  C_27
REMARK    9  A    between atoms: C_33  and  C_34
REMARK   10  A    between atoms: C_34  and  C_36
REMARK   11  A    between atoms: C_36  and  O_37
REMARK                            x       y       z     vdW  Elec       q    Type
REMARK                         _______ _______ _______ _____ _____    ______ ____
ROOT
ATOM      1  C   UNL     1      34.228 -24.060 -15.831  0.00  0.00    +0.149 C 
ENDROOT
BRANCH   1   4
ATOM      2  O   UNL     1      32.827 -22.772 -14.338  0.00  0.00    -0.273 OA
ATOM      3  N   UNL     1      31.931 -24.657 -15.358  0.00  0.00    -0.306 N 
ATOM      4  C   UNL     1      32.934 -23.735 -15.096  0.00  0.00    +0.240 C 
ATOM      5  H   UNL     1      32.124 -25.393 -15.983  0.00  0.00    +0.149 HD
BRANCH   3   6
ATOM      6  C   UNL     1      30.619 -24.590 -14.757  0.00  0.00    +0.061 C 
ATOM      7  C   UNL     1      29.670 -25.536 -15.508  0.00  0.00    +0.020 C 
ATOM      8  C   UNL     1      30.738 -25.069 -13.300  0.00  0.00    +0.020 C 
BRANCH   6   9
ATOM      9  C   UNL     1      30.093 -23.131 -14.753  0.00  0.00    +0.044 C 
BRANCH   9  11
ATOM     10  F   UNL     1      25.583 -22.124 -17.987  0.00  0.00    -0.204 F 
ATOM     11  C   UNL     1      28.884 -22.861 -15.620  0.00  0.00    -0.020 C 
ATOM     12  C   UNL     1      28.963 -23.038 -17.001  0.00  0.00    -0.002 C 
ATOM     13  C   UNL     1      27.690 -22.434 -15.038  0.00  0.00    -0.002 C 
ATOM     14  C   UNL     1      27.847 -22.790 -17.801  0.00  0.00    +0.029 C 
ATOM     15  C   UNL     1      26.575 -22.186 -15.838  0.00  0.00    +0.029 C 
ATOM     16  C   UNL     1      26.654 -22.364 -17.219  0.00  0.00    +0.140 C 
ENDBRANCH   9  11
ENDBRANCH   6   9
ENDBRANCH   3   6
ENDBRANCH   1   4
BRANCH   1  18
ATOM     17  O   UNL     1      33.163 -24.302 -18.486  0.00  0.00    -0.270 OA
ATOM     18  N   UNL     1      34.328 -23.086 -16.890  0.00  0.00    -0.295 N 
ATOM     19  C   UNL     1      33.777 -23.294 -18.147  0.00  0.00    +0.246 C 
ATOM     20  H   UNL     1      34.803 -22.243 -16.716  0.00  0.00    +0.150 HD
BRANCH  19  21
ATOM     21  C   UNL     1      33.990 -22.207 -19.137  0.00  0.00    +0.053 C 
ATOM     22  C   UNL     1      32.896 -21.544 -19.692  0.00  0.00    +0.005 C 
ATOM     23  C   UNL     1      35.285 -21.848 -19.511  0.00  0.00    +0.005 C 
ATOM     24  C   UNL     1      34.391 -20.165 -20.996  0.00  0.00    +0.000 C 
ATOM     25  C   UNL     1      33.096 -20.524 -20.622  0.00  0.00    +0.000 C 
ATOM     26  C   UNL     1      35.486 -20.827 -20.440  0.00  0.00    +0.000 C 
BRANCH  24  27
ATOM     27  C   UNL     1      34.599 -19.107 -21.960  0.00  0.00    +0.000 C 
ATOM     28  C   UNL     1      34.278 -19.312 -23.302  0.00  0.00    +0.000 C 
ATOM     29  C   UNL     1      35.119 -17.880 -21.548  0.00  0.00    +0.000 C 
ATOM     30  C   UNL     1      34.477 -18.291 -24.231  0.00  0.00    +0.000 C 
ATOM     31  C   UNL     1      35.319 -16.859 -22.478  0.00  0.00    +0.000 C 
ATOM     32  C   UNL     1      34.998 -17.065 -23.819  0.00  0.00    +0.000 C 
ENDBRANCH  24  27
ENDBRANCH  19  21
ENDBRANCH   1  18
BRANCH   1  33
ATOM     33  C   UNL     1      35.446 -23.977 -14.903  0.00  0.00    +0.041 C 
BRANCH  33  34
ATOM     34  C   UNL     1      36.683 -24.715 -15.419  0.00  0.00    +0.112 C 
BRANCH  34  36
ATOM     35  O   UNL     1      36.821 -26.667 -13.968  0.00  0.00    -0.250 OA
ATOM     36  C   UNL     1      36.682 -26.191 -15.086  0.00  0.00    +0.314 C 
BRANCH  36  37
ATOM     37  O   UNL     1      36.473 -26.950 -16.193  0.00  0.00    -0.480 OA
ATOM     38  H   UNL     1      35.623 -27.305 -16.365  0.00  0.00    +0.295 HD
ENDBRANCH  36  37
ENDBRANCH  34  36
ENDBRANCH  33  34
ENDBRANCH   1  33
TORSDOF 11
ENDMDL
MODEL 3
REMARK VINA RESULT:     -11.2      3.415      6.799
REMARK  Name = 16048422
REMARK  11 active torsions:
REMARK  status: ('A' for Active; 'I' for Inactive)
REMARK    1  A    between atoms: C_1  and  C_4
REMARK    2  A    between atoms: C_1  and  N_18
REMARK    3  A    between atoms: C_1  and  C_33
REMARK    4  A    between atoms: N_3  and  C_6
REMARK    5  A    between atoms: C_6  and  C_9
REMARK    6  A    between atoms: C_9  and  C_11
REMARK    7  A    between atoms: C_19  and  C_21
REMARK    8  A    between atoms: C_24  and  C_27
REMARK    9  A    between atoms: C_33  and  C_34
REMARK   10  A    between atoms: C_34  and  C_36
REMARK   11  A    between atoms: C_36  and  O_37
REMARK                            x       y       z     vdW  Elec       q    Type
REMARK                         _______ _______ _______ _____ _____    ______ ____
ROOT
ATOM      1  C   UNL     1      31.315 -23.533 -15.548  0.00  0.00    +0.149 C 
ENDROOT
BRANCH   1   4
ATOM      2  O   UNL     1      32.455 -25.269 -14.308  0.00  0.00    -0.273 OA
ATOM      3  N   UNL     1      33.621 -23.333 -14.843  0.00  0.00    -0.306 N 
ATOM      4  C   UNL     1      32.508 -24.161 -14.840  0.00  0.00    +0.240 C 
ATOM      5  H   UNL     1      33.555 -22.463 -15.300  0.00  0.00    +0.149 HD
BRANCH   3   6
ATOM      6  C   UNL     1      34.870 -23.684 -14.207  0.00  0.00    +0.061 C 
ATOM      7  C   UNL     1      35.895 -22.566 -14.454  0.00  0.00    +0.020 C 
ATOM      8  C   UNL     1      34.620 -23.794 -12.694  0.00  0.00    +0.020 C 
BRANCH   6   9
ATOM      9  C   UNL     1      35.379 -25.055 -14.723  0.00  0.00    +0.044 C 
BRANCH   9  11
ATOM     10  F   UNL     1      40.833 -26.166 -13.810  0.00  0.00    -0.204 F 
ATOM     11  C   UNL     1      36.842 -25.353 -14.478  0.00  0.00    -0.020 C 
ATOM     12  C   UNL     1      37.788 -25.054 -15.459  0.00  0.00    -0.002 C 
ATOM     13  C   UNL     1      37.243 -25.927 -13.272  0.00  0.00    -0.002 C 
ATOM     14  C   UNL     1      39.136 -25.328 -15.232  0.00  0.00    +0.029 C 
ATOM     15  C   UNL     1      38.592 -26.201 -13.046  0.00  0.00    +0.029 C 
ATOM     16  C   UNL     1      39.538 -25.902 -14.027  0.00  0.00    +0.140 C 
ENDBRANCH   9  11
ENDBRANCH   6   9
ENDBRANCH   3   6
ENDBRANCH   1   4
BRANCH   1  18
ATOM     17  O   UNL     1      33.140 -24.485 -17.549  0.00  0.00    -0.270 OA
ATOM     18  N   UNL     1      31.868 -22.771 -16.640  0.00  0.00    -0.295 N 
ATOM     19  C   UNL     1      32.747 -23.321 -17.562  0.00  0.00    +0.246 C 
ATOM     20  H   UNL     1      31.614 -21.826 -16.735  0.00  0.00    +0.150 HD
BRANCH  19  21
ATOM     21  C   UNL     1      33.250 -22.397 -18.612  0.00  0.00    +0.053 C 
ATOM     22  C   UNL     1      32.353 -21.621 -19.345  0.00  0.00    +0.005 C 
ATOM     23  C   UNL     1      34.619 -22.306 -18.863  0.00  0.00    +0.005 C 
ATOM     24  C   UNL     1      34.194 -20.663 -20.582  0.00  0.00    +0.000 C 
ATOM     25  C   UNL     1      32.825 -20.754 -20.331  0.00  0.00    +0.000 C 
ATOM     26  C   UNL     1      35.091 -21.439 -19.848  0.00  0.00    +0.000 C 
BRANCH  24  27
ATOM     27  C   UNL     1      34.684 -19.764 -21.604  0.00  0.00    +0.000 C 
ATOM     28  C   UNL     1      33.905 -19.495 -22.729  0.00  0.00    +0.000 C 
ATOM     29  C   UNL     1      35.936 -19.164 -21.464  0.00  0.00    +0.000 C 
ATOM     30  C   UNL     1      34.377 -18.627 -23.714  0.00  0.00    +0.000 C 
ATOM     31  C   UNL     1      36.408 -18.296 -22.449  0.00  0.00    +0.000 C 
ATOM     32  C   UNL     1      35.628 -18.028 -23.574  0.00  0.00    +0.000 C 
ENDBRANCH  24  27
ENDBRANCH  19  21
ENDBRANCH   1  18
BRANCH   1  33
ATOM     33  C   UNL     1      30.338 -24.595 -16.068  0.00  0.00    +0.041 C 
BRANCH  33  34
ATOM     34  C   UNL     1      28.862 -24.247 -15.864  0.00  0.00    +0.112 C 
BRANCH  34  36
ATOM     35  O   UNL     1      28.598 -22.232 -17.206  0.00  0.00    -0.250 OA
ATOM     36  C   UNL     1      28.290 -23.392 -16.973  0.00  0.00    +0.314 C 
BRANCH  36  37
ATOM     37  O   UNL     1      27.392 -24.084 -17.721  0.00  0.00    -0.480 OA
ATOM     38  H   UNL     1      26.650 -24.485 -17.313  0.00  0.00    +0.295 HD
ENDBRANCH  36  37
ENDBRANCH  34  36
ENDBRANCH  33  34
ENDBRANCH   1  33
TORSDOF 11
ENDMDL
MODEL 4
REMARK VINA RESULT:     -11.1      1.300      1.849
REMARK  Name = 16048422
REMARK  11 active torsions:
REMARK  status: ('A' for Active; 'I' for Inactive)
REMARK    1  A    between atoms: C_1  and  C_4
REMARK    2  A    between atoms: C_1  and  N_18
REMARK    3  A    between atoms: C_1  and  C_33
REMARK    4  A    between atoms: N_3  and  C_6
REMARK    5  A    between atoms: C_6  and  C_9
REMARK    6  A    between atoms: C_9  and  C_11
REMARK    7  A    between atoms: C_19  and  C_21
REMARK    8  A    between atoms: C_24  and  C_27
REMARK    9  A    between atoms: C_33  and  C_34
REMARK   10  A    between atoms: C_34  and  C_36
REMARK   11  A    between atoms: C_36  and  O_37
REMARK                            x       y       z     vdW  Elec       q    Type
REMARK                         _______ _______ _______ _____ _____    ______ ____
ROOT
ATOM      1  C   UNL     1      33.800 -23.961 -16.130  0.00  0.00    +0.149 C 
ENDROOT
BRANCH   1   4
ATOM      2  O   UNL     1      32.272 -22.460 -15.006  0.00  0.00    -0.273 OA
ATOM      3  N   UNL     1      31.691 -24.699 -15.201  0.00  0.00    -0.306 N 
ATOM      4  C   UNL     1      32.514 -23.601 -15.397  0.00  0.00    +0.240 C 
ATOM      5  H   UNL     1      31.982 -25.571 -15.556  0.00  0.00    +0.149 HD
BRANCH   3   6
ATOM      6  C   UNL     1      30.428 -24.628 -14.503  0.00  0.00    +0.061 C 
ATOM      7  C   UNL     1      29.443 -25.622 -15.135  0.00  0.00    +0.020 C 
ATOM      8  C   UNL     1      30.670 -25.040 -13.041  0.00  0.00    +0.020 C 
BRANCH   6   9
ATOM      9  C   UNL     1      29.875 -23.179 -14.520  0.00  0.00    +0.044 C 
BRANCH   9  11
ATOM     10  F   UNL     1      25.693 -22.175 -18.169  0.00  0.00    -0.204 F 
ATOM     11  C   UNL     1      28.754 -22.910 -15.499  0.00  0.00    -0.020 C 
ATOM     12  C   UNL     1      27.527 -22.433 -15.038  0.00  0.00    -0.002 C 
ATOM     13  C   UNL     1      28.947 -23.139 -16.860  0.00  0.00    -0.002 C 
ATOM     14  C   UNL     1      26.493 -22.184 -15.941  0.00  0.00    +0.029 C 
ATOM     15  C   UNL     1      27.914 -22.890 -17.763  0.00  0.00    +0.029 C 
ATOM     16  C   UNL     1      26.686 -22.413 -17.303  0.00  0.00    +0.140 C 
ENDBRANCH   9  11
ENDBRANCH   6   9
ENDBRANCH   3   6
ENDBRANCH   1   4
BRANCH   1  18
ATOM     17  O   UNL     1      33.484 -24.358 -18.955  0.00  0.00    -0.270 OA
ATOM     18  N   UNL     1      33.951 -22.965 -17.161  0.00  0.00    -0.295 N 
ATOM     19  C   UNL     1      33.777 -23.253 -18.507  0.00  0.00    +0.246 C 
ATOM     20  H   UNL     1      34.187 -22.046 -16.901  0.00  0.00    +0.150 HD
BRANCH  19  21
ATOM     21  C   UNL     1      33.995 -22.123 -19.447  0.00  0.00    +0.053 C 
ATOM     22  C   UNL     1      35.289 -21.788 -19.847  0.00  0.00    +0.005 C 
ATOM     23  C   UNL     1      32.906 -21.399 -19.931  0.00  0.00    +0.005 C 
ATOM     24  C   UNL     1      34.404 -20.003 -21.212  0.00  0.00    +0.000 C 
ATOM     25  C   UNL     1      35.494 -20.727 -20.729  0.00  0.00    +0.000 C 
ATOM     26  C   UNL     1      33.110 -20.338 -20.814  0.00  0.00    +0.000 C 
BRANCH  24  27
ATOM     27  C   UNL     1      34.616 -18.903 -22.128  0.00  0.00    +0.000 C 
ATOM     28  C   UNL     1      35.114 -17.688 -21.656  0.00  0.00    +0.000 C 
ATOM     29  C   UNL     1      34.324 -19.056 -23.483  0.00  0.00    +0.000 C 
ATOM     30  C   UNL     1      35.319 -16.628 -22.539  0.00  0.00    +0.000 C 
ATOM     31  C   UNL     1      34.529 -17.995 -24.366  0.00  0.00    +0.000 C 
ATOM     32  C   UNL     1      35.026 -16.781 -23.893  0.00  0.00    +0.000 C 
ENDBRANCH  24  27
ENDBRANCH  19  21
ENDBRANCH   1  18
BRANCH   1  33
ATOM     33  C   UNL     1      35.012 -23.956 -15.189  0.00  0.00    +0.041 C 
BRANCH  33  34
ATOM     34  C   UNL     1      35.810 -22.651 -15.198  0.00  0.00    +0.112 C 
BRANCH  34  36
ATOM     35  O   UNL     1      37.418 -22.203 -16.973  0.00  0.00    -0.250 OA
ATOM     36  C   UNL     1      37.133 -22.763 -15.923  0.00  0.00    +0.314 C 
BRANCH  36  37
ATOM     37  O   UNL     1      38.006 -23.554 -15.246  0.00  0.00    -0.480 OA
ATOM     38  H   UNL     1      38.916 -23.334 -15.221  0.00  0.00    +0.295 HD
ENDBRANCH  36  37
ENDBRANCH  34  36
ENDBRANCH  33  34
ENDBRANCH   1  33
TORSDOF 11
ENDMDL
MODEL 5
REMARK VINA RESULT:     -10.8      9.177     14.703
REMARK  Name = 16048422
REMARK  11 active torsions:
REMARK  status: ('A' for Active; 'I' for Inactive)
REMARK    1  A    between atoms: C_1  and  C_4
REMARK    2  A    between atoms: C_1  and  N_18
REMARK    3  A    between atoms: C_1  and  C_33
REMARK    4  A    between atoms: N_3  and  C_6
REMARK    5  A    between atoms: C_6  and  C_9
REMARK    6  A    between atoms: C_9  and  C_11
REMARK    7  A    between atoms: C_19  and  C_21
REMARK    8  A    between atoms: C_24  and  C_27
REMARK    9  A    between atoms: C_33  and  C_34
REMARK   10  A    between atoms: C_34  and  C_36
REMARK   11  A    between atoms: C_36  and  O_37
REMARK                            x       y       z     vdW  Elec       q    Type
REMARK                         _______ _______ _______ _____ _____    ______ ____
ROOT
ATOM      1  C   UNL     1      33.981 -11.960 -24.253  0.00  0.00    +0.149 C 
ENDROOT
BRANCH   1   4
ATOM      2  O   UNL     1      32.120 -11.854 -22.711  0.00  0.00    -0.273 OA
ATOM      3  N   UNL     1      33.203  -9.883 -23.287  0.00  0.00    -0.306 N 
ATOM      4  C   UNL     1      33.001 -11.254 -23.324  0.00  0.00    +0.240 C 
ATOM      5  H   UNL     1      33.940  -9.503 -23.819  0.00  0.00    +0.149 HD
BRANCH   3   6
ATOM      6  C   UNL     1      32.384  -8.983 -22.507  0.00  0.00    +0.061 C 
ATOM      7  C   UNL     1      31.111  -8.644 -23.297  0.00  0.00    +0.020 C 
ATOM      8  C   UNL     1      31.979  -9.710 -21.213  0.00  0.00    +0.020 C 
BRANCH   6   9
ATOM      9  C   UNL     1      33.182  -7.709 -22.126  0.00  0.00    +0.044 C 
BRANCH   9  11
ATOM     10  F   UNL     1      34.620  -4.326 -26.404  0.00  0.00    -0.204 F 
ATOM     11  C   UNL     1      33.567  -6.802 -23.273  0.00  0.00    -0.020 C 
ATOM     12  C   UNL     1      32.800  -5.672 -23.557  0.00  0.00    -0.002 C 
ATOM     13  C   UNL     1      34.690  -7.095 -24.047  0.00  0.00    -0.002 C 
ATOM     14  C   UNL     1      33.156  -4.835 -24.614  0.00  0.00    +0.029 C 
ATOM     15  C   UNL     1      35.046  -6.258 -25.104  0.00  0.00    +0.029 C 
ATOM     16  C   UNL     1      34.279  -5.129 -25.388  0.00  0.00    +0.140 C 
ENDBRANCH   9  11
ENDBRANCH   6   9
ENDBRANCH   3   6
ENDBRANCH   1   4
BRANCH   1  18
ATOM     17  O   UNL     1      33.798 -14.532 -25.518  0.00  0.00    -0.270 OA
ATOM     18  N   UNL     1      34.240 -13.241 -23.642  0.00  0.00    -0.295 N 
ATOM     19  C   UNL     1      34.125 -14.436 -24.338  0.00  0.00    +0.246 C 
ATOM     20  H   UNL     1      34.509 -13.269 -22.696  0.00  0.00    +0.150 HD
BRANCH  19  21
ATOM     21  C   UNL     1      34.400 -15.670 -23.558  0.00  0.00    +0.053 C 
ATOM     22  C   UNL     1      34.480 -16.902 -24.208  0.00  0.00    +0.005 C 
ATOM     23  C   UNL     1      34.578 -15.597 -22.177  0.00  0.00    +0.005 C 
ATOM     24  C   UNL     1      34.916 -17.988 -22.095  0.00  0.00    +0.000 C 
ATOM     25  C   UNL     1      34.737 -18.062 -23.476  0.00  0.00    +0.000 C 
ATOM     26  C   UNL     1      34.836 -16.757 -21.445  0.00  0.00    +0.000 C 
BRANCH  24  27
ATOM     27  C   UNL     1      35.183 -19.190 -21.335  0.00  0.00    +0.000 C 
ATOM     28  C   UNL     1      36.489 -19.497 -20.951  0.00  0.00    +0.000 C 
ATOM     29  C   UNL     1      34.135 -20.042 -20.985  0.00  0.00    +0.000 C 
ATOM     30  C   UNL     1      36.746 -20.655 -20.217  0.00  0.00    +0.000 C 
ATOM     31  C   UNL     1      34.394 -21.201 -20.252  0.00  0.00    +0.000 C 
ATOM     32  C   UNL     1      35.699 -21.507 -19.868  0.00  0.00    +0.000 C 
ENDBRANCH  24  27
ENDBRANCH  19  21
ENDBRANCH   1  18
BRANCH   1  33
ATOM     33  C   UNL     1      33.401 -12.139 -25.661  0.00  0.00    +0.041 C 
BRANCH  33  34
ATOM     34  C   UNL     1      34.216 -11.466 -26.768  0.00  0.00    +0.112 C 
BRANCH  34  36
ATOM     35  O   UNL     1      35.470  -9.382 -26.641  0.00  0.00    -0.250 OA
ATOM     36  C   UNL     1      34.408  -9.982 -26.551  0.00  0.00    +0.314 C 
BRANCH  36  37
ATOM     37  O   UNL     1      33.232  -9.365 -26.266  0.00  0.00    -0.480 OA
ATOM     38  H   UNL     1      32.451  -9.871 -26.156  0.00  0.00    +0.295 HD
ENDBRANCH  36  37
ENDBRANCH  34  36
ENDBRANCH  33  34
ENDBRANCH   1  33
TORSDOF 11
ENDMDL
MODEL 6
REMARK VINA RESULT:     -10.2      3.274      5.998
REMARK  Name = 16048422
REMARK  11 active torsions:
REMARK  status: ('A' for Active; 'I' for Inactive)
REMARK    1  A    between atoms: C_1  and  C_4
REMARK    2  A    between atoms: C_1  and  N_18
REMARK    3  A    between atoms: C_1  and  C_33
REMARK    4  A    between atoms: N_3  and  C_6
REMARK    5  A    between atoms: C_6  and  C_9
REMARK    6  A    between atoms: C_9  and  C_11
REMARK    7  A    between atoms: C_19  and  C_21
REMARK    8  A    between atoms: C_24  and  C_27
REMARK    9  A    between atoms: C_33  and  C_34
REMARK   10  A    between atoms: C_34  and  C_36
REMARK   11  A    between atoms: C_36  and  O_37
REMARK                            x       y       z     vdW  Elec       q    Type
REMARK                         _______ _______ _______ _____ _____    ______ ____
ROOT
ATOM      1  C   UNL     1      34.316 -23.314 -15.782  0.00  0.00    +0.149 C 
ENDROOT
BRANCH   1   4
ATOM      2  O   UNL     1      36.695 -23.525 -16.164  0.00  0.00    -0.273 OA
ATOM      3  N   UNL     1      35.560 -25.304 -15.195  0.00  0.00    -0.306 N 
ATOM      4  C   UNL     1      35.659 -24.031 -15.736  0.00  0.00    +0.240 C 
ATOM      5  H   UNL     1      34.679 -25.613 -14.882  0.00  0.00    +0.149 HD
BRANCH   3   6
ATOM      6  C   UNL     1      36.686 -26.201 -15.071  0.00  0.00    +0.061 C 
ATOM      7  C   UNL     1      36.427 -27.458 -15.914  0.00  0.00    +0.020 C 
ATOM      8  C   UNL     1      37.928 -25.485 -15.627  0.00  0.00    +0.020 C 
BRANCH   6   9
ATOM      9  C   UNL     1      36.946 -26.549 -13.582  0.00  0.00    +0.044 C 
BRANCH   9  11
ATOM     10  F   UNL     1      36.412 -22.292  -9.921  0.00  0.00    -0.204 F 
ATOM     11  C   UNL     1      36.803 -25.408 -12.600  0.00  0.00    -0.020 C 
ATOM     12  C   UNL     1      37.753 -24.387 -12.574  0.00  0.00    -0.002 C 
ATOM     13  C   UNL     1      35.721 -25.376 -11.721  0.00  0.00    -0.002 C 
ATOM     14  C   UNL     1      37.621 -23.334 -11.670  0.00  0.00    +0.029 C 
ATOM     15  C   UNL     1      35.588 -24.323 -10.816  0.00  0.00    +0.029 C 
ATOM     16  C   UNL     1      36.539 -23.302 -10.791  0.00  0.00    +0.140 C 
ENDBRANCH   9  11
ENDBRANCH   6   9
ENDBRANCH   3   6
ENDBRANCH   1   4
BRANCH   1  18
ATOM     17  O   UNL     1      33.471 -23.960 -18.449  0.00  0.00    -0.270 OA
ATOM     18  N   UNL     1      34.376 -22.452 -16.937  0.00  0.00    -0.295 N 
ATOM     19  C   UNL     1      33.942 -22.855 -18.192  0.00  0.00    +0.246 C 
ATOM     20  H   UNL     1      34.739 -21.544 -16.832  0.00  0.00    +0.150 HD
BRANCH  19  21
ATOM     21  C   UNL     1      34.097 -21.860 -19.284  0.00  0.00    +0.053 C 
ATOM     22  C   UNL     1      35.370 -21.508 -19.731  0.00  0.00    +0.005 C 
ATOM     23  C   UNL     1      32.968 -21.279 -19.862  0.00  0.00    +0.005 C 
ATOM     24  C   UNL     1      34.387 -19.992 -21.335  0.00  0.00    +0.000 C 
ATOM     25  C   UNL     1      35.515 -20.573 -20.757  0.00  0.00    +0.000 C 
ATOM     26  C   UNL     1      33.113 -20.344 -20.888  0.00  0.00    +0.000 C 
BRANCH  24  27
ATOM     27  C   UNL     1      34.537 -19.023 -22.399  0.00  0.00    +0.000 C 
ATOM     28  C   UNL     1      35.122 -17.784 -22.136  0.00  0.00    +0.000 C 
ATOM     29  C   UNL     1      34.098 -19.327 -23.687  0.00  0.00    +0.000 C 
ATOM     30  C   UNL     1      35.268 -16.850 -23.162  0.00  0.00    +0.000 C 
ATOM     31  C   UNL     1      34.244 -18.393 -24.713  0.00  0.00    +0.000 C 
ATOM     32  C   UNL     1      34.828 -17.154 -24.450  0.00  0.00    +0.000 C 
ENDBRANCH  24  27
ENDBRANCH  19  21
ENDBRANCH   1  18
BRANCH   1  33
ATOM     33  C   UNL     1      33.148 -24.300 -15.903  0.00  0.00    +0.041 C 
BRANCH  33  34
ATOM     34  C   UNL     1      31.864 -23.844 -15.206  0.00  0.00    +0.112 C 
BRANCH  34  36
ATOM     35  O   UNL     1      30.683 -24.330 -13.131  0.00  0.00    -0.250 OA
ATOM     36  C   UNL     1      31.668 -24.470 -13.843  0.00  0.00    +0.314 C 
BRANCH  36  37
ATOM     37  O   UNL     1      32.725 -25.252 -13.498  0.00  0.00    -0.480 OA
ATOM     38  H   UNL     1      33.366 -24.934 -12.893  0.00  0.00    +0.295 HD
ENDBRANCH  36  37
ENDBRANCH  34  36
ENDBRANCH  33  34
ENDBRANCH   1  33
TORSDOF 11
ENDMDL
MODEL 7
REMARK VINA RESULT:     -10.1      3.515      6.630
REMARK  Name = 16048422
REMARK  11 active torsions:
REMARK  status: ('A' for Active; 'I' for Inactive)
REMARK    1  A    between atoms: C_1  and  C_4
REMARK    2  A    between atoms: C_1  and  N_18
REMARK    3  A    between atoms: C_1  and  C_33
REMARK    4  A    between atoms: N_3  and  C_6
REMARK    5  A    between atoms: C_6  and  C_9
REMARK    6  A    between atoms: C_9  and  C_11
REMARK    7  A    between atoms: C_19  and  C_21
REMARK    8  A    between atoms: C_24  and  C_27
REMARK    9  A    between atoms: C_33  and  C_34
REMARK   10  A    between atoms: C_34  and  C_36
REMARK   11  A    between atoms: C_36  and  O_37
REMARK                            x       y       z     vdW  Elec       q    Type
REMARK                         _______ _______ _______ _____ _____    ______ ____
ROOT
ATOM      1  C   UNL     1      32.619 -23.382 -15.720  0.00  0.00    +0.149 C 
ENDROOT
BRANCH   1   4
ATOM      2  O   UNL     1      34.714 -24.571 -15.943  0.00  0.00    -0.273 OA
ATOM      3  N   UNL     1      34.195 -23.604 -13.897  0.00  0.00    -0.306 N 
ATOM      4  C   UNL     1      33.959 -23.915 -15.227  0.00  0.00    +0.240 C 
ATOM      5  H   UNL     1      33.522 -23.071 -13.414  0.00  0.00    +0.149 HD
BRANCH   3   6
ATOM      6  C   UNL     1      35.380 -24.023 -13.184  0.00  0.00    +0.061 C 
ATOM      7  C   UNL     1      35.208 -23.713 -11.690  0.00  0.00    +0.020 C 
ATOM      8  C   UNL     1      35.525 -25.544 -13.356  0.00  0.00    +0.020 C 
BRANCH   6   9
ATOM      9  C   UNL     1      36.642 -23.339 -13.772  0.00  0.00    +0.044 C 
BRANCH   9  11
ATOM     10  F   UNL     1      40.997 -26.743 -14.898  0.00  0.00    -0.204 F 
ATOM     11  C   UNL     1      37.810 -24.252 -14.074  0.00  0.00    -0.020 C 
ATOM     12  C   UNL     1      38.253 -24.406 -15.388  0.00  0.00    -0.002 C 
ATOM     13  C   UNL     1      38.443 -24.939 -13.039  0.00  0.00    -0.002 C 
ATOM     14  C   UNL     1      39.330 -25.247 -15.666  0.00  0.00    +0.029 C 
ATOM     15  C   UNL     1      39.521 -25.780 -13.317  0.00  0.00    +0.029 C 
ATOM     16  C   UNL     1      39.963 -25.934 -14.631  0.00  0.00    +0.140 C 
ENDBRANCH   9  11
ENDBRANCH   6   9
ENDBRANCH   3   6
ENDBRANCH   1   4
BRANCH   1  18
ATOM     17  O   UNL     1      33.248 -24.226 -18.391  0.00  0.00    -0.270 OA
ATOM     18  N   UNL     1      32.930 -22.530 -16.841  0.00  0.00    -0.295 N 
ATOM     19  C   UNL     1      33.221 -23.033 -18.101  0.00  0.00    +0.246 C 
ATOM     20  H   UNL     1      32.934 -21.555 -16.709  0.00  0.00    +0.150 HD
BRANCH  19  21
ATOM     21  C   UNL     1      33.547 -22.026 -19.143  0.00  0.00    +0.053 C 
ATOM     22  C   UNL     1      32.526 -21.292 -19.747  0.00  0.00    +0.005 C 
ATOM     23  C   UNL     1      34.873 -21.814 -19.518  0.00  0.00    +0.005 C 
ATOM     24  C   UNL     1      34.159 -20.135 -21.101  0.00  0.00    +0.000 C 
ATOM     25  C   UNL     1      32.832 -20.346 -20.726  0.00  0.00    +0.000 C 
ATOM     26  C   UNL     1      35.180 -20.868 -20.497  0.00  0.00    +0.000 C 
BRANCH  24  27
ATOM     27  C   UNL     1      34.476 -19.154 -22.116  0.00  0.00    +0.000 C 
ATOM     28  C   UNL     1      35.093 -17.955 -21.758  0.00  0.00    +0.000 C 
ATOM     29  C   UNL     1      34.168 -19.408 -23.452  0.00  0.00    +0.000 C 
ATOM     30  C   UNL     1      35.401 -17.010 -22.738  0.00  0.00    +0.000 C 
ATOM     31  C   UNL     1      34.475 -18.462 -24.431  0.00  0.00    +0.000 C 
ATOM     32  C   UNL     1      35.091 -17.263 -24.073  0.00  0.00    +0.000 C 
ENDBRANCH  24  27
ENDBRANCH  19  21
ENDBRANCH   1  18
BRANCH   1  33
ATOM     33  C   UNL     1      31.677 -24.515 -16.144  0.00  0.00    +0.041 C 
BRANCH  33  34
ATOM     34  C   UNL     1      30.529 -24.779 -15.167  0.00  0.00    +0.112 C 
BRANCH  34  36
ATOM     35  O   UNL     1      31.729 -25.594 -13.210  0.00  0.00    -0.250 OA
ATOM     36  C   UNL     1      30.965 -24.785 -13.719  0.00  0.00    +0.314 C 
BRANCH  36  37
ATOM     37  O   UNL     1      30.423 -23.746 -13.032  0.00  0.00    -0.480 OA
ATOM     38  H   UNL     1      29.573 -23.831 -12.647  0.00  0.00    +0.295 HD
ENDBRANCH  36  37
ENDBRANCH  34  36
ENDBRANCH  33  34
ENDBRANCH   1  33
TORSDOF 11
ENDMDL
MODEL 8
REMARK VINA RESULT:     -10.1      9.579     14.841
REMARK  Name = 16048422
REMARK  11 active torsions:
REMARK  status: ('A' for Active; 'I' for Inactive)
REMARK    1  A    between atoms: C_1  and  C_4
REMARK    2  A    between atoms: C_1  and  N_18
REMARK    3  A    between atoms: C_1  and  C_33
REMARK    4  A    between atoms: N_3  and  C_6
REMARK    5  A    between atoms: C_6  and  C_9
REMARK    6  A    between atoms: C_9  and  C_11
REMARK    7  A    between atoms: C_19  and  C_21
REMARK    8  A    between atoms: C_24  and  C_27
REMARK    9  A    between atoms: C_33  and  C_34
REMARK   10  A    between atoms: C_34  and  C_36
REMARK   11  A    between atoms: C_36  and  O_37
REMARK                            x       y       z     vdW  Elec       q    Type
REMARK                         _______ _______ _______ _____ _____    ______ ____
ROOT
ATOM      1  C   UNL     1      34.009 -11.207 -24.247  0.00  0.00    +0.149 C 
ENDROOT
BRANCH   1   4
ATOM      2  O   UNL     1      32.001 -11.337 -22.905  0.00  0.00    -0.273 OA
ATOM      3  N   UNL     1      33.033  -9.274 -23.167  0.00  0.00    -0.306 N 
ATOM      4  C   UNL     1      32.906 -10.641 -23.361  0.00  0.00    +0.240 C 
ATOM      5  H   UNL     1      33.798  -8.811 -23.579  0.00  0.00    +0.149 HD
BRANCH   3   6
ATOM      6  C   UNL     1      32.094  -8.495 -22.392  0.00  0.00    +0.061 C 
ATOM      7  C   UNL     1      31.610  -9.329 -21.197  0.00  0.00    +0.020 C 
ATOM      8  C   UNL     1      32.832  -7.255 -21.858  0.00  0.00    +0.020 C 
BRANCH   6   9
ATOM      9  C   UNL     1      30.914  -8.020 -23.279  0.00  0.00    +0.044 C 
BRANCH   9  11
ATOM     10  F   UNL     1      31.891  -3.467 -26.462  0.00  0.00    -0.204 F 
ATOM     11  C   UNL     1      31.176  -6.799 -24.132  0.00  0.00    -0.020 C 
ATOM     12  C   UNL     1      31.923  -6.915 -25.305  0.00  0.00    -0.002 C 
ATOM     13  C   UNL     1      30.670  -5.558 -23.747  0.00  0.00    -0.002 C 
ATOM     14  C   UNL     1      32.164  -5.789 -26.092  0.00  0.00    +0.029 C 
ATOM     15  C   UNL     1      30.911  -4.432 -24.535  0.00  0.00    +0.029 C 
ATOM     16  C   UNL     1      31.658  -4.548 -25.707  0.00  0.00    +0.140 C 
ENDBRANCH   9  11
ENDBRANCH   6   9
ENDBRANCH   3   6
ENDBRANCH   1   4
BRANCH   1  18
ATOM     17  O   UNL     1      33.330 -13.746 -25.402  0.00  0.00    -0.270 OA
ATOM     18  N   UNL     1      34.314 -12.508 -23.705  0.00  0.00    -0.295 N 
ATOM     19  C   UNL     1      33.943 -13.685 -24.339  0.00  0.00    +0.246 C 
ATOM     20  H   UNL     1      34.803 -12.564 -22.853  0.00  0.00    +0.150 HD
BRANCH  19  21
ATOM     21  C   UNL     1      34.306 -14.943 -23.638  0.00  0.00    +0.053 C 
ATOM     22  C   UNL     1      34.625 -16.085 -24.374  0.00  0.00    +0.005 C 
ATOM     23  C   UNL     1      34.330 -14.982 -22.245  0.00  0.00    +0.005 C 
ATOM     24  C   UNL     1      34.990 -17.306 -22.322  0.00  0.00    +0.000 C 
ATOM     25  C   UNL     1      34.966 -17.266 -23.715  0.00  0.00    +0.000 C 
ATOM     26  C   UNL     1      34.672 -16.164 -21.585  0.00  0.00    +0.000 C 
BRANCH  24  27
ATOM     27  C   UNL     1      35.344 -18.530 -21.638  0.00  0.00    +0.000 C 
ATOM     28  C   UNL     1      34.356 -19.463 -21.320  0.00  0.00    +0.000 C 
ATOM     29  C   UNL     1      36.673 -18.781 -21.299  0.00  0.00    +0.000 C 
ATOM     30  C   UNL     1      34.697 -20.644 -20.662  0.00  0.00    +0.000 C 
ATOM     31  C   UNL     1      37.014 -19.963 -20.640  0.00  0.00    +0.000 C 
ATOM     32  C   UNL     1      36.026 -20.894 -20.322  0.00  0.00    +0.000 C 
ENDBRANCH  24  27
ENDBRANCH  19  21
ENDBRANCH   1  18
BRANCH   1  33
ATOM     33  C   UNL     1      33.562 -11.319 -25.710  0.00  0.00    +0.041 C 
BRANCH  33  34
ATOM     34  C   UNL     1      34.097 -10.212 -26.620  0.00  0.00    +0.112 C 
BRANCH  34  36
ATOM     35  O   UNL     1      35.134  -8.301 -25.522  0.00  0.00    -0.250 OA
ATOM     36  C   UNL     1      35.228  -9.423 -25.999  0.00  0.00    +0.314 C 
BRANCH  36  37
ATOM     37  O   UNL     1      36.389 -10.129 -26.005  0.00  0.00    -0.480 OA
ATOM     38  H   UNL     1      36.913 -10.177 -25.230  0.00  0.00    +0.295 HD
ENDBRANCH  36  37
ENDBRANCH  34  36
ENDBRANCH  33  34
ENDBRANCH   1  33
TORSDOF 11
ENDMDL
MODEL 9
REMARK VINA RESULT:     -10.0      2.954      6.211
REMARK  Name = 16048422
REMARK  11 active torsions:
REMARK  status: ('A' for Active; 'I' for Inactive)
REMARK    1  A    between atoms: C_1  and  C_4
REMARK    2  A    between atoms: C_1  and  N_18
REMARK    3  A    between atoms: C_1  and  C_33
REMARK    4  A    between atoms: N_3  and  C_6
REMARK    5  A    between atoms: C_6  and  C_9
REMARK    6  A    between atoms: C_9  and  C_11
REMARK    7  A    between atoms: C_19  and  C_21
REMARK    8  A    between atoms: C_24  and  C_27
REMARK    9  A    between atoms: C_33  and  C_34
REMARK   10  A    between atoms: C_34  and  C_36
REMARK   11  A    between atoms: C_36  and  O_37
REMARK                            x       y       z     vdW  Elec       q    Type
REMARK                         _______ _______ _______ _____ _____    ______ ____
ROOT
ATOM      1  C   UNL     1      34.178 -23.569 -15.442  0.00  0.00    +0.149 C 
ENDROOT
BRANCH   1   4
ATOM      2  O   UNL     1      35.226 -25.693 -15.936  0.00  0.00    -0.273 OA
ATOM      3  N   UNL     1      36.545 -23.961 -15.126  0.00  0.00    -0.306 N 
ATOM      4  C   UNL     1      35.353 -24.533 -15.547  0.00  0.00    +0.240 C 
ATOM      5  H   UNL     1      36.535 -23.021 -14.833  0.00  0.00    +0.149 HD
BRANCH   3   6
ATOM      6  C   UNL     1      37.799 -24.678 -15.096  0.00  0.00    +0.061 C 
ATOM      7  C   UNL     1      37.578 -26.106 -15.619  0.00  0.00    +0.020 C 
ATOM      8  C   UNL     1      38.781 -23.959 -16.036  0.00  0.00    +0.020 C 
BRANCH   6   9
ATOM      9  C   UNL     1      38.397 -24.676 -13.665  0.00  0.00    +0.044 C 
BRANCH   9  11
ATOM     10  F   UNL     1      34.691 -24.166  -9.443  0.00  0.00    -0.204 F 
ATOM     11  C   UNL     1      37.403 -24.539 -12.533  0.00  0.00    -0.020 C 
ATOM     12  C   UNL     1      36.565 -25.606 -12.208  0.00  0.00    -0.002 C 
ATOM     13  C   UNL     1      37.325 -23.346 -11.815  0.00  0.00    -0.002 C 
ATOM     14  C   UNL     1      35.650 -25.480 -11.164  0.00  0.00    +0.029 C 
ATOM     15  C   UNL     1      36.409 -23.221 -10.770  0.00  0.00    +0.029 C 
ATOM     16  C   UNL     1      35.571 -24.288 -10.445  0.00  0.00    +0.140 C 
ENDBRANCH   9  11
ENDBRANCH   6   9
ENDBRANCH   3   6
ENDBRANCH   1   4
BRANCH   1  18
ATOM     17  O   UNL     1      33.405 -24.204 -18.134  0.00  0.00    -0.270 OA
ATOM     18  N   UNL     1      34.280 -22.707 -16.593  0.00  0.00    -0.295 N 
ATOM     19  C   UNL     1      33.878 -23.104 -17.861  0.00  0.00    +0.246 C 
ATOM     20  H   UNL     1      34.649 -21.802 -16.476  0.00  0.00    +0.150 HD
BRANCH  19  21
ATOM     21  C   UNL     1      34.075 -22.109 -18.946  0.00  0.00    +0.053 C 
ATOM     22  C   UNL     1      32.970 -21.515 -19.557  0.00  0.00    +0.005 C 
ATOM     23  C   UNL     1      35.364 -21.768 -19.354  0.00  0.00    +0.005 C 
ATOM     24  C   UNL     1      34.445 -20.241 -20.985  0.00  0.00    +0.000 C 
ATOM     25  C   UNL     1      33.155 -20.582 -20.577  0.00  0.00    +0.000 C 
ATOM     26  C   UNL     1      35.550 -20.834 -20.374  0.00  0.00    +0.000 C 
BRANCH  24  27
ATOM     27  C   UNL     1      34.637 -19.272 -22.042  0.00  0.00    +0.000 C 
ATOM     28  C   UNL     1      34.220 -19.565 -23.341  0.00  0.00    +0.000 C 
ATOM     29  C   UNL     1      35.238 -18.044 -21.763  0.00  0.00    +0.000 C 
ATOM     30  C   UNL     1      34.405 -18.630 -24.360  0.00  0.00    +0.000 C 
ATOM     31  C   UNL     1      35.422 -17.110 -22.782  0.00  0.00    +0.000 C 
ATOM     32  C   UNL     1      35.006 -17.404 -24.081  0.00  0.00    +0.000 C 
ENDBRANCH  24  27
ENDBRANCH  19  21
ENDBRANCH   1  18
BRANCH   1  33
ATOM     33  C   UNL     1      32.834 -24.308 -15.436  0.00  0.00    +0.041 C 
BRANCH  33  34
ATOM     34  C   UNL     1      31.639 -23.439 -15.041  0.00  0.00    +0.112 C 
BRANCH  34  36
ATOM     35  O   UNL     1      29.454 -24.163 -15.840  0.00  0.00    -0.250 OA
ATOM     36  C   UNL     1      30.485 -23.529 -16.016  0.00  0.00    +0.314 C 
BRANCH  36  37
ATOM     37  O   UNL     1      30.715 -22.783 -17.128  0.00  0.00    -0.480 OA
ATOM     38  H   UNL     1      31.268 -22.028 -17.080  0.00  0.00    +0.295 HD
ENDBRANCH  36  37
ENDBRANCH  34  36
ENDBRANCH  33  34
ENDBRANCH   1  33
TORSDOF 11
ENDMDL
