MODEL 1
REMARK VINA RESULT:     -11.9      0.000      0.000
REMARK  Name = 9924495
REMARK  4 active torsions:
REMARK  status: ('A' for Active; 'I' for Inactive)
REMARK    1  A    between atoms: N_2  and  C_22
REMARK    2  A    between atoms: C_3  and  C_14
REMARK    3  A    between atoms: C_4  and  C_9
REMARK    4  A    between atoms: C_15  and  C_21
REMARK                            x       y       z     vdW  Elec       q    Type
REMARK                         _______ _______ _______ _____ _____    ______ ____
ROOT
ATOM      1  O   UNL     1      36.575 -23.045 -16.660  0.00  0.00    -0.269 OA
ATOM      2  N   UNL     1      34.316 -22.847 -17.302  0.00  0.00    -0.233 N 
ATOM      3  C   UNL     1      34.988 -23.908 -15.156  0.00  0.00    +0.055 C 
ATOM      4  C   UNL     1      32.666 -23.894 -15.893  0.00  0.00    +0.033 C 
ATOM      5  C   UNL     1      35.375 -23.208 -16.433  0.00  0.00    +0.257 C 
ATOM      6  C   UNL     1      33.702 -24.223 -14.942  0.00  0.00    +0.007 C 
ATOM      7  C   UNL     1      33.007 -23.221 -17.004  0.00  0.00    +0.074 C 
ENDROOT
BRANCH   4   9
ATOM      8  N   UNL     1      30.353 -23.520 -16.402  0.00  0.00    -0.244 NA
ATOM      9  C   UNL     1      31.244 -24.225 -15.671  0.00  0.00    +0.083 C 
ATOM     10  C   UNL     1      30.897 -25.204 -14.756  0.00  0.00    +0.019 C 
ATOM     11  C   UNL     1      29.545 -25.479 -14.580  0.00  0.00    +0.003 C 
ATOM     12  C   UNL     1      29.048 -23.815 -16.204  0.00  0.00    +0.099 C 
ATOM     13  C   UNL     1      28.598 -24.776 -15.314  0.00  0.00    +0.021 C 
ENDBRANCH   4   9
BRANCH   3  14
ATOM     14  C   UNL     1      36.001 -24.248 -14.140  0.00  0.00    +0.014 C 
ATOM     15  C   UNL     1      36.733 -25.434 -14.195  0.00  0.00    +0.069 C 
ATOM     16  C   UNL     1      36.219 -23.342 -13.102  0.00  0.00    +0.001 C 
ATOM     17  C   UNL     1      37.681 -25.715 -13.212  0.00  0.00    +0.010 C 
ATOM     18  C   UNL     1      37.168 -23.622 -12.119  0.00  0.00    +0.000 C 
ATOM     19  C   UNL     1      37.899 -24.808 -12.174  0.00  0.00    +0.001 C 
BRANCH  15  21
ATOM     20  N   UNL     1      36.378 -27.161 -16.093  0.00  0.00    -0.191 NA
ATOM     21  C   UNL     1      36.536 -26.388 -15.245  0.00  0.00    +0.100 C 
ENDBRANCH  15  21
ENDBRANCH   3  14
BRANCH   2  22
ATOM     22  C   UNL     1      34.608 -22.112 -18.519  0.00  0.00    +0.058 C 
ATOM     23  C   UNL     1      33.565 -21.695 -19.338  0.00  0.00    +0.015 C 
ATOM     24  C   UNL     1      35.928 -21.830 -18.852  0.00  0.00    +0.015 C 
ATOM     25  C   UNL     1      33.846 -20.988 -20.506  0.00  0.00    +0.001 C 
ATOM     26  C   UNL     1      36.209 -21.123 -20.021  0.00  0.00    +0.001 C 
ATOM     27  C   UNL     1      35.167 -20.702 -20.848  0.00  0.00    +0.000 C 
ENDBRANCH   2  22
TORSDOF 4
ENDMDL
MODEL 2
REMARK VINA RESULT:     -11.7      1.206      5.216
REMARK  Name = 9924495
REMARK  4 active torsions:
REMARK  status: ('A' for Active; 'I' for Inactive)
REMARK    1  A    between atoms: N_2  and  C_22
REMARK    2  A    between atoms: C_3  and  C_14
REMARK    3  A    between atoms: C_4  and  C_9
REMARK    4  A    between atoms: C_15  and  C_21
REMARK                            x       y       z     vdW  Elec       q    Type
REMARK                         _______ _______ _______ _____ _____    ______ ____
ROOT
ATOM      1  O   UNL     1      33.207 -24.662 -13.563  0.00  0.00    -0.269 OA
ATOM      2  N   UNL     1      32.590 -23.884 -15.701  0.00  0.00    -0.233 N 
ATOM      3  C   UNL     1      34.958 -23.909 -14.939  0.00  0.00    +0.055 C 
ATOM      4  C   UNL     1      34.320 -22.915 -17.070  0.00  0.00    +0.033 C 
ATOM      5  C   UNL     1      33.505 -24.209 -14.669  0.00  0.00    +0.257 C 
ATOM      6  C   UNL     1      35.301 -23.289 -16.078  0.00  0.00    +0.007 C 
ATOM      7  C   UNL     1      33.034 -23.233 -16.852  0.00  0.00    +0.074 C 
ENDROOT
BRANCH   4   9
ATOM      8  N   UNL     1      36.001 -22.047 -18.544  0.00  0.00    -0.244 NA
ATOM      9  C   UNL     1      34.680 -22.241 -18.334  0.00  0.00    +0.083 C 
ATOM     10  C   UNL     1      33.687 -21.847 -19.214  0.00  0.00    +0.019 C 
ATOM     11  C   UNL     1      34.074 -21.215 -20.391  0.00  0.00    +0.003 C 
ATOM     12  C   UNL     1      36.339 -21.429 -19.698  0.00  0.00    +0.099 C 
ATOM     13  C   UNL     1      35.423 -20.998 -20.644  0.00  0.00    +0.021 C 
ENDBRANCH   4   9
BRANCH   3  14
ATOM     14  C   UNL     1      36.003 -24.288 -13.971  0.00  0.00    +0.014 C 
ATOM     15  C   UNL     1      36.724 -25.475 -14.091  0.00  0.00    +0.069 C 
ATOM     16  C   UNL     1      36.262 -23.419 -12.910  0.00  0.00    +0.001 C 
ATOM     17  C   UNL     1      37.703 -25.796 -13.151  0.00  0.00    +0.010 C 
ATOM     18  C   UNL     1      37.242 -23.738 -11.971  0.00  0.00    +0.000 C 
ATOM     19  C   UNL     1      37.963 -24.926 -12.091  0.00  0.00    +0.001 C 
BRANCH  15  21
ATOM     20  N   UNL     1      36.294 -27.134 -16.034  0.00  0.00    -0.191 NA
ATOM     21  C   UNL     1      36.485 -26.393 -15.165  0.00  0.00    +0.100 C 
ENDBRANCH  15  21
ENDBRANCH   3  14
BRANCH   2  22
ATOM     22  C   UNL     1      31.185 -24.205 -15.538  0.00  0.00    +0.058 C 
ATOM     23  C   UNL     1      30.817 -25.435 -15.008  0.00  0.00    +0.015 C 
ATOM     24  C   UNL     1      30.220 -23.277 -15.914  0.00  0.00    +0.015 C 
ATOM     25  C   UNL     1      29.465 -25.742 -14.851  0.00  0.00    +0.001 C 
ATOM     26  C   UNL     1      28.869 -23.584 -15.757  0.00  0.00    +0.001 C 
ATOM     27  C   UNL     1      28.491 -24.817 -15.226  0.00  0.00    +0.000 C 
ENDBRANCH   2  22
TORSDOF 4
ENDMDL
MODEL 3
REMARK VINA RESULT:      -9.4      1.922      5.504
REMARK  Name = 9924495
REMARK  4 active torsions:
REMARK  status: ('A' for Active; 'I' for Inactive)
REMARK    1  A    between atoms: N_2  and  C_22
REMARK    2  A    between atoms: C_3  and  C_14
REMARK    3  A    between atoms: C_4  and  C_9
REMARK    4  A    between atoms: C_15  and  C_21
REMARK                            x       y       z     vdW  Elec       q    Type
REMARK                         _______ _______ _______ _____ _____    ______ ____
ROOT
ATOM      1  O   UNL     1      33.119 -24.720 -14.716  0.00  0.00    -0.269 OA
ATOM      2  N   UNL     1      32.144 -23.584 -16.536  0.00  0.00    -0.233 N 
ATOM      3  C   UNL     1      34.607 -23.852 -16.316  0.00  0.00    +0.055 C 
ATOM      4  C   UNL     1      33.630 -22.503 -18.095  0.00  0.00    +0.033 C 
ATOM      5  C   UNL     1      33.221 -24.115 -15.784  0.00  0.00    +0.257 C 
ATOM      6  C   UNL     1      34.759 -23.080 -17.402  0.00  0.00    +0.007 C 
ATOM      7  C   UNL     1      32.394 -22.784 -17.651  0.00  0.00    +0.074 C 
ENDROOT
BRANCH   4   9
ATOM      8  N   UNL     1      32.631 -21.174 -19.822  0.00  0.00    -0.244 NA
ATOM      9  C   UNL     1      33.778 -21.658 -19.296  0.00  0.00    +0.083 C 
ATOM     10  C   UNL     1      35.037 -21.409 -19.815  0.00  0.00    +0.019 C 
ATOM     11  C   UNL     1      35.126 -20.608 -20.949  0.00  0.00    +0.003 C 
ATOM     12  C   UNL     1      32.757 -20.400 -20.924  0.00  0.00    +0.099 C 
ATOM     13  C   UNL     1      33.969 -20.091 -21.519  0.00  0.00    +0.021 C 
ENDBRANCH   4   9
BRANCH   3  14
ATOM     14  C   UNL     1      35.793 -24.434 -15.662  0.00  0.00    +0.014 C 
ATOM     15  C   UNL     1      36.999 -23.741 -15.569  0.00  0.00    +0.069 C 
ATOM     16  C   UNL     1      35.683 -25.717 -15.126  0.00  0.00    +0.001 C 
ATOM     17  C   UNL     1      38.096 -24.331 -14.942  0.00  0.00    +0.010 C 
ATOM     18  C   UNL     1      36.780 -26.307 -14.498  0.00  0.00    +0.000 C 
ATOM     19  C   UNL     1      37.986 -25.614 -14.405  0.00  0.00    +0.001 C 
BRANCH  15  21
ATOM     20  N   UNL     1      37.273 -21.356 -16.544  0.00  0.00    -0.191 NA
ATOM     21  C   UNL     1      37.149 -22.422 -16.108  0.00  0.00    +0.100 C 
ENDBRANCH  15  21
ENDBRANCH   3  14
BRANCH   2  22
ATOM     22  C   UNL     1      30.780 -23.853 -16.121  0.00  0.00    +0.058 C 
ATOM     23  C   UNL     1      29.797 -22.891 -16.323  0.00  0.00    +0.015 C 
ATOM     24  C   UNL     1      30.470 -25.070 -15.527  0.00  0.00    +0.015 C 
ATOM     25  C   UNL     1      28.486 -23.151 -15.925  0.00  0.00    +0.001 C 
ATOM     26  C   UNL     1      29.159 -25.329 -15.128  0.00  0.00    +0.001 C 
ATOM     27  C   UNL     1      28.166 -24.369 -15.327  0.00  0.00    +0.000 C 
ENDBRANCH   2  22
TORSDOF 4
ENDMDL
MODEL 4
REMARK VINA RESULT:      -9.3      1.593      6.297
REMARK  Name = 9924495
REMARK  4 active torsions:
REMARK  status: ('A' for Active; 'I' for Inactive)
REMARK    1  A    between atoms: N_2  and  C_22
REMARK    2  A    between atoms: C_3  and  C_14
REMARK    3  A    between atoms: C_4  and  C_9
REMARK    4  A    between atoms: C_15  and  C_21
REMARK                            x       y       z     vdW  Elec       q    Type
REMARK                         _______ _______ _______ _____ _____    ______ ____
ROOT
ATOM      1  O   UNL     1      31.943 -22.595 -18.347  0.00  0.00    -0.269 OA
ATOM      2  N   UNL     1      32.098 -23.647 -16.243  0.00  0.00    -0.233 N 
ATOM      3  C   UNL     1      34.107 -22.826 -17.458  0.00  0.00    +0.055 C 
ATOM      4  C   UNL     1      34.305 -24.089 -15.383  0.00  0.00    +0.033 C 
ATOM      5  C   UNL     1      32.610 -22.990 -17.389  0.00  0.00    +0.257 C 
ATOM      6  C   UNL     1      34.873 -23.367 -16.498  0.00  0.00    +0.007 C 
ATOM      7  C   UNL     1      32.968 -24.185 -15.296  0.00  0.00    +0.074 C 
ENDROOT
BRANCH   4   9
ATOM      8  N   UNL     1      36.142 -25.481 -14.722  0.00  0.00    -0.244 NA
ATOM      9  C   UNL     1      35.131 -24.683 -14.313  0.00  0.00    +0.083 C 
ATOM     10  C   UNL     1      34.844 -24.409 -12.987  0.00  0.00    +0.019 C 
ATOM     11  C   UNL     1      35.649 -24.993 -12.014  0.00  0.00    +0.003 C 
ATOM     12  C   UNL     1      36.903 -26.031 -13.749  0.00  0.00    +0.099 C 
ATOM     13  C   UNL     1      36.700 -25.819 -12.394  0.00  0.00    +0.021 C 
ENDBRANCH   4   9
BRANCH   3  14
ATOM     14  C   UNL     1      34.738 -22.080 -18.562  0.00  0.00    +0.014 C 
ATOM     15  C   UNL     1      36.092 -21.748 -18.549  0.00  0.00    +0.069 C 
ATOM     16  C   UNL     1      33.939 -21.705 -19.641  0.00  0.00    +0.001 C 
ATOM     17  C   UNL     1      36.648 -21.040 -19.614  0.00  0.00    +0.010 C 
ATOM     18  C   UNL     1      34.493 -20.997 -20.708  0.00  0.00    +0.000 C 
ATOM     19  C   UNL     1      35.848 -20.665 -20.694  0.00  0.00    +0.001 C 
BRANCH  15  21
ATOM     20  N   UNL     1      37.635 -22.412 -16.576  0.00  0.00    -0.191 NA
ATOM     21  C   UNL     1      36.945 -22.116 -17.457  0.00  0.00    +0.100 C 
ENDBRANCH  15  21
ENDBRANCH   3  14
BRANCH   2  22
ATOM     22  C   UNL     1      30.663 -23.782 -16.077  0.00  0.00    +0.058 C 
ATOM     23  C   UNL     1      30.142 -24.938 -15.510  0.00  0.00    +0.015 C 
ATOM     24  C   UNL     1      29.824 -22.752 -16.487  0.00  0.00    +0.015 C 
ATOM     25  C   UNL     1      28.762 -25.067 -15.350  0.00  0.00    +0.001 C 
ATOM     26  C   UNL     1      28.444 -22.881 -16.327  0.00  0.00    +0.001 C 
ATOM     27  C   UNL     1      27.913 -24.039 -15.758  0.00  0.00    +0.000 C 
ENDBRANCH   2  22
TORSDOF 4
ENDMDL
MODEL 5
REMARK VINA RESULT:      -9.2      1.800      5.525
REMARK  Name = 9924495
REMARK  4 active torsions:
REMARK  status: ('A' for Active; 'I' for Inactive)
REMARK    1  A    between atoms: N_2  and  C_22
REMARK    2  A    between atoms: C_3  and  C_14
REMARK    3  A    between atoms: C_4  and  C_9
REMARK    4  A    between atoms: C_15  and  C_21
REMARK                            x       y       z     vdW  Elec       q    Type
REMARK                         _______ _______ _______ _____ _____    ______ ____
ROOT
ATOM      1  O   UNL     1      32.631 -25.111 -14.298  0.00  0.00    -0.269 OA
ATOM      2  N   UNL     1      32.154 -23.838 -16.223  0.00  0.00    -0.233 N 
ATOM      3  C   UNL     1      34.478 -24.473 -15.605  0.00  0.00    +0.055 C 
ATOM      4  C   UNL     1      34.024 -22.989 -17.484  0.00  0.00    +0.033 C 
ATOM      5  C   UNL     1      32.999 -24.526 -15.317  0.00  0.00    +0.257 C 
ATOM      6  C   UNL     1      34.923 -23.730 -16.630  0.00  0.00    +0.007 C 
ATOM      7  C   UNL     1      32.703 -23.083 -17.258  0.00  0.00    +0.074 C 
ENDROOT
BRANCH   4   9
ATOM      8  N   UNL     1      35.833 -22.029 -18.730  0.00  0.00    -0.244 NA
ATOM      9  C   UNL     1      34.494 -22.173 -18.621  0.00  0.00    +0.083 C 
ATOM     10  C   UNL     1      33.578 -21.610 -19.492  0.00  0.00    +0.019 C 
ATOM     11  C   UNL     1      34.068 -20.848 -20.548  0.00  0.00    +0.003 C 
ATOM     12  C   UNL     1      36.273 -21.282 -19.768  0.00  0.00    +0.099 C 
ATOM     13  C   UNL     1      35.440 -20.677 -20.695  0.00  0.00    +0.021 C 
ENDBRANCH   4   9
BRANCH   3  14
ATOM     14  C   UNL     1      35.438 -25.227 -14.779  0.00  0.00    +0.014 C 
ATOM     15  C   UNL     1      35.563 -25.009 -13.408  0.00  0.00    +0.069 C 
ATOM     16  C   UNL     1      36.237 -26.182 -15.409  0.00  0.00    +0.001 C 
ATOM     17  C   UNL     1      36.486 -25.745 -12.665  0.00  0.00    +0.010 C 
ATOM     18  C   UNL     1      37.160 -26.920 -14.667  0.00  0.00    +0.000 C 
ATOM     19  C   UNL     1      37.284 -26.701 -13.295  0.00  0.00    +0.001 C 
BRANCH  15  21
ATOM     20  N   UNL     1      34.112 -23.252 -12.177  0.00  0.00    -0.191 NA
ATOM     21  C   UNL     1      34.761 -24.037 -12.727  0.00  0.00    +0.100 C 
ENDBRANCH  15  21
ENDBRANCH   3  14
BRANCH   2  22
ATOM     22  C   UNL     1      30.715 -23.900 -16.047  0.00  0.00    +0.058 C 
ATOM     23  C   UNL     1      29.932 -22.807 -16.395  0.00  0.00    +0.015 C 
ATOM     24  C   UNL     1      30.135 -25.054 -15.532  0.00  0.00    +0.015 C 
ATOM     25  C   UNL     1      28.549 -22.867 -16.226  0.00  0.00    +0.001 C 
ATOM     26  C   UNL     1      28.752 -25.114 -15.363  0.00  0.00    +0.001 C 
ATOM     27  C   UNL     1      27.958 -24.021 -15.710  0.00  0.00    +0.000 C 
ENDBRANCH   2  22
TORSDOF 4
ENDMDL
MODEL 6
REMARK VINA RESULT:      -9.1      1.346      2.129
REMARK  Name = 9924495
REMARK  4 active torsions:
REMARK  status: ('A' for Active; 'I' for Inactive)
REMARK    1  A    between atoms: N_2  and  C_22
REMARK    2  A    between atoms: C_3  and  C_14
REMARK    3  A    between atoms: C_4  and  C_9
REMARK    4  A    between atoms: C_15  and  C_21
REMARK                            x       y       z     vdW  Elec       q    Type
REMARK                         _______ _______ _______ _____ _____    ______ ____
ROOT
ATOM      1  O   UNL     1      36.808 -23.127 -17.005  0.00  0.00    -0.269 OA
ATOM      2  N   UNL     1      34.503 -22.837 -17.400  0.00  0.00    -0.233 N 
ATOM      3  C   UNL     1      35.357 -24.049 -15.402  0.00  0.00    +0.055 C 
ATOM      4  C   UNL     1      32.973 -23.936 -15.896  0.00  0.00    +0.033 C 
ATOM      5  C   UNL     1      35.633 -23.277 -16.667  0.00  0.00    +0.257 C 
ATOM      6  C   UNL     1      34.090 -24.348 -15.078  0.00  0.00    +0.007 C 
ATOM      7  C   UNL     1      33.219 -23.201 -16.993  0.00  0.00    +0.074 C 
ENDROOT
BRANCH   4   9
ATOM      8  N   UNL     1      31.395 -25.171 -14.580  0.00  0.00    -0.244 NA
ATOM      9  C   UNL     1      31.572 -24.248 -15.550  0.00  0.00    +0.083 C 
ATOM     10  C   UNL     1      30.538 -23.608 -16.212  0.00  0.00    +0.019 C 
ATOM     11  C   UNL     1      29.235 -23.936 -15.853  0.00  0.00    +0.003 C 
ATOM     12  C   UNL     1      30.115 -25.465 -14.258  0.00  0.00    +0.099 C 
ATOM     13  C   UNL     1      29.011 -24.880 -14.859  0.00  0.00    +0.021 C 
ENDBRANCH   4   9
BRANCH   3  14
ATOM     14  C   UNL     1      36.457 -24.476 -14.519  0.00  0.00    +0.014 C 
ATOM     15  C   UNL     1      36.342 -24.447 -13.130  0.00  0.00    +0.069 C 
ATOM     16  C   UNL     1      37.640 -24.919 -15.111  0.00  0.00    +0.001 C 
ATOM     17  C   UNL     1      37.409 -24.859 -12.332  0.00  0.00    +0.010 C 
ATOM     18  C   UNL     1      38.707 -25.332 -14.314  0.00  0.00    +0.000 C 
ATOM     19  C   UNL     1      38.591 -25.302 -12.924  0.00  0.00    +0.001 C 
BRANCH  15  21
ATOM     20  N   UNL     1      34.174 -23.636 -11.964  0.00  0.00    -0.191 NA
ATOM     21  C   UNL     1      35.143 -23.998 -12.486  0.00  0.00    +0.100 C 
ENDBRANCH  15  21
ENDBRANCH   3  14
BRANCH   2  22
ATOM     22  C   UNL     1      34.691 -22.033 -18.592  0.00  0.00    +0.058 C 
ATOM     23  C   UNL     1      35.973 -21.649 -18.968  0.00  0.00    +0.015 C 
ATOM     24  C   UNL     1      33.587 -21.655 -19.347  0.00  0.00    +0.015 C 
ATOM     25  C   UNL     1      36.153 -20.876 -20.115  0.00  0.00    +0.001 C 
ATOM     26  C   UNL     1      33.767 -20.882 -20.494  0.00  0.00    +0.001 C 
ATOM     27  C   UNL     1      35.051 -20.492 -20.878  0.00  0.00    +0.000 C 
ENDBRANCH   2  22
TORSDOF 4
ENDMDL
