MODEL 1
REMARK VINA RESULT:     -11.5      0.000      0.000
REMARK  Name = 6323454
REMARK  1 active torsions:
REMARK  status: ('A' for Active; 'I' for Inactive)
REMARK    1  A    between atoms: C_18  and  O_22
REMARK                            x       y       z     vdW  Elec       q    Type
REMARK                         _______ _______ _______ _____ _____    ______ ____
ROOT
ATOM      1  O   UNL     1      34.149 -24.697 -13.620  0.00  0.00    -0.350 OA
ATOM      2  O   UNL     1      37.210 -22.951 -13.789  0.00  0.00    -0.445 OA
ATOM      3  O   UNL     1      37.618 -22.494 -16.512  0.00  0.00    -0.287 OA
ATOM      4  O   UNL     1      38.083 -22.856 -11.657  0.00  0.00    -0.250 OA
ATOM      5  O   UNL     1      32.488 -23.636 -17.410  0.00  0.00    -0.287 OA
ATOM      6  C   UNL     1      35.130 -23.740 -13.281  0.00  0.00    +0.171 C 
ATOM      7  C   UNL     1      36.184 -23.755 -14.360  0.00  0.00    +0.221 C 
ATOM      8  C   UNL     1      35.566 -23.302 -15.647  0.00  0.00    +0.060 C 
ATOM      9  C   UNL     1      33.403 -24.282 -14.796  0.00  0.00    +0.141 C 
ATOM     10  C   UNL     1      34.263 -23.576 -15.854  0.00  0.00    +0.046 C 
ATOM     11  C   UNL     1      35.986 -24.025 -12.073  0.00  0.00    +0.143 C 
ATOM     12  C   UNL     1      37.213 -23.218 -12.434  0.00  0.00    +0.320 C 
ATOM     13  C   UNL     1      36.414 -22.653 -16.675  0.00  0.00    +0.195 C 
ATOM     14  C   UNL     1      33.626 -23.254 -17.162  0.00  0.00    +0.197 C 
ATOM     15  C   UNL     1      32.226 -23.427 -14.316  0.00  0.00    +0.037 C 
ATOM     16  C   UNL     1      35.757 -22.201 -17.914  0.00  0.00    +0.045 C 
ATOM     17  C   UNL     1      34.414 -22.492 -18.148  0.00  0.00    +0.075 C 
ATOM     18  C   UNL     1      33.805 -22.065 -19.335  0.00  0.00    +0.137 C 
ATOM     19  C   UNL     1      36.495 -21.487 -18.866  0.00  0.00    +0.003 C 
ATOM     20  C   UNL     1      34.542 -21.350 -20.281  0.00  0.00    +0.037 C 
ATOM     21  C   UNL     1      35.884 -21.063 -20.047  0.00  0.00    +0.003 C 
ENDROOT
BRANCH  18  22
ATOM     22  O   UNL     1      32.495 -22.308 -19.623  0.00  0.00    -0.505 OA
ATOM     23  H   UNL     1      31.989 -21.666 -20.081  0.00  0.00    +0.292 HD
ENDBRANCH  18  22
TORSDOF 1
ENDMDL
MODEL 2
REMARK VINA RESULT:     -10.4      1.057      1.230
REMARK  Name = 6323454
REMARK  1 active torsions:
REMARK  status: ('A' for Active; 'I' for Inactive)
REMARK    1  A    between atoms: C_18  and  O_22
REMARK                            x       y       z     vdW  Elec       q    Type
REMARK                         _______ _______ _______ _____ _____    ______ ____
ROOT
ATOM      1  O   UNL     1      33.634 -24.469 -14.854  0.00  0.00    -0.350 OA
ATOM      2  O   UNL     1      36.843 -23.003 -14.857  0.00  0.00    -0.445 OA
ATOM      3  O   UNL     1      37.289 -22.277 -17.514  0.00  0.00    -0.287 OA
ATOM      4  O   UNL     1      37.722 -23.233 -12.738  0.00  0.00    -0.250 OA
ATOM      5  O   UNL     1      32.076 -22.833 -18.479  0.00  0.00    -0.287 OA
ATOM      6  C   UNL     1      34.700 -23.651 -14.419  0.00  0.00    +0.171 C 
ATOM      7  C   UNL     1      35.747 -23.639 -15.504  0.00  0.00    +0.221 C 
ATOM      8  C   UNL     1      35.172 -22.987 -16.724  0.00  0.00    +0.060 C 
ATOM      9  C   UNL     1      32.928 -23.855 -15.966  0.00  0.00    +0.141 C 
ATOM     10  C   UNL     1      33.849 -23.115 -16.946  0.00  0.00    +0.046 C 
ATOM     11  C   UNL     1      35.526 -24.150 -13.261  0.00  0.00    +0.143 C 
ATOM     12  C   UNL     1      36.822 -23.423 -13.541  0.00  0.00    +0.320 C 
ATOM     13  C   UNL     1      36.077 -22.305 -17.681  0.00  0.00    +0.195 C 
ATOM     14  C   UNL     1      33.244 -22.588 -18.202  0.00  0.00    +0.197 C 
ATOM     15  C   UNL     1      31.836 -22.956 -15.378  0.00  0.00    +0.037 C 
ATOM     16  C   UNL     1      35.463 -21.655 -18.853  0.00  0.00    +0.045 C 
ATOM     17  C   UNL     1      34.098 -21.793 -19.103  0.00  0.00    +0.075 C 
ATOM     18  C   UNL     1      33.531 -21.179 -20.228  0.00  0.00    +0.137 C 
ATOM     19  C   UNL     1      36.263 -20.908 -19.725  0.00  0.00    +0.003 C 
ATOM     20  C   UNL     1      34.330 -20.432 -21.094  0.00  0.00    +0.037 C 
ATOM     21  C   UNL     1      35.694 -20.297 -20.843  0.00  0.00    +0.003 C 
ENDROOT
BRANCH  18  22
ATOM     22  O   UNL     1      32.204 -21.267 -20.527  0.00  0.00    -0.505 OA
ATOM     23  H   UNL     1      31.889 -20.958 -21.354  0.00  0.00    +0.292 HD
ENDBRANCH  18  22
TORSDOF 1
ENDMDL
MODEL 3
REMARK VINA RESULT:     -10.4      2.058      5.754
REMARK  Name = 6323454
REMARK  1 active torsions:
REMARK  status: ('A' for Active; 'I' for Inactive)
REMARK    1  A    between atoms: C_18  and  O_22
REMARK                            x       y       z     vdW  Elec       q    Type
REMARK                         _______ _______ _______ _____ _____    ______ ____
ROOT
ATOM      1  O   UNL     1      31.786 -23.163 -15.069  0.00  0.00    -0.350 OA
ATOM      2  O   UNL     1      34.030 -23.014 -17.787  0.00  0.00    -0.445 OA
ATOM      3  O   UNL     1      36.561 -23.223 -16.631  0.00  0.00    -0.287 OA
ATOM      4  O   UNL     1      32.799 -22.598 -19.692  0.00  0.00    -0.250 OA
ATOM      5  O   UNL     1      34.297 -25.002 -12.144  0.00  0.00    -0.287 OA
ATOM      6  C   UNL     1      32.313 -23.446 -16.348  0.00  0.00    +0.171 C 
ATOM      7  C   UNL     1      33.712 -22.888 -16.406  0.00  0.00    +0.221 C 
ATOM      8  C   UNL     1      34.566 -23.619 -15.416  0.00  0.00    +0.060 C 
ATOM      9  C   UNL     1      32.473 -23.930 -14.043  0.00  0.00    +0.141 C 
ATOM     10  C   UNL     1      33.979 -24.085 -14.296  0.00  0.00    +0.046 C 
ATOM     11  C   UNL     1      31.696 -22.731 -17.524  0.00  0.00    +0.143 C 
ATOM     12  C   UNL     1      32.863 -22.766 -18.484  0.00  0.00    +0.320 C 
ATOM     13  C   UNL     1      36.025 -23.732 -15.654  0.00  0.00    +0.195 C 
ATOM     14  C   UNL     1      34.800 -24.716 -13.224  0.00  0.00    +0.197 C 
ATOM     15  C   UNL     1      31.749 -25.273 -13.909  0.00  0.00    +0.037 C 
ATOM     16  C   UNL     1      36.821 -24.483 -14.666  0.00  0.00    +0.045 C 
ATOM     17  C   UNL     1      36.229 -24.956 -13.495  0.00  0.00    +0.075 C 
ATOM     18  C   UNL     1      37.000 -25.658 -12.560  0.00  0.00    +0.137 C 
ATOM     19  C   UNL     1      38.182 -24.708 -14.903  0.00  0.00    +0.003 C 
ATOM     20  C   UNL     1      38.356 -25.885 -12.801  0.00  0.00    +0.037 C 
ATOM     21  C   UNL     1      38.946 -25.410 -13.970  0.00  0.00    +0.003 C 
ENDROOT
BRANCH  18  22
ATOM     22  O   UNL     1      36.484 -26.154 -11.400  0.00  0.00    -0.505 OA
ATOM     23  H   UNL     1      36.348 -25.586 -10.667  0.00  0.00    +0.292 HD
ENDBRANCH  18  22
TORSDOF 1
ENDMDL
MODEL 4
REMARK VINA RESULT:     -10.2      1.865      6.139
REMARK  Name = 6323454
REMARK  1 active torsions:
REMARK  status: ('A' for Active; 'I' for Inactive)
REMARK    1  A    between atoms: C_18  and  O_22
REMARK                            x       y       z     vdW  Elec       q    Type
REMARK                         _______ _______ _______ _____ _____    ______ ____
ROOT
ATOM      1  O   UNL     1      36.901 -22.379 -18.247  0.00  0.00    -0.350 OA
ATOM      2  O   UNL     1      33.903 -21.320 -19.775  0.00  0.00    -0.445 OA
ATOM      3  O   UNL     1      31.905 -22.822 -18.534  0.00  0.00    -0.287 OA
ATOM      4  O   UNL     1      34.457 -19.857 -21.469  0.00  0.00    -0.250 OA
ATOM      5  O   UNL     1      35.336 -24.063 -14.647  0.00  0.00    -0.287 OA
ATOM      6  C   UNL     1      35.945 -21.481 -18.770  0.00  0.00    +0.171 C 
ATOM      7  C   UNL     1      34.680 -22.257 -19.038  0.00  0.00    +0.221 C 
ATOM      8  C   UNL     1      34.135 -22.759 -17.737  0.00  0.00    +0.060 C 
ATOM      9  C   UNL     1      36.520 -22.828 -16.918  0.00  0.00    +0.141 C 
ATOM     10  C   UNL     1      35.009 -23.048 -16.753  0.00  0.00    +0.046 C 
ATOM     11  C   UNL     1      36.205 -20.917 -20.144  0.00  0.00    +0.143 C 
ATOM     12  C   UNL     1      34.786 -20.610 -20.566  0.00  0.00    +0.320 C 
ATOM     13  C   UNL     1      32.678 -23.000 -17.601  0.00  0.00    +0.195 C 
ATOM     14  C   UNL     1      34.534 -23.660 -15.481  0.00  0.00    +0.197 C 
ATOM     15  C   UNL     1      37.091 -21.825 -15.911  0.00  0.00    +0.037 C 
ATOM     16  C   UNL     1      32.184 -23.469 -16.294  0.00  0.00    +0.045 C 
ATOM     17  C   UNL     1      33.079 -23.786 -15.273  0.00  0.00    +0.075 C 
ATOM     18  C   UNL     1      32.596 -24.241 -14.040  0.00  0.00    +0.137 C 
ATOM     19  C   UNL     1      30.807 -23.606 -16.085  0.00  0.00    +0.003 C 
ATOM     20  C   UNL     1      31.222 -24.374 -13.833  0.00  0.00    +0.037 C 
ATOM     21  C   UNL     1      30.330 -24.058 -14.854  0.00  0.00    +0.003 C 
ENDROOT
BRANCH  18  22
ATOM     22  O   UNL     1      33.415 -24.562 -12.998  0.00  0.00    -0.505 OA
ATOM     23  H   UNL     1      33.331 -25.395 -12.576  0.00  0.00    +0.292 HD
ENDBRANCH  18  22
TORSDOF 1
ENDMDL
MODEL 5
REMARK VINA RESULT:      -9.9      2.069      5.235
REMARK  Name = 6323454
REMARK  1 active torsions:
REMARK  status: ('A' for Active; 'I' for Inactive)
REMARK    1  A    between atoms: C_18  and  O_22
REMARK                            x       y       z     vdW  Elec       q    Type
REMARK                         _______ _______ _______ _____ _____    ______ ____
ROOT
ATOM      1  O   UNL     1      36.411 -24.005 -15.145  0.00  0.00    -0.350 OA
ATOM      2  O   UNL     1      35.098 -22.099 -17.807  0.00  0.00    -0.445 OA
ATOM      3  O   UNL     1      32.448 -22.942 -18.044  0.00  0.00    -0.287 OA
ATOM      4  O   UNL     1      36.825 -20.862 -18.704  0.00  0.00    -0.250 OA
ATOM      5  O   UNL     1      32.783 -25.159 -13.207  0.00  0.00    -0.287 OA
ATOM      6  C   UNL     1      36.151 -22.863 -15.933  0.00  0.00    +0.171 C 
ATOM      7  C   UNL     1      35.089 -23.227 -16.940  0.00  0.00    +0.221 C 
ATOM      8  C   UNL     1      33.820 -23.547 -16.211  0.00  0.00    +0.060 C 
ATOM      9  C   UNL     1      35.273 -24.325 -14.300  0.00  0.00    +0.141 C 
ATOM     10  C   UNL     1      33.917 -24.086 -14.979  0.00  0.00    +0.046 C 
ATOM     11  C   UNL     1      37.245 -22.398 -16.860  0.00  0.00    +0.143 C 
ATOM     12  C   UNL     1      36.411 -21.682 -17.899  0.00  0.00    +0.320 C 
ATOM     13  C   UNL     1      32.518 -23.345 -16.890  0.00  0.00    +0.195 C 
ATOM     14  C   UNL     1      32.692 -24.532 -14.257  0.00  0.00    +0.197 C 
ATOM     15  C   UNL     1      35.433 -23.540 -12.995  0.00  0.00    +0.037 C 
ATOM     16  C   UNL     1      31.296 -23.649 -16.124  0.00  0.00    +0.045 C 
ATOM     17  C   UNL     1      31.381 -24.221 -14.855  0.00  0.00    +0.075 C 
ATOM     18  C   UNL     1      30.211 -24.515 -14.144  0.00  0.00    +0.137 C 
ATOM     19  C   UNL     1      30.044 -23.372 -16.684  0.00  0.00    +0.003 C 
ATOM     20  C   UNL     1      28.964 -24.234 -14.703  0.00  0.00    +0.037 C 
ATOM     21  C   UNL     1      28.880 -23.664 -15.971  0.00  0.00    +0.003 C 
ENDROOT
BRANCH  18  22
ATOM     22  O   UNL     1      30.223 -25.068 -12.898  0.00  0.00    -0.505 OA
ATOM     23  H   UNL     1      30.239 -24.515 -12.141  0.00  0.00    +0.292 HD
ENDBRANCH  18  22
TORSDOF 1
ENDMDL
MODEL 6
REMARK VINA RESULT:      -9.9      1.726      4.428
REMARK  Name = 6323454
REMARK  1 active torsions:
REMARK  status: ('A' for Active; 'I' for Inactive)
REMARK    1  A    between atoms: C_18  and  O_22
REMARK                            x       y       z     vdW  Elec       q    Type
REMARK                         _______ _______ _______ _____ _____    ______ ____
ROOT
ATOM      1  O   UNL     1      33.049 -24.290 -13.194  0.00  0.00    -0.350 OA
ATOM      2  O   UNL     1      30.672 -24.606 -15.782  0.00  0.00    -0.445 OA
ATOM      3  O   UNL     1      31.570 -22.882 -17.785  0.00  0.00    -0.287 OA
ATOM      4  O   UNL     1      28.980 -25.974 -15.018  0.00  0.00    -0.250 OA
ATOM      5  O   UNL     1      36.338 -22.701 -15.408  0.00  0.00    -0.287 OA
ATOM      6  C   UNL     1      32.175 -24.933 -14.097  0.00  0.00    +0.171 C 
ATOM      7  C   UNL     1      31.710 -23.910 -15.102  0.00  0.00    +0.221 C 
ATOM      8  C   UNL     1      32.889 -23.444 -15.900  0.00  0.00    +0.060 C 
ATOM      9  C   UNL     1      34.288 -23.909 -13.852  0.00  0.00    +0.141 C 
ATOM     10  C   UNL     1      34.094 -23.424 -15.296  0.00  0.00    +0.046 C 
ATOM     11  C   UNL     1      30.845 -25.399 -13.560  0.00  0.00    +0.143 C 
ATOM     12  C   UNL     1      30.037 -25.388 -14.838  0.00  0.00    +0.320 C 
ATOM     13  C   UNL     1      32.684 -22.946 -17.281  0.00  0.00    +0.195 C 
ATOM     14  C   UNL     1      35.279 -22.861 -16.003  0.00  0.00    +0.197 C 
ATOM     15  C   UNL     1      35.250 -25.096 -13.745  0.00  0.00    +0.037 C 
ATOM     16  C   UNL     1      33.877 -22.523 -18.036  0.00  0.00    +0.045 C 
ATOM     17  C   UNL     1      35.127 -22.483 -17.419  0.00  0.00    +0.075 C 
ATOM     18  C   UNL     1      36.249 -22.068 -18.147  0.00  0.00    +0.137 C 
ATOM     19  C   UNL     1      33.746 -22.148 -19.379  0.00  0.00    +0.003 C 
ATOM     20  C   UNL     1      36.117 -21.698 -19.486  0.00  0.00    +0.037 C 
ATOM     21  C   UNL     1      34.868 -21.738 -20.100  0.00  0.00    +0.003 C 
ENDROOT
BRANCH  18  22
ATOM     22  O   UNL     1      37.500 -22.012 -17.608  0.00  0.00    -0.505 OA
ATOM     23  H   UNL     1      37.729 -22.578 -16.896  0.00  0.00    +0.292 HD
ENDBRANCH  18  22
TORSDOF 1
ENDMDL
MODEL 7
REMARK VINA RESULT:      -9.3     12.786     15.617
REMARK  Name = 6323454
REMARK  1 active torsions:
REMARK  status: ('A' for Active; 'I' for Inactive)
REMARK    1  A    between atoms: C_18  and  O_22
REMARK                            x       y       z     vdW  Elec       q    Type
REMARK                         _______ _______ _______ _____ _____    ______ ____
ROOT
ATOM      1  O   UNL     1      31.279 -11.853 -22.041  0.00  0.00    -0.350 OA
ATOM      2  O   UNL     1      34.238 -12.610 -23.806  0.00  0.00    -0.445 OA
ATOM      3  O   UNL     1      34.698 -10.375 -25.413  0.00  0.00    -0.287 OA
ATOM      4  O   UNL     1      34.833 -14.776 -23.285  0.00  0.00    -0.250 OA
ATOM      5  O   UNL     1      31.259  -7.599 -22.432  0.00  0.00    -0.287 OA
ATOM      6  C   UNL     1      32.598 -12.312 -22.249  0.00  0.00    +0.171 C 
ATOM      7  C   UNL     1      33.023 -11.892 -23.633  0.00  0.00    +0.221 C 
ATOM      8  C   UNL     1      33.072 -10.396 -23.691  0.00  0.00    +0.060 C 
ATOM      9  C   UNL     1      31.242 -10.403 -21.955  0.00  0.00    +0.141 C 
ATOM     10  C   UNL     1      32.214  -9.704 -22.916  0.00  0.00    +0.046 C 
ATOM     11  C   UNL     1      32.804 -13.803 -22.351  0.00  0.00    +0.143 C 
ATOM     12  C   UNL     1      34.070 -13.828 -23.178  0.00  0.00    +0.320 C 
ATOM     13  C   UNL     1      33.990  -9.733 -24.647  0.00  0.00    +0.195 C 
ATOM     14  C   UNL     1      32.138  -8.219 -23.019  0.00  0.00    +0.197 C 
ATOM     15  C   UNL     1      31.474 -10.022 -20.489  0.00  0.00    +0.037 C 
ATOM     16  C   UNL     1      34.023  -8.259 -24.650  0.00  0.00    +0.045 C 
ATOM     17  C   UNL     1      33.130  -7.531 -23.865  0.00  0.00    +0.075 C 
ATOM     18  C   UNL     1      33.166  -6.131 -23.886  0.00  0.00    +0.137 C 
ATOM     19  C   UNL     1      34.951  -7.591 -25.458  0.00  0.00    +0.003 C 
ATOM     20  C   UNL     1      34.094  -5.467 -24.690  0.00  0.00    +0.037 C 
ATOM     21  C   UNL     1      34.984  -6.196 -25.475  0.00  0.00    +0.003 C 
ENDROOT
BRANCH  18  22
ATOM     22  O   UNL     1      32.327  -5.359 -23.139  0.00  0.00    -0.505 OA
ATOM     23  H   UNL     1      32.557  -4.472 -22.943  0.00  0.00    +0.292 HD
ENDBRANCH  18  22
TORSDOF 1
ENDMDL
MODEL 8
REMARK VINA RESULT:      -9.2      2.336      5.372
REMARK  Name = 6323454
REMARK  1 active torsions:
REMARK  status: ('A' for Active; 'I' for Inactive)
REMARK    1  A    between atoms: C_18  and  O_22
REMARK                            x       y       z     vdW  Elec       q    Type
REMARK                         _______ _______ _______ _____ _____    ______ ____
ROOT
ATOM      1  O   UNL     1      30.595 -24.021 -14.067  0.00  0.00    -0.350 OA
ATOM      2  O   UNL     1      29.608 -23.681 -17.437  0.00  0.00    -0.445 OA
ATOM      3  O   UNL     1      31.663 -22.223 -18.636  0.00  0.00    -0.287 OA
ATOM      4  O   UNL     1      27.492 -24.575 -17.643  0.00  0.00    -0.250 OA
ATOM      5  O   UNL     1      34.789 -23.309 -14.456  0.00  0.00    -0.287 OA
ATOM      6  C   UNL     1      30.091 -24.406 -15.329  0.00  0.00    +0.171 C 
ATOM      7  C   UNL     1      30.364 -23.285 -16.299  0.00  0.00    +0.221 C 
ATOM      8  C   UNL     1      31.846 -23.130 -16.455  0.00  0.00    +0.060 C 
ATOM      9  C   UNL     1      32.047 -23.965 -14.083  0.00  0.00    +0.141 C 
ATOM     10  C   UNL     1      32.628 -23.429 -15.399  0.00  0.00    +0.046 C 
ATOM     11  C   UNL     1      28.594 -24.519 -15.471  0.00  0.00    +0.143 C 
ATOM     12  C   UNL     1      28.461 -24.284 -16.959  0.00  0.00    +0.320 C 
ATOM     13  C   UNL     1      32.392 -22.579 -17.719  0.00  0.00    +0.195 C 
ATOM     14  C   UNL     1      34.096 -23.183 -15.459  0.00  0.00    +0.197 C 
ATOM     15  C   UNL     1      32.566 -25.362 -13.726  0.00  0.00    +0.037 C 
ATOM     16  C   UNL     1      33.858 -22.469 -17.836  0.00  0.00    +0.045 C 
ATOM     17  C   UNL     1      34.677 -22.761 -16.746  0.00  0.00    +0.075 C 
ATOM     18  C   UNL     1      36.067 -22.641 -16.870  0.00  0.00    +0.137 C 
ATOM     19  C   UNL     1      34.423 -22.057 -19.048  0.00  0.00    +0.003 C 
ATOM     20  C   UNL     1      36.630 -22.233 -18.080  0.00  0.00    +0.037 C 
ATOM     21  C   UNL     1      35.809 -21.941 -19.167  0.00  0.00    +0.003 C 
ENDROOT
BRANCH  18  22
ATOM     22  O   UNL     1      36.927 -22.917 -15.848  0.00  0.00    -0.505 OA
ATOM     23  H   UNL     1      36.733 -22.618 -14.980  0.00  0.00    +0.292 HD
ENDBRANCH  18  22
TORSDOF 1
ENDMDL
MODEL 9
REMARK VINA RESULT:      -9.2      2.196      4.891
REMARK  Name = 6323454
REMARK  1 active torsions:
REMARK  status: ('A' for Active; 'I' for Inactive)
REMARK    1  A    between atoms: C_18  and  O_22
REMARK                            x       y       z     vdW  Elec       q    Type
REMARK                         _______ _______ _______ _____ _____    ______ ____
ROOT
ATOM      1  O   UNL     1      35.555 -22.599 -16.678  0.00  0.00    -0.350 OA
ATOM      2  O   UNL     1      35.438 -24.998 -14.095  0.00  0.00    -0.445 OA
ATOM      3  O   UNL     1      32.777 -25.007 -13.253  0.00  0.00    -0.287 OA
ATOM      4  O   UNL     1      37.593 -25.723 -13.711  0.00  0.00    -0.250 OA
ATOM      5  O   UNL     1      31.417 -22.449 -17.729  0.00  0.00    -0.287 OA
ATOM      6  C   UNL     1      35.801 -23.821 -16.014  0.00  0.00    +0.171 C 
ATOM      7  C   UNL     1      34.927 -23.866 -14.787  0.00  0.00    +0.221 C 
ATOM      8  C   UNL     1      33.492 -23.888 -15.215  0.00  0.00    +0.060 C 
ATOM      9  C   UNL     1      34.216 -22.576 -17.244  0.00  0.00    +0.141 C 
ATOM     10  C   UNL     1      33.163 -23.258 -16.360  0.00  0.00    +0.046 C 
ATOM     11  C   UNL     1      37.157 -24.002 -15.379  0.00  0.00    +0.143 C 
ATOM     12  C   UNL     1      36.803 -25.009 -14.307  0.00  0.00    +0.320 C 
ATOM     13  C   UNL     1      32.478 -24.520 -14.336  0.00  0.00    +0.195 C 
ATOM     14  C   UNL     1      31.735 -23.148 -16.774  0.00  0.00    +0.197 C 
ATOM     15  C   UNL     1      34.299 -23.180 -18.649  0.00  0.00    +0.037 C 
ATOM     16  C   UNL     1      31.083 -24.541 -14.812  0.00  0.00    +0.045 C 
ATOM     17  C   UNL     1      30.727 -23.880 -15.986  0.00  0.00    +0.075 C 
ATOM     18  C   UNL     1      29.395 -23.900 -16.419  0.00  0.00    +0.137 C 
ATOM     19  C   UNL     1      30.111 -25.221 -14.068  0.00  0.00    +0.003 C 
ATOM     20  C   UNL     1      28.428 -24.581 -15.678  0.00  0.00    +0.037 C 
ATOM     21  C   UNL     1      28.786 -25.240 -14.504  0.00  0.00    +0.003 C 
ENDROOT
BRANCH  18  22
ATOM     22  O   UNL     1      28.980 -23.281 -17.561  0.00  0.00    -0.505 OA
ATOM     23  H   UNL     1      28.080 -23.328 -17.818  0.00  0.00    +0.292 HD
ENDBRANCH  18  22
TORSDOF 1
ENDMDL
