MODEL 1
REMARK VINA RESULT:     -12.6      0.000      0.000
REMARK  Name = 11840906
REMARK  7 active torsions:
REMARK  status: ('A' for Active; 'I' for Inactive)
REMARK    1  A    between atoms: O_1  and  C_3
REMARK    2  A    between atoms: O_1  and  C_18
REMARK    3  A    between atoms: C_5  and  C_9
REMARK    4  A    between atoms: C_18  and  C_19
REMARK    5  A    between atoms: C_19  and  N_20
REMARK    6  A    between atoms: C_19  and  C_24
REMARK    7  A    between atoms: C_24  and  C_26
REMARK                            x       y       z     vdW  Elec       q    Type
REMARK                         _______ _______ _______ _____ _____    ______ ____
ROOT
ATOM      1  O   UNL     1      35.245 -15.272 -23.508  0.00  0.00    -0.476 OA
ENDROOT
BRANCH   1   3
ATOM      2  N   UNL     1      34.145 -18.416 -24.988  0.00  0.00    -0.239 NA
ATOM      3  C   UNL     1      34.937 -16.603 -23.620  0.00  0.00    +0.158 C 
ATOM      4  C   UNL     1      35.095 -17.454 -22.541  0.00  0.00    +0.040 C 
ATOM      5  C   UNL     1      34.774 -18.799 -22.686  0.00  0.00    +0.022 C 
ATOM      6  C   UNL     1      34.467 -17.115 -24.810  0.00  0.00    +0.136 C 
ATOM      7  C   UNL     1      34.307 -19.226 -23.918  0.00  0.00    +0.099 C 
BRANCH   5   9
ATOM      8  N   UNL     1      34.240 -23.036 -17.817  0.00  0.00    -0.242 NA
ATOM      9  C   UNL     1      34.922 -19.722 -21.584  0.00  0.00    +0.002 C 
ATOM     10  C   UNL     1      33.926 -21.243 -19.965  0.00  0.00    +0.003 C 
ATOM     11  C   UNL     1      33.797 -20.344 -21.037  0.00  0.00    +0.000 C 
ATOM     12  C   UNL     1      35.209 -21.511 -19.445  0.00  0.00    +0.019 C 
ATOM     13  C   UNL     1      36.188 -19.990 -21.065  0.00  0.00    +0.000 C 
ATOM     14  C   UNL     1      36.334 -20.881 -20.001  0.00  0.00    +0.002 C 
ATOM     15  C   UNL     1      32.817 -21.881 -19.396  0.00  0.00    +0.021 C 
ATOM     16  C   UNL     1      35.298 -22.409 -18.380  0.00  0.00    +0.099 C 
ATOM     17  C   UNL     1      33.028 -22.755 -18.341  0.00  0.00    +0.099 C 
ENDBRANCH   5   9
ENDBRANCH   1   3
BRANCH   1  18
ATOM     18  C   UNL     1      34.203 -14.408 -23.074  0.00  0.00    +0.184 C 
BRANCH  18  19
ATOM     19  C   UNL     1      33.845 -13.423 -24.192  0.00  0.00    -0.021 C 
BRANCH  19  20
ATOM     20  N   UNL     1      32.760 -13.995 -24.990  0.00  0.00    +0.384 N 
ATOM     21  H   UNL     1      31.885 -13.522 -24.763  0.00  0.00    -0.089 HD
ATOM     22  H   UNL     1      32.673 -14.990 -24.782  0.00  0.00    -0.089 HD
ATOM     23  H   UNL     1      32.966 -13.872 -25.982  0.00  0.00    -0.089 HD
ENDBRANCH  19  20
BRANCH  19  24
ATOM     24  C   UNL     1      33.447 -12.045 -23.623  0.00  0.00    -0.012 C 
BRANCH  24  26
ATOM     25  N   UNL     1      35.514  -9.942 -25.427  0.00  0.00    -0.270 NA
ATOM     26  C   UNL     1      33.479 -10.925 -24.646  0.00  0.00    +0.046 C 
ATOM     27  C   UNL     1      33.668  -9.566 -24.055  0.00  0.00    -0.007 C 
ATOM     28  C   UNL     1      34.750 -10.991 -25.487  0.00  0.00    +0.130 C 
ATOM     29  C   UNL     1      34.870  -9.048 -24.554  0.00  0.00    +0.071 C 
ATOM     30  C   UNL     1      32.875  -8.846 -23.182  0.00  0.00    -0.024 C 
ATOM     31  C   UNL     1      35.308  -7.789 -24.179  0.00  0.00    +0.014 C 
ATOM     32  C   UNL     1      33.311  -7.576 -22.799  0.00  0.00    +0.052 C 
ATOM     33  C   UNL     1      34.517  -7.052 -23.293  0.00  0.00    -0.020 C 
ENDBRANCH  24  26
ENDBRANCH  19  24
ENDBRANCH  18  19
ENDBRANCH   1  18
TORSDOF 7
ENDMDL
MODEL 2
REMARK VINA RESULT:     -12.1      1.607      2.531
REMARK  Name = 11840906
REMARK  7 active torsions:
REMARK  status: ('A' for Active; 'I' for Inactive)
REMARK    1  A    between atoms: O_1  and  C_3
REMARK    2  A    between atoms: O_1  and  C_18
REMARK    3  A    between atoms: C_5  and  C_9
REMARK    4  A    between atoms: C_18  and  C_19
REMARK    5  A    between atoms: C_19  and  N_20
REMARK    6  A    between atoms: C_19  and  C_24
REMARK    7  A    between atoms: C_24  and  C_26
REMARK                            x       y       z     vdW  Elec       q    Type
REMARK                         _______ _______ _______ _____ _____    ______ ____
ROOT
ATOM      1  O   UNL     1      34.261 -13.594 -23.652  0.00  0.00    -0.476 OA
ENDROOT
BRANCH   1   3
ATOM      2  N   UNL     1      33.784 -16.647 -25.584  0.00  0.00    -0.239 NA
ATOM      3  C   UNL     1      34.251 -14.928 -23.968  0.00  0.00    +0.158 C 
ATOM      4  C   UNL     1      34.675 -15.871 -23.050  0.00  0.00    +0.040 C 
ATOM      5  C   UNL     1      34.653 -17.217 -23.401  0.00  0.00    +0.022 C 
ATOM      6  C   UNL     1      33.820 -15.349 -25.208  0.00  0.00    +0.136 C 
ATOM      7  C   UNL     1      34.203 -17.549 -24.668  0.00  0.00    +0.099 C 
BRANCH   5   9
ATOM      8  N   UNL     1      35.423 -22.063 -19.175  0.00  0.00    -0.242 NA
ATOM      9  C   UNL     1      35.086 -18.234 -22.473  0.00  0.00    +0.002 C 
ATOM     10  C   UNL     1      34.556 -20.087 -20.984  0.00  0.00    +0.003 C 
ATOM     11  C   UNL     1      34.150 -19.093 -21.890  0.00  0.00    +0.000 C 
ATOM     12  C   UNL     1      35.924 -20.210 -20.668  0.00  0.00    +0.019 C 
ATOM     13  C   UNL     1      36.438 -18.360 -22.155  0.00  0.00    +0.000 C 
ATOM     14  C   UNL     1      36.858 -19.342 -21.258  0.00  0.00    +0.002 C 
ATOM     15  C   UNL     1      33.641 -20.962 -20.385  0.00  0.00    +0.021 C 
ATOM     16  C   UNL     1      36.291 -21.209 -19.764  0.00  0.00    +0.099 C 
ATOM     17  C   UNL     1      34.121 -21.917 -19.502  0.00  0.00    +0.099 C 
ENDBRANCH   5   9
ENDBRANCH   1   3
BRANCH   1  18
ATOM     18  C   UNL     1      33.799 -12.695 -24.651  0.00  0.00    +0.184 C 
BRANCH  18  19
ATOM     19  C   UNL     1      34.199 -11.262 -24.287  0.00  0.00    -0.021 C 
BRANCH  19  20
ATOM     20  N   UNL     1      35.153 -10.774 -25.283  0.00  0.00    +0.384 N 
ATOM     21  H   UNL     1      35.941 -11.420 -25.344  0.00  0.00    -0.089 HD
ATOM     22  H   UNL     1      35.490  -9.851 -25.009  0.00  0.00    -0.089 HD
ATOM     23  H   UNL     1      34.694 -10.712 -26.192  0.00  0.00    -0.089 HD
ENDBRANCH  19  20
BRANCH  19  24
ATOM     24  C   UNL     1      32.967 -10.337 -24.200  0.00  0.00    -0.012 C 
BRANCH  24  26
ATOM     25  N   UNL     1      31.330  -7.692 -22.691  0.00  0.00    -0.270 NA
ATOM     26  C   UNL     1      33.082  -9.256 -23.142  0.00  0.00    +0.046 C 
ATOM     27  C   UNL     1      33.428  -7.907 -23.684  0.00  0.00    -0.007 C 
ATOM     28  C   UNL     1      31.716  -8.924 -22.550  0.00  0.00    +0.130 C 
ATOM     29  C   UNL     1      32.368  -7.043 -23.384  0.00  0.00    +0.071 C 
ATOM     30  C   UNL     1      34.551  -7.470 -24.359  0.00  0.00    -0.024 C 
ATOM     31  C   UNL     1      32.410  -5.712 -23.764  0.00  0.00    +0.014 C 
ATOM     32  C   UNL     1      34.600  -6.129 -24.746  0.00  0.00    +0.052 C 
ATOM     33  C   UNL     1      33.539  -5.258 -24.451  0.00  0.00    -0.020 C 
ENDBRANCH  24  26
ENDBRANCH  19  24
ENDBRANCH  18  19
ENDBRANCH   1  18
TORSDOF 7
ENDMDL
MODEL 3
REMARK VINA RESULT:     -12.0      1.831      2.344
REMARK  Name = 11840906
REMARK  7 active torsions:
REMARK  status: ('A' for Active; 'I' for Inactive)
REMARK    1  A    between atoms: O_1  and  C_3
REMARK    2  A    between atoms: O_1  and  C_18
REMARK    3  A    between atoms: C_5  and  C_9
REMARK    4  A    between atoms: C_18  and  C_19
REMARK    5  A    between atoms: C_19  and  N_20
REMARK    6  A    between atoms: C_19  and  C_24
REMARK    7  A    between atoms: C_24  and  C_26
REMARK                            x       y       z     vdW  Elec       q    Type
REMARK                         _______ _______ _______ _____ _____    ______ ____
ROOT
ATOM      1  O   UNL     1      34.808 -14.795 -23.650  0.00  0.00    -0.476 OA
ENDROOT
BRANCH   1   3
ATOM      2  N   UNL     1      34.075 -17.989 -25.246  0.00  0.00    -0.239 NA
ATOM      3  C   UNL     1      34.653 -16.148 -23.810  0.00  0.00    +0.158 C 
ATOM      4  C   UNL     1      34.904 -17.013 -22.761  0.00  0.00    +0.040 C 
ATOM      5  C   UNL     1      34.739 -18.380 -22.954  0.00  0.00    +0.022 C 
ATOM      6  C   UNL     1      34.247 -16.668 -25.021  0.00  0.00    +0.136 C 
ATOM      7  C   UNL     1      34.326 -18.813 -24.204  0.00  0.00    +0.099 C 
BRANCH   5   9
ATOM      8  N   UNL     1      34.668 -22.774 -18.197  0.00  0.00    -0.242 NA
ATOM      9  C   UNL     1      34.988 -19.319 -21.885  0.00  0.00    +0.002 C 
ATOM     10  C   UNL     1      34.157 -20.952 -20.282  0.00  0.00    +0.003 C 
ATOM     11  C   UNL     1      33.929 -20.037 -21.323  0.00  0.00    +0.000 C 
ATOM     12  C   UNL     1      35.471 -21.139 -19.808  0.00  0.00    +0.019 C 
ATOM     13  C   UNL     1      36.286 -19.507 -21.411  0.00  0.00    +0.000 C 
ATOM     14  C   UNL     1      36.529 -20.412 -20.377  0.00  0.00    +0.002 C 
ATOM     15  C   UNL     1      33.116 -21.686 -19.700  0.00  0.00    +0.021 C 
ATOM     16  C   UNL     1      35.659 -22.056 -18.772  0.00  0.00    +0.099 C 
ATOM     17  C   UNL     1      33.422 -22.570 -18.678  0.00  0.00    +0.099 C 
ENDBRANCH   5   9
ENDBRANCH   1   3
BRANCH   1  18
ATOM     18  C   UNL     1      33.921 -13.959 -24.381  0.00  0.00    +0.184 C 
BRANCH  18  19
ATOM     19  C   UNL     1      33.021 -13.184 -23.412  0.00  0.00    -0.021 C 
BRANCH  19  20
ATOM     20  N   UNL     1      33.081 -13.829 -22.100  0.00  0.00    +0.384 N 
ATOM     21  H   UNL     1      33.756 -13.339 -21.511  0.00  0.00    -0.089 HD
ATOM     22  H   UNL     1      33.370 -14.801 -22.212  0.00  0.00    -0.089 HD
ATOM     23  H   UNL     1      32.161 -13.795 -21.662  0.00  0.00    -0.089 HD
ENDBRANCH  19  20
BRANCH  19  24
ATOM     24  C   UNL     1      33.437 -11.700 -23.320  0.00  0.00    -0.012 C 
BRANCH  24  26
ATOM     25  N   UNL     1      32.539  -8.386 -22.924  0.00  0.00    -0.270 NA
ATOM     26  C   UNL     1      32.268 -10.735 -23.277  0.00  0.00    +0.046 C 
ATOM     27  C   UNL     1      31.842 -10.357 -21.895  0.00  0.00    -0.007 C 
ATOM     28  C   UNL     1      32.680  -9.355 -23.777  0.00  0.00    +0.130 C 
ATOM     29  C   UNL     1      32.022  -8.975 -21.757  0.00  0.00    +0.071 C 
ATOM     30  C   UNL     1      31.340 -11.130 -20.866  0.00  0.00    -0.024 C 
ATOM     31  C   UNL     1      31.705  -8.335 -20.571  0.00  0.00    +0.014 C 
ATOM     32  C   UNL     1      31.018 -10.490 -19.666  0.00  0.00    +0.052 C 
ATOM     33  C   UNL     1      31.200  -9.105 -19.520  0.00  0.00    -0.020 C 
ENDBRANCH  24  26
ENDBRANCH  19  24
ENDBRANCH  18  19
ENDBRANCH   1  18
TORSDOF 7
ENDMDL
MODEL 4
REMARK VINA RESULT:     -11.9      1.607      2.119
REMARK  Name = 11840906
REMARK  7 active torsions:
REMARK  status: ('A' for Active; 'I' for Inactive)
REMARK    1  A    between atoms: O_1  and  C_3
REMARK    2  A    between atoms: O_1  and  C_18
REMARK    3  A    between atoms: C_5  and  C_9
REMARK    4  A    between atoms: C_18  and  C_19
REMARK    5  A    between atoms: C_19  and  N_20
REMARK    6  A    between atoms: C_19  and  C_24
REMARK    7  A    between atoms: C_24  and  C_26
REMARK                            x       y       z     vdW  Elec       q    Type
REMARK                         _______ _______ _______ _____ _____    ______ ____
ROOT
ATOM      1  O   UNL     1      34.783 -14.395 -23.310  0.00  0.00    -0.476 OA
ENDROOT
BRANCH   1   3
ATOM      2  N   UNL     1      34.117 -17.461 -25.165  0.00  0.00    -0.239 NA
ATOM      3  C   UNL     1      34.649 -15.732 -23.579  0.00  0.00    +0.158 C 
ATOM      4  C   UNL     1      34.896 -16.675 -22.597  0.00  0.00    +0.040 C 
ATOM      5  C   UNL     1      34.752 -18.024 -22.901  0.00  0.00    +0.022 C 
ATOM      6  C   UNL     1      34.267 -16.159 -24.833  0.00  0.00    +0.136 C 
ATOM      7  C   UNL     1      34.364 -18.362 -24.187  0.00  0.00    +0.099 C 
BRANCH   5   9
ATOM      8  N   UNL     1      34.664 -22.742 -18.465  0.00  0.00    -0.242 NA
ATOM      9  C   UNL     1      34.999 -19.041 -21.906  0.00  0.00    +0.002 C 
ATOM     10  C   UNL     1      34.158 -20.766 -20.406  0.00  0.00    +0.003 C 
ATOM     11  C   UNL     1      33.934 -19.775 -21.376  0.00  0.00    +0.000 C 
ATOM     12  C   UNL     1      35.476 -21.014 -19.971  0.00  0.00    +0.019 C 
ATOM     13  C   UNL     1      36.300 -19.290 -21.471  0.00  0.00    +0.000 C 
ATOM     14  C   UNL     1      36.540 -20.271 -20.508  0.00  0.00    +0.002 C 
ATOM     15  C   UNL     1      33.111 -21.517 -19.858  0.00  0.00    +0.021 C 
ATOM     16  C   UNL     1      35.661 -22.007 -19.007  0.00  0.00    +0.099 C 
ATOM     17  C   UNL     1      33.415 -22.478 -18.907  0.00  0.00    +0.099 C 
ENDBRANCH   5   9
ENDBRANCH   1   3
BRANCH   1  18
ATOM     18  C   UNL     1      34.219 -13.928 -22.091  0.00  0.00    +0.184 C 
BRANCH  18  19
ATOM     19  C   UNL     1      32.694 -13.854 -22.218  0.00  0.00    -0.021 C 
BRANCH  19  20
ATOM     20  N   UNL     1      32.122 -13.667 -20.884  0.00  0.00    +0.384 N 
ATOM     21  H   UNL     1      32.713 -14.129 -20.193  0.00  0.00    -0.089 HD
ATOM     22  H   UNL     1      31.186 -14.071 -20.856  0.00  0.00    -0.089 HD
ATOM     23  H   UNL     1      32.069 -12.670 -20.674  0.00  0.00    -0.089 HD
ENDBRANCH  19  20
BRANCH  19  24
ATOM     24  C   UNL     1      32.262 -12.720 -23.171  0.00  0.00    -0.012 C 
BRANCH  24  26
ATOM     25  N   UNL     1      31.982  -9.280 -23.370  0.00  0.00    -0.270 NA
ATOM     26  C   UNL     1      32.983 -11.407 -22.930  0.00  0.00    +0.046 C 
ATOM     27  C   UNL     1      33.564 -10.796 -24.164  0.00  0.00    -0.007 C 
ATOM     28  C   UNL     1      31.996 -10.301 -22.568  0.00  0.00    +0.130 C 
ATOM     29  C   UNL     1      32.940  -9.558 -24.361  0.00  0.00    +0.071 C 
ATOM     30  C   UNL     1      34.541 -11.261 -25.023  0.00  0.00    -0.024 C 
ATOM     31  C   UNL     1      33.282  -8.755 -25.436  0.00  0.00    +0.014 C 
ATOM     32  C   UNL     1      34.891 -10.457 -26.110  0.00  0.00    +0.052 C 
ATOM     33  C   UNL     1      34.267  -9.216 -26.315  0.00  0.00    -0.020 C 
ENDBRANCH  24  26
ENDBRANCH  19  24
ENDBRANCH  18  19
ENDBRANCH   1  18
TORSDOF 7
ENDMDL
MODEL 5
REMARK VINA RESULT:     -11.8      3.093     11.925
REMARK  Name = 11840906
REMARK  7 active torsions:
REMARK  status: ('A' for Active; 'I' for Inactive)
REMARK    1  A    between atoms: O_1  and  C_3
REMARK    2  A    between atoms: O_1  and  C_18
REMARK    3  A    between atoms: C_5  and  C_9
REMARK    4  A    between atoms: C_18  and  C_19
REMARK    5  A    between atoms: C_19  and  N_20
REMARK    6  A    between atoms: C_19  and  C_24
REMARK    7  A    between atoms: C_24  and  C_26
REMARK                            x       y       z     vdW  Elec       q    Type
REMARK                         _______ _______ _______ _____ _____    ______ ____
ROOT
ATOM      1  O   UNL     1      34.465 -21.831 -20.235  0.00  0.00    -0.476 OA
ENDROOT
BRANCH   1   3
ATOM      2  N   UNL     1      37.266 -19.508 -20.448  0.00  0.00    -0.239 NA
ATOM      3  C   UNL     1      35.210 -20.746 -20.618  0.00  0.00    +0.158 C 
ATOM      4  C   UNL     1      34.702 -19.826 -21.517  0.00  0.00    +0.040 C 
ATOM      5  C   UNL     1      35.482 -18.736 -21.886  0.00  0.00    +0.022 C 
ATOM      6  C   UNL     1      36.479 -20.555 -20.113  0.00  0.00    +0.136 C 
ATOM      7  C   UNL     1      36.744 -18.623 -21.328  0.00  0.00    +0.099 C 
BRANCH   5   9
ATOM      8  N   UNL     1      33.465 -13.538 -25.181  0.00  0.00    -0.242 NA
ATOM      9  C   UNL     1      34.989 -17.751 -22.820  0.00  0.00    +0.002 C 
ATOM     10  C   UNL     1      34.430 -15.439 -23.342  0.00  0.00    +0.003 C 
ATOM     11  C   UNL     1      34.909 -16.408 -22.444  0.00  0.00    +0.000 C 
ATOM     12  C   UNL     1      34.031 -15.839 -24.633  0.00  0.00    +0.019 C 
ATOM     13  C   UNL     1      34.592 -18.141 -24.099  0.00  0.00    +0.000 C 
ATOM     14  C   UNL     1      34.115 -17.191 -25.003  0.00  0.00    +0.002 C 
ATOM     15  C   UNL     1      34.339 -14.086 -22.993  0.00  0.00    +0.021 C 
ATOM     16  C   UNL     1      33.562 -14.849 -25.499  0.00  0.00    +0.099 C 
ATOM     17  C   UNL     1      33.858 -13.192 -23.936  0.00  0.00    +0.099 C 
ENDBRANCH   5   9
ENDBRANCH   1   3
BRANCH   1  18
ATOM     18  C   UNL     1      34.754 -22.388 -18.959  0.00  0.00    +0.184 C 
BRANCH  18  19
ATOM     19  C   UNL     1      33.493 -22.375 -18.089  0.00  0.00    -0.021 C 
BRANCH  19  20
ATOM     20  N   UNL     1      32.321 -22.338 -18.964  0.00  0.00    +0.384 N 
ATOM     21  H   UNL     1      31.570 -21.821 -18.506  0.00  0.00    -0.089 HD
ATOM     22  H   UNL     1      32.009 -23.290 -19.157  0.00  0.00    -0.089 HD
ATOM     23  H   UNL     1      32.565 -21.876 -19.841  0.00  0.00    -0.089 HD
ENDBRANCH  19  20
BRANCH  19  24
ATOM     24  C   UNL     1      33.443 -23.599 -17.149  0.00  0.00    -0.012 C 
BRANCH  24  26
ATOM     25  N   UNL     1      32.613 -24.967 -14.086  0.00  0.00    -0.270 NA
ATOM     26  C   UNL     1      32.814 -23.312 -15.799  0.00  0.00    +0.046 C 
ATOM     27  C   UNL     1      31.398 -23.774 -15.676  0.00  0.00    -0.007 C 
ATOM     28  C   UNL     1      33.436 -24.182 -14.712  0.00  0.00    +0.130 C 
ATOM     29  C   UNL     1      31.350 -24.734 -14.658  0.00  0.00    +0.071 C 
ATOM     30  C   UNL     1      30.265 -23.393 -16.369  0.00  0.00    -0.024 C 
ATOM     31  C   UNL     1      30.155 -25.343 -14.315  0.00  0.00    +0.014 C 
ATOM     32  C   UNL     1      29.056 -24.003 -16.028  0.00  0.00    +0.052 C 
ATOM     33  C   UNL     1      29.002 -24.970 -15.010  0.00  0.00    -0.020 C 
ENDBRANCH  24  26
ENDBRANCH  19  24
ENDBRANCH  18  19
ENDBRANCH   1  18
TORSDOF 7
ENDMDL
MODEL 6
REMARK VINA RESULT:     -11.8      1.595     10.778
REMARK  Name = 11840906
REMARK  7 active torsions:
REMARK  status: ('A' for Active; 'I' for Inactive)
REMARK    1  A    between atoms: O_1  and  C_3
REMARK    2  A    between atoms: O_1  and  C_18
REMARK    3  A    between atoms: C_5  and  C_9
REMARK    4  A    between atoms: C_18  and  C_19
REMARK    5  A    between atoms: C_19  and  N_20
REMARK    6  A    between atoms: C_19  and  C_24
REMARK    7  A    between atoms: C_24  and  C_26
REMARK                            x       y       z     vdW  Elec       q    Type
REMARK                         _______ _______ _______ _____ _____    ______ ____
ROOT
ATOM      1  O   UNL     1      34.549 -15.796 -23.334  0.00  0.00    -0.476 OA
ENDROOT
BRANCH   1   3
ATOM      2  N   UNL     1      33.358 -14.174 -26.374  0.00  0.00    -0.239 NA
ATOM      3  C   UNL     1      34.167 -14.801 -24.197  0.00  0.00    +0.158 C 
ATOM      4  C   UNL     1      34.195 -13.477 -23.799  0.00  0.00    +0.040 C 
ATOM      5  C   UNL     1      33.801 -12.490 -24.696  0.00  0.00    +0.022 C 
ATOM      6  C   UNL     1      33.747 -15.105 -25.474  0.00  0.00    +0.136 C 
ATOM      7  C   UNL     1      33.395 -12.888 -25.959  0.00  0.00    +0.099 C 
BRANCH   5   9
ATOM      8  N   UNL     1      32.876  -6.510 -22.391  0.00  0.00    -0.242 NA
ATOM      9  C   UNL     1      33.816 -11.096 -24.322  0.00  0.00    +0.002 C 
ATOM     10  C   UNL     1      32.827  -9.233 -23.105  0.00  0.00    +0.003 C 
ATOM     11  C   UNL     1      32.826 -10.587 -23.476  0.00  0.00    +0.000 C 
ATOM     12  C   UNL     1      33.842  -8.387 -23.596  0.00  0.00    +0.019 C 
ATOM     13  C   UNL     1      34.817 -10.254 -24.806  0.00  0.00    +0.000 C 
ATOM     14  C   UNL     1      34.832  -8.906 -24.446  0.00  0.00    +0.002 C 
ATOM     15  C   UNL     1      31.849  -8.696 -22.259  0.00  0.00    +0.021 C 
ATOM     16  C   UNL     1      33.811  -7.047 -23.206  0.00  0.00    +0.099 C 
ATOM     17  C   UNL     1      31.920  -7.350 -21.938  0.00  0.00    +0.099 C 
ENDBRANCH   5   9
ENDBRANCH   1   3
BRANCH   1  18
ATOM     18  C   UNL     1      35.115 -16.964 -23.915  0.00  0.00    +0.184 C 
BRANCH  18  19
ATOM     19  C   UNL     1      34.202 -18.167 -23.659  0.00  0.00    -0.021 C 
BRANCH  19  20
ATOM     20  N   UNL     1      33.613 -18.586 -24.931  0.00  0.00    +0.384 N 
ATOM     21  H   UNL     1      33.362 -17.762 -25.478  0.00  0.00    -0.089 HD
ATOM     22  H   UNL     1      32.776 -19.142 -24.751  0.00  0.00    -0.089 HD
ATOM     23  H   UNL     1      34.288 -19.146 -25.450  0.00  0.00    -0.089 HD
ENDBRANCH  19  20
BRANCH  19  24
ATOM     24  C   UNL     1      34.972 -19.328 -22.995  0.00  0.00    -0.012 C 
BRANCH  24  26
ATOM     25  N   UNL     1      36.668 -20.478 -20.211  0.00  0.00    -0.270 NA
ATOM     26  C   UNL     1      35.106 -19.196 -21.490  0.00  0.00    +0.046 C 
ATOM     27  C   UNL     1      34.403 -20.266 -20.719  0.00  0.00    -0.007 C 
ATOM     28  C   UNL     1      36.534 -19.488 -21.042  0.00  0.00    +0.130 C 
ATOM     29  C   UNL     1      35.369 -20.973 -19.993  0.00  0.00    +0.071 C 
ATOM     30  C   UNL     1      33.062 -20.589 -20.647  0.00  0.00    -0.024 C 
ATOM     31  C   UNL     1      35.008 -22.031 -19.177  0.00  0.00    +0.014 C 
ATOM     32  C   UNL     1      32.690 -21.655 -19.825  0.00  0.00    +0.052 C 
ATOM     33  C   UNL     1      33.655 -22.371 -19.097  0.00  0.00    -0.020 C 
ENDBRANCH  24  26
ENDBRANCH  19  24
ENDBRANCH  18  19
ENDBRANCH   1  18
TORSDOF 7
ENDMDL
MODEL 7
REMARK VINA RESULT:     -11.6      3.419      6.935
REMARK  Name = 11840906
REMARK  7 active torsions:
REMARK  status: ('A' for Active; 'I' for Inactive)
REMARK    1  A    between atoms: O_1  and  C_3
REMARK    2  A    between atoms: O_1  and  C_18
REMARK    3  A    between atoms: C_5  and  C_9
REMARK    4  A    between atoms: C_18  and  C_19
REMARK    5  A    between atoms: C_19  and  N_20
REMARK    6  A    between atoms: C_19  and  C_24
REMARK    7  A    between atoms: C_24  and  C_26
REMARK                            x       y       z     vdW  Elec       q    Type
REMARK                         _______ _______ _______ _____ _____    ______ ____
ROOT
ATOM      1  O   UNL     1      35.857 -20.948 -20.128  0.00  0.00    -0.476 OA
ENDROOT
BRANCH   1   3
ATOM      2  N   UNL     1      32.729 -22.516 -19.106  0.00  0.00    -0.239 NA
ATOM      3  C   UNL     1      34.958 -21.650 -19.367  0.00  0.00    +0.158 C 
ATOM      4  C   UNL     1      35.334 -22.183 -18.148  0.00  0.00    +0.040 C 
ATOM      5  C   UNL     1      34.400 -22.890 -17.399  0.00  0.00    +0.022 C 
ATOM      6  C   UNL     1      33.664 -21.835 -19.806  0.00  0.00    +0.136 C 
ATOM      7  C   UNL     1      33.123 -23.027 -17.918  0.00  0.00    +0.099 C 
BRANCH   5   9
ATOM      8  N   UNL     1      37.109 -25.340 -12.051  0.00  0.00    -0.242 NA
ATOM      9  C   UNL     1      34.751 -23.463 -16.121  0.00  0.00    +0.002 C 
ATOM     10  C   UNL     1      36.449 -24.220 -14.549  0.00  0.00    +0.003 C 
ATOM     11  C   UNL     1      36.093 -23.662 -15.788  0.00  0.00    +0.000 C 
ATOM     12  C   UNL     1      35.433 -24.577 -13.640  0.00  0.00    +0.019 C 
ATOM     13  C   UNL     1      33.750 -23.820 -15.218  0.00  0.00    +0.000 C 
ATOM     14  C   UNL     1      34.086 -24.374 -13.983  0.00  0.00    +0.002 C 
ATOM     15  C   UNL     1      37.786 -24.430 -14.188  0.00  0.00    +0.021 C 
ATOM     16  C   UNL     1      35.825 -25.128 -12.418  0.00  0.00    +0.099 C 
ATOM     17  C   UNL     1      38.055 -24.984 -12.947  0.00  0.00    +0.099 C 
ENDBRANCH   5   9
ENDBRANCH   1   3
BRANCH   1  18
ATOM     18  C   UNL     1      35.327 -20.187 -21.206  0.00  0.00    +0.184 C 
BRANCH  18  19
ATOM     19  C   UNL     1      36.013 -18.818 -21.263  0.00  0.00    -0.021 C 
BRANCH  19  20
ATOM     20  N   UNL     1      37.380 -18.959 -20.760  0.00  0.00    +0.384 N 
ATOM     21  H   UNL     1      37.987 -18.286 -21.230  0.00  0.00    -0.089 HD
ATOM     22  H   UNL     1      37.715 -19.905 -20.945  0.00  0.00    -0.089 HD
ATOM     23  H   UNL     1      37.393 -18.784 -19.755  0.00  0.00    -0.089 HD
ENDBRANCH  19  20
BRANCH  19  24
ATOM     24  C   UNL     1      36.006 -18.243 -22.695  0.00  0.00    -0.012 C 
BRANCH  24  26
ATOM     25  N   UNL     1      34.213 -17.105 -25.422  0.00  0.00    -0.270 NA
ATOM     26  C   UNL     1      34.635 -17.807 -23.175  0.00  0.00    +0.046 C 
ATOM     27  C   UNL     1      34.456 -16.324 -23.240  0.00  0.00    -0.007 C 
ATOM     28  C   UNL     1      34.449 -18.127 -24.655  0.00  0.00    +0.130 C 
ATOM     29  C   UNL     1      34.209 -15.983 -24.575  0.00  0.00    +0.071 C 
ATOM     30  C   UNL     1      34.492 -15.370 -22.241  0.00  0.00    -0.024 C 
ATOM     31  C   UNL     1      33.998 -14.664 -24.941  0.00  0.00    +0.014 C 
ATOM     32  C   UNL     1      34.280 -14.038 -22.603  0.00  0.00    +0.052 C 
ATOM     33  C   UNL     1      34.036 -13.688 -23.942  0.00  0.00    -0.020 C 
ENDBRANCH  24  26
ENDBRANCH  19  24
ENDBRANCH  18  19
ENDBRANCH   1  18
TORSDOF 7
ENDMDL
MODEL 8
REMARK VINA RESULT:     -11.4      3.657     12.071
REMARK  Name = 11840906
REMARK  7 active torsions:
REMARK  status: ('A' for Active; 'I' for Inactive)
REMARK    1  A    between atoms: O_1  and  C_3
REMARK    2  A    between atoms: O_1  and  C_18
REMARK    3  A    between atoms: C_5  and  C_9
REMARK    4  A    between atoms: C_18  and  C_19
REMARK    5  A    between atoms: C_19  and  N_20
REMARK    6  A    between atoms: C_19  and  C_24
REMARK    7  A    between atoms: C_24  and  C_26
REMARK                            x       y       z     vdW  Elec       q    Type
REMARK                         _______ _______ _______ _____ _____    ______ ____
ROOT
ATOM      1  O   UNL     1      33.074 -22.382 -19.103  0.00  0.00    -0.476 OA
ENDROOT
BRANCH   1   3
ATOM      2  N   UNL     1      36.484 -21.258 -19.730  0.00  0.00    -0.239 NA
ATOM      3  C   UNL     1      34.117 -21.674 -19.643  0.00  0.00    +0.158 C 
ATOM      4  C   UNL     1      33.886 -20.705 -20.602  0.00  0.00    +0.040 C 
ATOM      5  C   UNL     1      34.964 -20.004 -21.131  0.00  0.00    +0.022 C 
ATOM      6  C   UNL     1      35.412 -21.918 -19.239  0.00  0.00    +0.136 C 
ATOM      7  C   UNL     1      36.231 -20.315 -20.666  0.00  0.00    +0.099 C 
BRANCH   5   9
ATOM      8  N   UNL     1      34.219 -14.658 -24.710  0.00  0.00    -0.242 NA
ATOM      9  C   UNL     1      34.768 -18.984 -22.134  0.00  0.00    +0.002 C 
ATOM     10  C   UNL     1      34.606 -16.630 -22.738  0.00  0.00    +0.003 C 
ATOM     11  C   UNL     1      34.797 -17.634 -21.773  0.00  0.00    +0.000 C 
ATOM     12  C   UNL     1      34.384 -17.001 -24.079  0.00  0.00    +0.019 C 
ATOM     13  C   UNL     1      34.546 -19.344 -23.462  0.00  0.00    +0.000 C 
ATOM     14  C   UNL     1      34.355 -18.360 -24.433  0.00  0.00    +0.002 C 
ATOM     15  C   UNL     1      34.632 -15.270 -22.406  0.00  0.00    +0.021 C 
ATOM     16  C   UNL     1      34.199 -15.977 -25.010  0.00  0.00    +0.099 C 
ATOM     17  C   UNL     1      34.436 -14.341 -23.415  0.00  0.00    +0.099 C 
ENDBRANCH   5   9
ENDBRANCH   1   3
BRANCH   1  18
ATOM     18  C   UNL     1      33.411 -23.509 -18.304  0.00  0.00    +0.184 C 
BRANCH  18  19
ATOM     19  C   UNL     1      33.137 -23.201 -16.829  0.00  0.00    -0.021 C 
BRANCH  19  20
ATOM     20  N   UNL     1      31.751 -23.556 -16.526  0.00  0.00    +0.384 N 
ATOM     21  H   UNL     1      31.123 -22.880 -16.963  0.00  0.00    -0.089 HD
ATOM     22  H   UNL     1      31.610 -23.546 -15.515  0.00  0.00    -0.089 HD
ATOM     23  H   UNL     1      31.551 -24.488 -16.888  0.00  0.00    -0.089 HD
ENDBRANCH  19  20
BRANCH  19  24
ATOM     24  C   UNL     1      34.117 -23.954 -15.904  0.00  0.00    -0.012 C 
BRANCH  24  26
ATOM     25  N   UNL     1      37.414 -23.214 -15.175  0.00  0.00    -0.270 NA
ATOM     26  C   UNL     1      35.030 -23.045 -15.103  0.00  0.00    +0.046 C 
ATOM     27  C   UNL     1      35.552 -23.661 -13.846  0.00  0.00    -0.007 C 
ATOM     28  C   UNL     1      36.356 -22.831 -15.825  0.00  0.00    +0.130 C 
ATOM     29  C   UNL     1      36.947 -23.726 -13.951  0.00  0.00    +0.071 C 
ATOM     30  C   UNL     1      34.888 -24.109 -12.721  0.00  0.00    -0.024 C 
ATOM     31  C   UNL     1      37.711 -24.253 -12.923  0.00  0.00    +0.014 C 
ATOM     32  C   UNL     1      35.652 -24.641 -11.680  0.00  0.00    +0.052 C 
ATOM     33  C   UNL     1      37.051 -24.714 -11.781  0.00  0.00    -0.020 C 
ENDBRANCH  24  26
ENDBRANCH  19  24
ENDBRANCH  18  19
ENDBRANCH   1  18
TORSDOF 7
ENDMDL
MODEL 9
REMARK VINA RESULT:     -11.4      3.248      5.964
REMARK  Name = 11840906
REMARK  7 active torsions:
REMARK  status: ('A' for Active; 'I' for Inactive)
REMARK    1  A    between atoms: O_1  and  C_3
REMARK    2  A    between atoms: O_1  and  C_18
REMARK    3  A    between atoms: C_5  and  C_9
REMARK    4  A    between atoms: C_18  and  C_19
REMARK    5  A    between atoms: C_19  and  N_20
REMARK    6  A    between atoms: C_19  and  C_24
REMARK    7  A    between atoms: C_24  and  C_26
REMARK                            x       y       z     vdW  Elec       q    Type
REMARK                         _______ _______ _______ _____ _____    ______ ____
ROOT
ATOM      1  O   UNL     1      33.677  -9.385 -24.965  0.00  0.00    -0.476 OA
ENDROOT
BRANCH   1   3
ATOM      2  N   UNL     1      33.265 -12.312 -27.098  0.00  0.00    -0.239 NA
ATOM      3  C   UNL     1      33.640 -10.700 -25.353  0.00  0.00    +0.158 C 
ATOM      4  C   UNL     1      33.924 -11.707 -24.449  0.00  0.00    +0.040 C 
ATOM      5  C   UNL     1      33.878 -13.031 -24.872  0.00  0.00    +0.022 C 
ATOM      6  C   UNL     1      33.320 -11.038 -26.651  0.00  0.00    +0.136 C 
ATOM      7  C   UNL     1      33.546 -13.278 -26.194  0.00  0.00    +0.099 C 
BRANCH   5   9
ATOM      8  N   UNL     1      35.262 -18.553 -21.785  0.00  0.00    -0.242 NA
ATOM      9  C   UNL     1      34.166 -14.113 -23.961  0.00  0.00    +0.002 C 
ATOM     10  C   UNL     1      34.704 -16.458 -23.582  0.00  0.00    +0.003 C 
ATOM     11  C   UNL     1      34.423 -15.395 -24.456  0.00  0.00    +0.000 C 
ATOM     12  C   UNL     1      34.724 -16.217 -22.193  0.00  0.00    +0.019 C 
ATOM     13  C   UNL     1      34.186 -13.881 -22.587  0.00  0.00    +0.000 C 
ATOM     14  C   UNL     1      34.464 -14.926 -21.704  0.00  0.00    +0.002 C 
ATOM     15  C   UNL     1      34.966 -17.752 -24.049  0.00  0.00    +0.021 C 
ATOM     16  C   UNL     1      35.007 -17.297 -21.355  0.00  0.00    +0.099 C 
ATOM     17  C   UNL     1      35.235 -18.746 -23.122  0.00  0.00    +0.099 C 
ENDBRANCH   5   9
ENDBRANCH   1   3
BRANCH   1  18
ATOM     18  C   UNL     1      32.692  -8.525 -25.523  0.00  0.00    +0.184 C 
BRANCH  18  19
ATOM     19  C   UNL     1      32.531  -7.280 -24.645  0.00  0.00    -0.021 C 
BRANCH  19  20
ATOM     20  N   UNL     1      31.111  -6.937 -24.574  0.00  0.00    +0.384 N 
ATOM     21  H   UNL     1      30.598  -7.700 -24.131  0.00  0.00    -0.089 HD
ATOM     22  H   UNL     1      30.749  -6.787 -25.516  0.00  0.00    -0.089 HD
ATOM     23  H   UNL     1      30.993  -6.085 -24.025  0.00  0.00    -0.089 HD
ENDBRANCH  19  20
BRANCH  19  24
ATOM     24  C   UNL     1      33.117  -7.506 -23.235  0.00  0.00    -0.012 C 
BRANCH  24  26
ATOM     25  N   UNL     1      32.623  -7.988 -19.848  0.00  0.00    -0.270 NA
ATOM     26  C   UNL     1      32.069  -7.605 -22.142  0.00  0.00    +0.046 C 
ATOM     27  C   UNL     1      31.734  -9.007 -21.746  0.00  0.00    -0.007 C 
ATOM     28  C   UNL     1      32.624  -7.114 -20.809  0.00  0.00    +0.130 C 
ATOM     29  C   UNL     1      32.077  -9.162 -20.397  0.00  0.00    +0.071 C 
ATOM     30  C   UNL     1      31.178 -10.039 -22.477  0.00  0.00    -0.024 C 
ATOM     31  C   UNL     1      31.874 -10.368 -19.749  0.00  0.00    +0.014 C 
ATOM     32  C   UNL     1      30.971 -11.259 -21.830  0.00  0.00    +0.052 C 
ATOM     33  C   UNL     1      31.317 -11.422 -20.478  0.00  0.00    -0.020 C 
ENDBRANCH  24  26
ENDBRANCH  19  24
ENDBRANCH  18  19
ENDBRANCH   1  18
TORSDOF 7
ENDMDL
