MODEL 1
REMARK VINA RESULT:     -11.7      0.000      0.000
REMARK  Name = 10156987
REMARK  5 active torsions:
REMARK  status: ('A' for Active; 'I' for Inactive)
REMARK    1  A    between atoms: C_2  and  C_23
REMARK    2  A    between atoms: C_9  and  C_13
REMARK    3  A    between atoms: C_23  and  N_24
REMARK    4  A    between atoms: C_25  and  C_31
REMARK    5  A    between atoms: C_31  and  N_32
REMARK                            x       y       z     vdW  Elec       q    Type
REMARK                         _______ _______ _______ _____ _____    ______ ____
ROOT
ATOM      1  N   UNL     1      33.723 -14.579 -23.916  0.00  0.00    -0.312 N 
ATOM      2  C   UNL     1      35.443 -18.026 -22.474  0.00  0.00    -0.043 C 
ATOM      3  C   UNL     1      35.172 -16.922 -21.665  0.00  0.00    -0.005 C 
ATOM      4  C   UNL     1      35.140 -18.021 -23.830  0.00  0.00    -0.005 C 
ATOM      5  C   UNL     1      34.581 -15.781 -22.244  0.00  0.00    +0.014 C 
ATOM      6  C   UNL     1      34.286 -15.798 -23.609  0.00  0.00    +0.048 C 
ATOM      7  C   UNL     1      34.554 -16.901 -24.426  0.00  0.00    +0.014 C 
ATOM      8  C   UNL     1      34.176 -14.512 -21.745  0.00  0.00    +0.016 C 
ATOM      9  C   UNL     1      33.653 -13.796 -22.796  0.00  0.00    +0.053 C 
ATOM     10  H   UNL     1      33.417 -14.310 -24.812  0.00  0.00    +0.152 HD
ENDROOT
BRANCH   9  13
ATOM     11  O   UNL     1      31.501 -12.830 -21.183  0.00  0.00    -0.270 OA
ATOM     12  N   UNL     1      31.494 -10.774 -22.196  0.00  0.00    -0.280 N 
ATOM     13  C   UNL     1      33.094 -12.486 -22.922  0.00  0.00    +0.067 C 
ATOM     14  C   UNL     1      33.584 -11.639 -23.843  0.00  0.00    +0.007 C 
ATOM     15  C   UNL     1      31.969 -12.060 -22.022  0.00  0.00    +0.251 C 
ATOM     16  C   UNL     1      33.043 -10.290 -23.992  0.00  0.00    +0.014 C 
ATOM     17  C   UNL     1      32.000  -9.881 -23.155  0.00  0.00    +0.051 C 
ATOM     18  C   UNL     1      33.544  -9.401 -24.947  0.00  0.00    +0.001 C 
ATOM     19  C   UNL     1      31.458  -8.598 -23.266  0.00  0.00    +0.015 C 
ATOM     20  C   UNL     1      33.003  -8.117 -25.059  0.00  0.00    +0.000 C 
ATOM     21  C   UNL     1      31.963  -7.718 -24.221  0.00  0.00    +0.001 C 
ATOM     22  H   UNL     1      30.761 -10.467 -21.615  0.00  0.00    +0.155 HD
ENDBRANCH   9  13
BRANCH   2  23
ATOM     23  C   UNL     1      36.074 -19.243 -21.864  0.00  0.00    -0.050 C 
BRANCH  23  24
ATOM     24  N   UNL     1      35.226 -19.841 -20.832  0.00  0.00    +0.390 N 
ATOM     25  C   UNL     1      33.570 -21.958 -19.660  0.00  0.00    -0.026 C 
ATOM     26  C   UNL     1      32.969 -20.694 -20.283  0.00  0.00    -0.025 C 
ATOM     27  C   UNL     1      34.997 -21.671 -19.183  0.00  0.00    -0.025 C 
ATOM     28  C   UNL     1      33.884 -20.117 -21.365  0.00  0.00    -0.077 C 
ATOM     29  C   UNL     1      35.847 -21.062 -20.301  0.00  0.00    -0.077 C 
ATOM     30  H   UNL     1      35.129 -19.178 -20.064  0.00  0.00    -0.079 HD
BRANCH  25  31
ATOM     31  C   UNL     1      32.701 -22.472 -18.515  0.00  0.00    -0.086 C 
BRANCH  31  32
ATOM     32  N   UNL     1      33.417 -23.461 -17.724  0.00  0.00    +0.380 N 
ATOM     33  H   UNL     1      33.742 -24.211 -18.333  0.00  0.00    -0.089 HD
ATOM     34  H   UNL     1      32.792 -23.846 -17.015  0.00  0.00    -0.089 HD
ATOM     35  H   UNL     1      34.217 -23.020 -17.270  0.00  0.00    -0.089 HD
ENDBRANCH  31  32
ENDBRANCH  25  31
ENDBRANCH  23  24
ENDBRANCH   2  23
TORSDOF 5
ENDMDL
MODEL 2
REMARK VINA RESULT:     -11.6      3.370     11.251
REMARK  Name = 10156987
REMARK  5 active torsions:
REMARK  status: ('A' for Active; 'I' for Inactive)
REMARK    1  A    between atoms: C_2  and  C_23
REMARK    2  A    between atoms: C_9  and  C_13
REMARK    3  A    between atoms: C_23  and  N_24
REMARK    4  A    between atoms: C_25  and  C_31
REMARK    5  A    between atoms: C_31  and  N_32
REMARK                            x       y       z     vdW  Elec       q    Type
REMARK                         _______ _______ _______ _____ _____    ______ ____
ROOT
ATOM      1  N   UNL     1      34.914 -21.797 -18.812  0.00  0.00    -0.312 N 
ATOM      2  C   UNL     1      35.130 -19.617 -22.293  0.00  0.00    -0.043 C 
ATOM      3  C   UNL     1      33.927 -20.102 -21.780  0.00  0.00    -0.005 C 
ATOM      4  C   UNL     1      36.338 -19.847 -21.646  0.00  0.00    -0.005 C 
ATOM      5  C   UNL     1      33.946 -20.841 -20.580  0.00  0.00    +0.014 C 
ATOM      6  C   UNL     1      35.172 -21.060 -19.947  0.00  0.00    +0.048 C 
ATOM      7  C   UNL     1      36.382 -20.577 -20.455  0.00  0.00    +0.014 C 
ATOM      8  C   UNL     1      32.948 -21.471 -19.787  0.00  0.00    +0.016 C 
ATOM      9  C   UNL     1      33.573 -22.050 -18.708  0.00  0.00    +0.053 C 
ATOM     10  H   UNL     1      35.597 -22.099 -18.170  0.00  0.00    +0.152 HD
ENDROOT
BRANCH   9  13
ATOM     11  O   UNL     1      35.317 -23.293 -16.816  0.00  0.00    -0.270 OA
ATOM     12  N   UNL     1      33.583 -24.124 -15.569  0.00  0.00    -0.280 N 
ATOM     13  C   UNL     1      33.114 -22.809 -17.586  0.00  0.00    +0.067 C 
ATOM     14  C   UNL     1      31.795 -22.967 -17.384  0.00  0.00    +0.007 C 
ATOM     15  C   UNL     1      34.106 -23.419 -16.636  0.00  0.00    +0.251 C 
ATOM     16  C   UNL     1      31.292 -23.729 -16.243  0.00  0.00    +0.014 C 
ATOM     17  C   UNL     1      32.206 -24.295 -15.350  0.00  0.00    +0.051 C 
ATOM     18  C   UNL     1      29.922 -23.901 -16.024  0.00  0.00    +0.001 C 
ATOM     19  C   UNL     1      31.764 -25.028 -14.246  0.00  0.00    +0.015 C 
ATOM     20  C   UNL     1      29.477 -24.634 -14.920  0.00  0.00    +0.000 C 
ATOM     21  C   UNL     1      30.396 -25.196 -14.034  0.00  0.00    +0.001 C 
ATOM     22  H   UNL     1      34.210 -24.530 -14.928  0.00  0.00    +0.155 HD
ENDBRANCH   9  13
BRANCH   2  23
ATOM     23  C   UNL     1      35.116 -18.831 -23.572  0.00  0.00    -0.050 C 
BRANCH  23  24
ATOM     24  N   UNL     1      34.482 -17.524 -23.404  0.00  0.00    +0.390 N 
ATOM     25  C   UNL     1      34.376 -14.595 -23.510  0.00  0.00    -0.026 C 
ATOM     26  C   UNL     1      34.538 -15.365 -22.195  0.00  0.00    -0.025 C 
ATOM     27  C   UNL     1      33.677 -15.482 -24.546  0.00  0.00    -0.025 C 
ATOM     28  C   UNL     1      35.220 -16.715 -22.422  0.00  0.00    -0.077 C 
ATOM     29  C   UNL     1      34.386 -16.829 -24.695  0.00  0.00    -0.077 C 
ATOM     30  H   UNL     1      33.536 -17.662 -23.050  0.00  0.00    -0.079 HD
BRANCH  25  31
ATOM     31  C   UNL     1      33.607 -13.294 -23.294  0.00  0.00    -0.086 C 
BRANCH  31  32
ATOM     32  N   UNL     1      34.194 -12.209 -24.064  0.00  0.00    +0.380 N 
ATOM     33  H   UNL     1      33.463 -11.556 -24.344  0.00  0.00    -0.089 HD
ATOM     34  H   UNL     1      34.646 -12.590 -24.896  0.00  0.00    -0.089 HD
ATOM     35  H   UNL     1      34.886 -11.722 -23.494  0.00  0.00    -0.089 HD
ENDBRANCH  31  32
ENDBRANCH  25  31
ENDBRANCH  23  24
ENDBRANCH   2  23
TORSDOF 5
ENDMDL
MODEL 3
REMARK VINA RESULT:     -11.5      3.051     10.897
REMARK  Name = 10156987
REMARK  5 active torsions:
REMARK  status: ('A' for Active; 'I' for Inactive)
REMARK    1  A    between atoms: C_2  and  C_23
REMARK    2  A    between atoms: C_9  and  C_13
REMARK    3  A    between atoms: C_23  and  N_24
REMARK    4  A    between atoms: C_25  and  C_31
REMARK    5  A    between atoms: C_31  and  N_32
REMARK                            x       y       z     vdW  Elec       q    Type
REMARK                         _______ _______ _______ _____ _____    ______ ____
ROOT
ATOM      1  N   UNL     1      36.086 -20.543 -19.905  0.00  0.00    -0.312 N 
ATOM      2  C   UNL     1      35.147 -18.504 -23.351  0.00  0.00    -0.043 C 
ATOM      3  C   UNL     1      34.241 -19.341 -22.698  0.00  0.00    -0.005 C 
ATOM      4  C   UNL     1      36.433 -18.311 -22.865  0.00  0.00    -0.005 C 
ATOM      5  C   UNL     1      34.648 -20.001 -21.522  0.00  0.00    +0.014 C 
ATOM      6  C   UNL     1      35.947 -19.793 -21.051  0.00  0.00    +0.048 C 
ATOM      7  C   UNL     1      36.860 -18.955 -21.700  0.00  0.00    +0.014 C 
ATOM      8  C   UNL     1      34.016 -20.900 -20.619  0.00  0.00    +0.016 C 
ATOM      9  C   UNL     1      34.925 -21.216 -19.636  0.00  0.00    +0.053 C 
ATOM     10  H   UNL     1      36.904 -20.589 -19.358  0.00  0.00    +0.152 HD
ENDROOT
BRANCH   9  13
ATOM     11  O   UNL     1      32.634 -22.742 -18.870  0.00  0.00    -0.270 OA
ATOM     12  N   UNL     1      33.678 -23.625 -17.030  0.00  0.00    -0.280 N 
ATOM     13  C   UNL     1      34.882 -22.053 -18.478  0.00  0.00    +0.067 C 
ATOM     14  C   UNL     1      35.962 -22.146 -17.683  0.00  0.00    +0.007 C 
ATOM     15  C   UNL     1      33.635 -22.828 -18.158  0.00  0.00    +0.251 C 
ATOM     16  C   UNL     1      35.954 -22.998 -16.496  0.00  0.00    +0.014 C 
ATOM     17  C   UNL     1      34.801 -23.729 -16.194  0.00  0.00    +0.051 C 
ATOM     18  C   UNL     1      37.071 -23.102 -15.662  0.00  0.00    +0.001 C 
ATOM     19  C   UNL     1      34.757 -24.557 -15.069  0.00  0.00    +0.015 C 
ATOM     20  C   UNL     1      37.029 -23.929 -14.537  0.00  0.00    +0.000 C 
ATOM     21  C   UNL     1      35.875 -24.654 -14.241  0.00  0.00    +0.001 C 
ATOM     22  H   UNL     1      32.877 -24.149 -16.800  0.00  0.00    +0.155 HD
ENDBRANCH   9  13
BRANCH   2  23
ATOM     23  C   UNL     1      34.719 -17.800 -24.606  0.00  0.00    -0.050 C 
BRANCH  23  24
ATOM     24  N   UNL     1      34.646 -16.351 -24.422  0.00  0.00    +0.390 N 
ATOM     25  C   UNL     1      33.344 -13.837 -23.659  0.00  0.00    -0.026 C 
ATOM     26  C   UNL     1      33.531 -14.255 -25.121  0.00  0.00    -0.025 C 
ATOM     27  C   UNL     1      34.411 -14.508 -22.788  0.00  0.00    -0.025 C 
ATOM     28  C   UNL     1      33.585 -15.777 -25.261  0.00  0.00    -0.077 C 
ATOM     29  C   UNL     1      34.436 -16.022 -23.005  0.00  0.00    -0.077 C 
ATOM     30  H   UNL     1      35.533 -15.939 -24.712  0.00  0.00    -0.079 HD
BRANCH  25  31
ATOM     31  C   UNL     1      33.391 -12.318 -23.512  0.00  0.00    -0.086 C 
BRANCH  31  32
ATOM     32  N   UNL     1      34.340 -11.735 -24.448  0.00  0.00    +0.380 N 
ATOM     33  H   UNL     1      33.983 -10.840 -24.780  0.00  0.00    -0.089 HD
ATOM     34  H   UNL     1      34.466 -12.366 -25.240  0.00  0.00    -0.089 HD
ATOM     35  H   UNL     1      35.235 -11.592 -23.981  0.00  0.00    -0.089 HD
ENDBRANCH  31  32
ENDBRANCH  25  31
ENDBRANCH  23  24
ENDBRANCH   2  23
TORSDOF 5
ENDMDL
MODEL 4
REMARK VINA RESULT:     -11.2      4.075     11.910
REMARK  Name = 10156987
REMARK  5 active torsions:
REMARK  status: ('A' for Active; 'I' for Inactive)
REMARK    1  A    between atoms: C_2  and  C_23
REMARK    2  A    between atoms: C_9  and  C_13
REMARK    3  A    between atoms: C_23  and  N_24
REMARK    4  A    between atoms: C_25  and  C_31
REMARK    5  A    between atoms: C_31  and  N_32
REMARK                            x       y       z     vdW  Elec       q    Type
REMARK                         _______ _______ _______ _____ _____    ______ ____
ROOT
ATOM      1  N   UNL     1      34.165 -22.133 -18.376  0.00  0.00    -0.312 N 
ATOM      2  C   UNL     1      34.998 -19.864 -21.704  0.00  0.00    -0.043 C 
ATOM      3  C   UNL     1      35.990 -20.331 -20.841  0.00  0.00    -0.005 C 
ATOM      4  C   UNL     1      33.655 -20.145 -21.482  0.00  0.00    -0.005 C 
ATOM      5  C   UNL     1      35.614 -21.103 -19.724  0.00  0.00    +0.014 C 
ATOM      6  C   UNL     1      34.258 -21.372 -19.520  0.00  0.00    +0.048 C 
ATOM      7  C   UNL     1      33.258 -20.907 -20.380  0.00  0.00    +0.014 C 
ATOM      8  C   UNL     1      36.327 -21.727 -18.663  0.00  0.00    +0.016 C 
ATOM      9  C   UNL     1      35.410 -22.352 -17.851  0.00  0.00    +0.053 C 
ATOM     10  H   UNL     1      33.324 -22.470 -17.990  0.00  0.00    +0.152 HD
ENDROOT
BRANCH   9  13
ATOM     11  O   UNL     1      33.161 -23.493 -16.507  0.00  0.00    -0.270 OA
ATOM     12  N   UNL     1      34.458 -24.446 -14.875  0.00  0.00    -0.280 N 
ATOM     13  C   UNL     1      35.512 -23.127 -16.654  0.00  0.00    +0.067 C 
ATOM     14  C   UNL     1      36.719 -23.346 -16.103  0.00  0.00    +0.007 C 
ATOM     15  C   UNL     1      34.274 -23.696 -16.021  0.00  0.00    +0.251 C 
ATOM     16  C   UNL     1      36.859 -24.140 -14.885  0.00  0.00    +0.014 C 
ATOM     17  C   UNL     1      35.714 -24.681 -14.292  0.00  0.00    +0.051 C 
ATOM     18  C   UNL     1      38.108 -24.374 -14.303  0.00  0.00    +0.001 C 
ATOM     19  C   UNL     1      35.809 -25.448 -13.128  0.00  0.00    +0.015 C 
ATOM     20  C   UNL     1      38.205 -25.141 -13.139  0.00  0.00    +0.000 C 
ATOM     21  C   UNL     1      37.058 -25.676 -12.554  0.00  0.00    +0.001 C 
ATOM     22  H   UNL     1      33.664 -24.836 -14.442  0.00  0.00    +0.155 HD
ENDBRANCH   9  13
BRANCH   2  23
ATOM     23  C   UNL     1      35.392 -19.040 -22.895  0.00  0.00    -0.050 C 
BRANCH  23  24
ATOM     24  N   UNL     1      34.699 -17.752 -22.924  0.00  0.00    +0.390 N 
ATOM     25  C   UNL     1      34.533 -14.836 -23.187  0.00  0.00    -0.026 C 
ATOM     26  C   UNL     1      34.439 -15.547 -21.832  0.00  0.00    -0.025 C 
ATOM     27  C   UNL     1      34.093 -15.789 -24.303  0.00  0.00    -0.025 C 
ATOM     28  C   UNL     1      35.191 -16.879 -21.849  0.00  0.00    -0.077 C 
ATOM     29  C   UNL     1      34.856 -17.114 -24.238  0.00  0.00    -0.077 C 
ATOM     30  H   UNL     1      33.704 -17.912 -22.769  0.00  0.00    -0.079 HD
BRANCH  25  31
ATOM     31  C   UNL     1      33.699 -13.558 -23.196  0.00  0.00    -0.086 C 
BRANCH  31  32
ATOM     32  N   UNL     1      34.248 -12.586 -24.129  0.00  0.00    +0.380 N 
ATOM     33  H   UNL     1      34.562 -11.763 -23.616  0.00  0.00    -0.089 HD
ATOM     34  H   UNL     1      33.529 -12.315 -24.800  0.00  0.00    -0.089 HD
ATOM     35  H   UNL     1      35.038 -13.000 -24.626  0.00  0.00    -0.089 HD
ENDBRANCH  31  32
ENDBRANCH  25  31
ENDBRANCH  23  24
ENDBRANCH   2  23
TORSDOF 5
ENDMDL
MODEL 5
REMARK VINA RESULT:     -11.2      1.696      2.426
REMARK  Name = 10156987
REMARK  5 active torsions:
REMARK  status: ('A' for Active; 'I' for Inactive)
REMARK    1  A    between atoms: C_2  and  C_23
REMARK    2  A    between atoms: C_9  and  C_13
REMARK    3  A    between atoms: C_23  and  N_24
REMARK    4  A    between atoms: C_25  and  C_31
REMARK    5  A    between atoms: C_31  and  N_32
REMARK                            x       y       z     vdW  Elec       q    Type
REMARK                         _______ _______ _______ _____ _____    ______ ____
ROOT
ATOM      1  N   UNL     1      33.704 -13.006 -22.387  0.00  0.00    -0.312 N 
ATOM      2  C   UNL     1      35.034 -16.898 -22.421  0.00  0.00    -0.043 C 
ATOM      3  C   UNL     1      34.918 -16.130 -23.580  0.00  0.00    -0.005 C 
ATOM      4  C   UNL     1      34.704 -16.382 -21.175  0.00  0.00    -0.005 C 
ATOM      5  C   UNL     1      34.453 -14.804 -23.475  0.00  0.00    +0.014 C 
ATOM      6  C   UNL     1      34.126 -14.306 -22.212  0.00  0.00    +0.048 C 
ATOM      7  C   UNL     1      34.240 -15.070 -21.046  0.00  0.00    +0.014 C 
ATOM      8  C   UNL     1      34.214 -13.759 -24.411  0.00  0.00    +0.016 C 
ATOM      9  C   UNL     1      33.754 -12.667 -23.712  0.00  0.00    +0.053 C 
ATOM     10  H   UNL     1      33.410 -12.407 -21.663  0.00  0.00    +0.152 HD
ENDROOT
BRANCH   9  13
ATOM     11  O   UNL     1      34.531 -11.410 -26.157  0.00  0.00    -0.270 OA
ATOM     12  N   UNL     1      33.355  -9.497 -25.697  0.00  0.00    -0.280 N 
ATOM     13  C   UNL     1      33.350 -11.348 -24.088  0.00  0.00    +0.067 C 
ATOM     14  C   UNL     1      32.564 -10.633 -23.265  0.00  0.00    +0.007 C 
ATOM     15  C   UNL     1      33.800 -10.771 -25.400  0.00  0.00    +0.251 C 
ATOM     16  C   UNL     1      32.125  -9.286 -23.622  0.00  0.00    +0.014 C 
ATOM     17  C   UNL     1      32.532  -8.742 -24.845  0.00  0.00    +0.051 C 
ATOM     18  C   UNL     1      31.309  -8.533 -22.775  0.00  0.00    +0.001 C 
ATOM     19  C   UNL     1      32.132  -7.458 -25.222  0.00  0.00    +0.015 C 
ATOM     20  C   UNL     1      30.906  -7.249 -23.150  0.00  0.00    +0.000 C 
ATOM     21  C   UNL     1      31.317  -6.713 -24.370  0.00  0.00    +0.001 C 
ATOM     22  H   UNL     1      33.629  -9.096 -26.553  0.00  0.00    +0.155 HD
ENDBRANCH   9  13
BRANCH   2  23
ATOM     23  C   UNL     1      35.528 -18.312 -22.527  0.00  0.00    -0.050 C 
BRANCH  23  24
ATOM     24  N   UNL     1      35.091 -19.130 -21.396  0.00  0.00    +0.390 N 
ATOM     25  C   UNL     1      34.362 -21.638 -20.063  0.00  0.00    -0.026 C 
ATOM     26  C   UNL     1      33.317 -20.608 -20.506  0.00  0.00    -0.025 C 
ATOM     27  C   UNL     1      35.707 -20.942 -19.828  0.00  0.00    -0.025 C 
ATOM     28  C   UNL     1      33.814 -19.791 -21.700  0.00  0.00    -0.077 C 
ATOM     29  C   UNL     1      36.125 -20.113 -21.044  0.00  0.00    -0.077 C 
ATOM     30  H   UNL     1      34.947 -18.523 -20.589  0.00  0.00    -0.079 HD
BRANCH  25  31
ATOM     31  C   UNL     1      33.903 -22.382 -18.811  0.00  0.00    -0.086 C 
BRANCH  31  32
ATOM     32  N   UNL     1      32.451 -22.437 -18.744  0.00  0.00    +0.380 N 
ATOM     33  H   UNL     1      32.146 -23.409 -18.777  0.00  0.00    -0.089 HD
ATOM     34  H   UNL     1      32.054 -21.928 -19.534  0.00  0.00    -0.089 HD
ATOM     35  H   UNL     1      32.134 -22.011 -17.872  0.00  0.00    -0.089 HD
ENDBRANCH  31  32
ENDBRANCH  25  31
ENDBRANCH  23  24
ENDBRANCH   2  23
TORSDOF 5
ENDMDL
MODEL 6
REMARK VINA RESULT:     -11.1      1.412      1.819
REMARK  Name = 10156987
REMARK  5 active torsions:
REMARK  status: ('A' for Active; 'I' for Inactive)
REMARK    1  A    between atoms: C_2  and  C_23
REMARK    2  A    between atoms: C_9  and  C_13
REMARK    3  A    between atoms: C_23  and  N_24
REMARK    4  A    between atoms: C_25  and  C_31
REMARK    5  A    between atoms: C_31  and  N_32
REMARK                            x       y       z     vdW  Elec       q    Type
REMARK                         _______ _______ _______ _____ _____    ______ ____
ROOT
ATOM      1  N   UNL     1      33.655 -14.434 -24.498  0.00  0.00    -0.312 N 
ATOM      2  C   UNL     1      35.245 -17.900 -22.957  0.00  0.00    -0.043 C 
ATOM      3  C   UNL     1      35.253 -16.691 -22.260  0.00  0.00    -0.005 C 
ATOM      4  C   UNL     1      34.690 -18.000 -24.227  0.00  0.00    -0.005 C 
ATOM      5  C   UNL     1      34.685 -15.552 -22.865  0.00  0.00    +0.014 C 
ATOM      6  C   UNL     1      34.134 -15.675 -24.143  0.00  0.00    +0.048 C 
ATOM      7  C   UNL     1      34.122 -16.884 -24.847  0.00  0.00    +0.014 C 
ATOM      8  C   UNL     1      34.520 -14.196 -22.469  0.00  0.00    +0.016 C 
ATOM      9  C   UNL     1      33.883 -13.534 -23.492  0.00  0.00    +0.053 C 
ATOM     10  H   UNL     1      33.212 -14.224 -25.352  0.00  0.00    +0.152 HD
ENDROOT
BRANCH   9  13
ATOM     11  O   UNL     1      34.433 -12.014 -25.848  0.00  0.00    -0.270 OA
ATOM     12  N   UNL     1      33.315 -10.169 -25.074  0.00  0.00    -0.280 N 
ATOM     13  C   UNL     1      33.452 -12.184 -23.683  0.00  0.00    +0.067 C 
ATOM     14  C   UNL     1      32.750 -11.567 -22.717  0.00  0.00    +0.007 C 
ATOM     15  C   UNL     1      33.780 -11.465 -24.961  0.00  0.00    +0.251 C 
ATOM     16  C   UNL     1      32.286 -10.191 -22.883  0.00  0.00    +0.014 C 
ATOM     17  C   UNL     1      32.580  -9.515 -24.072  0.00  0.00    +0.051 C 
ATOM     18  C   UNL     1      31.557  -9.539 -21.886  0.00  0.00    +0.001 C 
ATOM     19  C   UNL     1      32.152  -8.200 -24.268  0.00  0.00    +0.015 C 
ATOM     20  C   UNL     1      31.127  -8.224 -22.080  0.00  0.00    +0.000 C 
ATOM     21  C   UNL     1      31.424  -7.556 -23.268  0.00  0.00    +0.001 C 
ATOM     22  H   UNL     1      33.510  -9.676 -25.904  0.00  0.00    +0.155 HD
ENDBRANCH   9  13
BRANCH   2  23
ATOM     23  C   UNL     1      35.849 -19.116 -22.318  0.00  0.00    -0.050 C 
BRANCH  23  24
ATOM     24  N   UNL     1      35.014 -19.639 -21.237  0.00  0.00    +0.390 N 
ATOM     25  C   UNL     1      33.354 -21.659 -19.909  0.00  0.00    -0.026 C 
ATOM     26  C   UNL     1      32.758 -20.426 -20.595  0.00  0.00    -0.025 C 
ATOM     27  C   UNL     1      34.794 -21.364 -19.477  0.00  0.00    -0.025 C 
ATOM     28  C   UNL     1      33.659 -19.928 -21.727  0.00  0.00    -0.077 C 
ATOM     29  C   UNL     1      35.629 -20.835 -20.645  0.00  0.00    -0.077 C 
ATOM     30  H   UNL     1      34.941 -18.930 -20.508  0.00  0.00    -0.079 HD
BRANCH  25  31
ATOM     31  C   UNL     1      32.502 -22.091 -18.718  0.00  0.00    -0.086 C 
BRANCH  31  32
ATOM     32  N   UNL     1      32.962 -23.364 -18.186  0.00  0.00    +0.380 N 
ATOM     33  H   UNL     1      32.228 -24.064 -18.297  0.00  0.00    -0.089 HD
ATOM     34  H   UNL     1      33.183 -23.259 -17.195  0.00  0.00    -0.089 HD
ATOM     35  H   UNL     1      33.797 -23.663 -18.691  0.00  0.00    -0.089 HD
ENDBRANCH  31  32
ENDBRANCH  25  31
ENDBRANCH  23  24
ENDBRANCH   2  23
TORSDOF 5
ENDMDL
MODEL 7
REMARK VINA RESULT:     -11.1      3.107     11.561
REMARK  Name = 10156987
REMARK  5 active torsions:
REMARK  status: ('A' for Active; 'I' for Inactive)
REMARK    1  A    between atoms: C_2  and  C_23
REMARK    2  A    between atoms: C_9  and  C_13
REMARK    3  A    between atoms: C_23  and  N_24
REMARK    4  A    between atoms: C_25  and  C_31
REMARK    5  A    between atoms: C_31  and  N_32
REMARK                            x       y       z     vdW  Elec       q    Type
REMARK                         _______ _______ _______ _____ _____    ______ ____
ROOT
ATOM      1  N   UNL     1      34.255 -12.838 -25.163  0.00  0.00    -0.312 N 
ATOM      2  C   UNL     1      33.032  -8.978 -24.439  0.00  0.00    -0.043 C 
ATOM      3  C   UNL     1      32.797 -10.024 -23.546  0.00  0.00    -0.005 C 
ATOM      4  C   UNL     1      33.703  -9.186 -25.637  0.00  0.00    -0.005 C 
ATOM      5  C   UNL     1      33.252 -11.317 -23.876  0.00  0.00    +0.014 C 
ATOM      6  C   UNL     1      33.923 -11.503 -25.086  0.00  0.00    +0.048 C 
ATOM      7  C   UNL     1      34.162 -10.459 -25.986  0.00  0.00    +0.014 C 
ATOM      8  C   UNL     1      33.194 -12.584 -23.231  0.00  0.00    +0.016 C 
ATOM      9  C   UNL     1      33.818 -13.498 -24.047  0.00  0.00    +0.053 C 
ATOM     10  H   UNL     1      34.736 -13.256 -25.913  0.00  0.00    +0.152 HD
ENDROOT
BRANCH   9  13
ATOM     11  O   UNL     1      33.446 -15.330 -26.208  0.00  0.00    -0.270 OA
ATOM     12  N   UNL     1      34.141 -17.130 -24.971  0.00  0.00    -0.280 N 
ATOM     13  C   UNL     1      34.073 -14.902 -23.949  0.00  0.00    +0.067 C 
ATOM     14  C   UNL     1      34.510 -15.420 -22.788  0.00  0.00    +0.007 C 
ATOM     15  C   UNL     1      33.858 -15.788 -25.143  0.00  0.00    +0.251 C 
ATOM     16  C   UNL     1      34.789 -16.848 -22.657  0.00  0.00    +0.014 C 
ATOM     17  C   UNL     1      34.599 -17.681 -23.763  0.00  0.00    +0.051 C 
ATOM     18  C   UNL     1      35.243 -17.398 -21.454  0.00  0.00    +0.001 C 
ATOM     19  C   UNL     1      34.857 -19.051 -23.677  0.00  0.00    +0.015 C 
ATOM     20  C   UNL     1      35.502 -18.768 -21.366  0.00  0.00    +0.000 C 
ATOM     21  C   UNL     1      35.309 -19.592 -22.474  0.00  0.00    +0.001 C 
ATOM     22  H   UNL     1      34.015 -17.733 -25.740  0.00  0.00    +0.155 HD
ENDBRANCH   9  13
BRANCH   2  23
ATOM     23  C   UNL     1      32.549  -7.600 -24.094  0.00  0.00    -0.050 C 
BRANCH  23  24
ATOM     24  N   UNL     1      32.919  -6.619 -25.113  0.00  0.00    +0.390 N 
ATOM     25  C   UNL     1      33.483  -3.921 -26.117  0.00  0.00    -0.026 C 
ATOM     26  C   UNL     1      32.176  -4.658 -26.429  0.00  0.00    -0.025 C 
ATOM     27  C   UNL     1      34.591  -4.937 -25.820  0.00  0.00    -0.025 C 
ATOM     28  C   UNL     1      31.826  -5.660 -25.326  0.00  0.00    -0.077 C 
ATOM     29  C   UNL     1      34.161  -5.930 -24.737  0.00  0.00    -0.077 C 
ATOM     30  H   UNL     1      33.085  -7.107 -25.993  0.00  0.00    -0.079 HD
BRANCH  25  31
ATOM     31  C   UNL     1      33.880  -2.998 -27.266  0.00  0.00    -0.086 C 
BRANCH  31  32
ATOM     32  N   UNL     1      33.185  -3.364 -28.490  0.00  0.00    +0.380 N 
ATOM     33  H   UNL     1      33.742  -3.079 -29.295  0.00  0.00    -0.089 HD
ATOM     34  H   UNL     1      32.280  -2.895 -28.521  0.00  0.00    -0.089 HD
ATOM     35  H   UNL     1      33.045  -4.375 -28.513  0.00  0.00    -0.089 HD
ENDBRANCH  31  32
ENDBRANCH  25  31
ENDBRANCH  23  24
ENDBRANCH   2  23
TORSDOF 5
ENDMDL
MODEL 8
REMARK VINA RESULT:     -10.9      2.940     10.748
REMARK  Name = 10156987
REMARK  5 active torsions:
REMARK  status: ('A' for Active; 'I' for Inactive)
REMARK    1  A    between atoms: C_2  and  C_23
REMARK    2  A    between atoms: C_9  and  C_13
REMARK    3  A    between atoms: C_23  and  N_24
REMARK    4  A    between atoms: C_25  and  C_31
REMARK    5  A    between atoms: C_31  and  N_32
REMARK                            x       y       z     vdW  Elec       q    Type
REMARK                         _______ _______ _______ _____ _____    ______ ____
ROOT
ATOM      1  N   UNL     1      35.547 -20.649 -19.963  0.00  0.00    -0.312 N 
ATOM      2  C   UNL     1      35.011 -18.554 -23.462  0.00  0.00    -0.043 C 
ATOM      3  C   UNL     1      33.984 -19.269 -22.846  0.00  0.00    -0.005 C 
ATOM      4  C   UNL     1      36.289 -18.508 -22.918  0.00  0.00    -0.005 C 
ATOM      5  C   UNL     1      34.258 -19.959 -21.648  0.00  0.00    +0.014 C 
ATOM      6  C   UNL     1      35.549 -19.901 -21.120  0.00  0.00    +0.048 C 
ATOM      7  C   UNL     1      36.584 -19.185 -21.731  0.00  0.00    +0.014 C 
ATOM      8  C   UNL     1      33.484 -20.767 -20.769  0.00  0.00    +0.016 C 
ATOM      9  C   UNL     1      34.304 -21.176 -19.744  0.00  0.00    +0.053 C 
ATOM     10  H   UNL     1      36.329 -20.785 -19.379  0.00  0.00    +0.152 HD
ENDROOT
BRANCH   9  13
ATOM     11  O   UNL     1      36.439 -22.125 -18.100  0.00  0.00    -0.270 OA
ATOM     12  N   UNL     1      35.021 -23.202 -16.657  0.00  0.00    -0.280 N 
ATOM     13  C   UNL     1      34.109 -21.988 -18.583  0.00  0.00    +0.067 C 
ATOM     14  C   UNL     1      32.865 -22.344 -18.220  0.00  0.00    +0.007 C 
ATOM     15  C   UNL     1      35.293 -22.433 -17.772  0.00  0.00    +0.251 C 
ATOM     16  C   UNL     1      32.630 -23.165 -17.035  0.00  0.00    +0.014 C 
ATOM     17  C   UNL     1      33.725 -23.579 -16.269  0.00  0.00    +0.051 C 
ATOM     18  C   UNL     1      31.341 -23.543 -16.649  0.00  0.00    +0.001 C 
ATOM     19  C   UNL     1      33.540 -24.363 -15.128  0.00  0.00    +0.015 C 
ATOM     20  C   UNL     1      31.154 -24.327 -15.508  0.00  0.00    +0.000 C 
ATOM     21  C   UNL     1      32.251 -24.736 -14.750  0.00  0.00    +0.001 C 
ATOM     22  H   UNL     1      35.778 -23.503 -16.103  0.00  0.00    +0.155 HD
ENDBRANCH   9  13
BRANCH   2  23
ATOM     23  C   UNL     1      34.727 -17.818 -24.739  0.00  0.00    -0.050 C 
BRANCH  23  24
ATOM     24  N   UNL     1      34.632 -16.374 -24.529  0.00  0.00    +0.390 N 
ATOM     25  C   UNL     1      33.325 -13.904 -23.637  0.00  0.00    -0.026 C 
ATOM     26  C   UNL     1      33.417 -14.299 -25.115  0.00  0.00    -0.025 C 
ATOM     27  C   UNL     1      34.469 -14.558 -22.856  0.00  0.00    -0.025 C 
ATOM     28  C   UNL     1      33.498 -15.817 -25.282  0.00  0.00    -0.077 C 
ATOM     29  C   UNL     1      34.516 -16.069 -23.096  0.00  0.00    -0.077 C 
ATOM     30  H   UNL     1      35.485 -15.936 -24.876  0.00  0.00    -0.079 HD
BRANCH  25  31
ATOM     31  C   UNL     1      33.346 -12.387 -23.472  0.00  0.00    -0.086 C 
BRANCH  31  32
ATOM     32  N   UNL     1      34.290 -11.777 -24.395  0.00  0.00    +0.380 N 
ATOM     33  H   UNL     1      35.002 -11.272 -23.868  0.00  0.00    -0.089 HD
ATOM     34  H   UNL     1      33.796 -11.127 -25.007  0.00  0.00    -0.089 HD
ATOM     35  H   UNL     1      34.734 -12.503 -24.958  0.00  0.00    -0.089 HD
ENDBRANCH  31  32
ENDBRANCH  25  31
ENDBRANCH  23  24
ENDBRANCH   2  23
TORSDOF 5
ENDMDL
MODEL 9
REMARK VINA RESULT:     -10.8      2.410     10.606
REMARK  Name = 10156987
REMARK  5 active torsions:
REMARK  status: ('A' for Active; 'I' for Inactive)
REMARK    1  A    between atoms: C_2  and  C_23
REMARK    2  A    between atoms: C_9  and  C_13
REMARK    3  A    between atoms: C_23  and  N_24
REMARK    4  A    between atoms: C_25  and  C_31
REMARK    5  A    between atoms: C_31  and  N_32
REMARK                            x       y       z     vdW  Elec       q    Type
REMARK                         _______ _______ _______ _____ _____    ______ ____
ROOT
ATOM      1  N   UNL     1      34.605 -16.301 -21.632  0.00  0.00    -0.312 N 
ATOM      2  C   UNL     1      34.063 -13.572 -24.661  0.00  0.00    -0.043 C 
ATOM      3  C   UNL     1      34.275 -14.931 -24.898  0.00  0.00    -0.005 C 
ATOM      4  C   UNL     1      34.023 -13.061 -23.370  0.00  0.00    -0.005 C 
ATOM      5  C   UNL     1      34.451 -15.795 -23.799  0.00  0.00    +0.014 C 
ATOM      6  C   UNL     1      34.407 -15.259 -22.510  0.00  0.00    +0.048 C 
ATOM      7  C   UNL     1      34.196 -13.898 -22.265  0.00  0.00    +0.014 C 
ATOM      8  C   UNL     1      34.682 -17.192 -23.662  0.00  0.00    +0.016 C 
ATOM      9  C   UNL     1      34.772 -17.473 -22.319  0.00  0.00    +0.053 C 
ATOM     10  H   UNL     1      34.625 -16.215 -20.651  0.00  0.00    +0.152 HD
ENDROOT
BRANCH   9  13
ATOM     11  O   UNL     1      37.366 -18.473 -21.658  0.00  0.00    -0.270 OA
ATOM     12  N   UNL     1      36.522 -20.274 -20.518  0.00  0.00    -0.280 N 
ATOM     13  C   UNL     1      34.993 -18.670 -21.569  0.00  0.00    +0.067 C 
ATOM     14  C   UNL     1      33.941 -19.389 -21.139  0.00  0.00    +0.007 C 
ATOM     15  C   UNL     1      36.394 -19.114 -21.259  0.00  0.00    +0.251 C 
ATOM     16  C   UNL     1      34.130 -20.613 -20.363  0.00  0.00    +0.014 C 
ATOM     17  C   UNL     1      35.430 -21.032 -20.064  0.00  0.00    +0.051 C 
ATOM     18  C   UNL     1      33.045 -21.369 -19.913  0.00  0.00    +0.001 C 
ATOM     19  C   UNL     1      35.651 -22.195 -19.322  0.00  0.00    +0.015 C 
ATOM     20  C   UNL     1      33.264 -22.532 -19.170  0.00  0.00    +0.000 C 
ATOM     21  C   UNL     1      34.563 -22.944 -18.876  0.00  0.00    +0.001 C 
ATOM     22  H   UNL     1      37.429 -20.585 -20.295  0.00  0.00    +0.155 HD
ENDBRANCH   9  13
BRANCH   2  23
ATOM     23  C   UNL     1      33.876 -12.647 -25.828  0.00  0.00    -0.050 C 
BRANCH  23  24
ATOM     24  N   UNL     1      34.361 -11.297 -25.539  0.00  0.00    +0.390 N 
ATOM     25  C   UNL     1      34.403  -8.378 -25.819  0.00  0.00    -0.026 C 
ATOM     26  C   UNL     1      35.463  -9.281 -26.459  0.00  0.00    -0.025 C 
ATOM     27  C   UNL     1      33.794  -9.079 -24.601  0.00  0.00    -0.025 C 
ATOM     28  C   UNL     1      34.902 -10.674 -26.755  0.00  0.00    -0.077 C 
ATOM     29  C   UNL     1      33.288 -10.479 -24.957  0.00  0.00    -0.077 C 
ATOM     30  H   UNL     1      35.115 -11.360 -24.855  0.00  0.00    -0.079 HD
BRANCH  25  31
ATOM     31  C   UNL     1      34.994  -7.025 -25.435  0.00  0.00    -0.086 C 
BRANCH  31  32
ATOM     32  N   UNL     1      35.390  -7.010 -24.035  0.00  0.00    +0.380 N 
ATOM     33  H   UNL     1      36.090  -6.283 -23.888  0.00  0.00    -0.089 HD
ATOM     34  H   UNL     1      35.784  -7.917 -23.783  0.00  0.00    -0.089 HD
ATOM     35  H   UNL     1      34.574  -6.820 -23.452  0.00  0.00    -0.089 HD
ENDBRANCH  31  32
ENDBRANCH  25  31
ENDBRANCH  23  24
ENDBRANCH   2  23
TORSDOF 5
ENDMDL
