MODEL 1
REMARK VINA RESULT:     -11.6      0.000      0.000
REMARK  Name = 44129624
REMARK  6 active torsions:
REMARK  status: ('A' for Active; 'I' for Inactive)
REMARK    1  A    between atoms: C_1  and  O_20
REMARK    2  A    between atoms: C_4  and  C_8
REMARK    3  A    between atoms: C_8  and  C_9
REMARK    4  A    between atoms: C_10  and  C_16
REMARK    5  A    between atoms: O_20  and  C_21
REMARK    6  A    between atoms: C_21  and  C_23
REMARK                            x       y       z     vdW  Elec       q    Type
REMARK                         _______ _______ _______ _____ _____    ______ ____
ROOT
ATOM      1  C   UNL     1      33.239 -21.970 -19.411  0.00  0.00    +0.138 C 
ATOM      2  C   UNL     1      32.741 -20.970 -20.245  0.00  0.00    +0.037 C 
ATOM      3  C   UNL     1      34.616 -22.112 -19.237  0.00  0.00    +0.037 C 
ATOM      4  C   UNL     1      34.995 -20.251 -20.730  0.00  0.00    +0.039 C 
ATOM      5  C   UNL     1      33.618 -20.110 -20.904  0.00  0.00    +0.006 C 
ATOM      6  C   UNL     1      35.493 -21.251 -19.896  0.00  0.00    +0.006 C 
ENDROOT
BRANCH   4   8
ATOM      7  O   UNL     1      37.129 -19.579 -21.409  0.00  0.00    -0.287 OA
ATOM      8  C   UNL     1      35.910 -19.352 -21.415  0.00  0.00    +0.196 C 
BRANCH   8   9
ATOM      9  C   UNL     1      35.442 -18.137 -22.147  0.00  0.00    +0.039 C 
ATOM     10  C   UNL     1      34.568 -15.867 -23.514  0.00  0.00    +0.001 C 
ATOM     11  C   UNL     1      35.072 -16.995 -21.437  0.00  0.00    +0.003 C 
ATOM     12  C   UNL     1      35.374 -18.144 -23.541  0.00  0.00    +0.003 C 
ATOM     13  C   UNL     1      34.635 -15.860 -22.121  0.00  0.00    +0.000 C 
ATOM     14  C   UNL     1      34.937 -17.010 -24.224  0.00  0.00    +0.000 C 
BRANCH  10  16
ATOM     15  S   UNL     1      33.653 -12.215 -24.687  0.00  0.00    -0.086 S 
ATOM     16  C   UNL     1      34.119 -14.698 -24.216  0.00  0.00    +0.007 C 
ATOM     17  C   UNL     1      33.500 -14.649 -25.498  0.00  0.00    +0.007 C 
ATOM     18  C   UNL     1      34.263 -13.444 -23.662  0.00  0.00    +0.035 C 
ATOM     19  C   UNL     1      33.195 -13.359 -25.876  0.00  0.00    +0.035 C 
ENDBRANCH  10  16
ENDBRANCH   8   9
ENDBRANCH   4   8
BRANCH   1  20
ATOM     20  O   UNL     1      32.376 -22.818 -18.762  0.00  0.00    -0.478 OA
BRANCH  20  21
ATOM     21  C   UNL     1      32.710 -23.180 -17.433  0.00  0.00    +0.184 C 
BRANCH  21  23
ATOM     22  N   UNL     1      30.278 -22.763 -17.179  0.00  0.00    +0.388 N 
ATOM     23  C   UNL     1      31.433 -23.525 -16.682  0.00  0.00    -0.017 C 
ATOM     24  C   UNL     1      31.489 -23.149 -15.210  0.00  0.00    -0.020 C 
ATOM     25  C   UNL     1      30.029 -22.994 -14.814  0.00  0.00    -0.025 C 
ATOM     26  C   UNL     1      29.265 -22.898 -16.127  0.00  0.00    -0.082 C 
ATOM     27  H   UNL     1      29.940 -23.155 -18.057  0.00  0.00    -0.084 HD
ATOM     28  H   UNL     1      30.512 -21.788 -17.368  0.00  0.00    -0.084 HD
ENDBRANCH  21  23
ENDBRANCH  20  21
ENDBRANCH   1  20
TORSDOF 6
ENDMDL
MODEL 2
REMARK VINA RESULT:     -10.8      4.133      6.086
REMARK  Name = 44129624
REMARK  6 active torsions:
REMARK  status: ('A' for Active; 'I' for Inactive)
REMARK    1  A    between atoms: C_1  and  O_20
REMARK    2  A    between atoms: C_4  and  C_8
REMARK    3  A    between atoms: C_8  and  C_9
REMARK    4  A    between atoms: C_10  and  C_16
REMARK    5  A    between atoms: O_20  and  C_21
REMARK    6  A    between atoms: C_21  and  C_23
REMARK                            x       y       z     vdW  Elec       q    Type
REMARK                         _______ _______ _______ _____ _____    ______ ____
ROOT
ATOM      1  C   UNL     1      35.511 -23.181 -14.464  0.00  0.00    +0.138 C 
ATOM      2  C   UNL     1      34.198 -23.599 -14.672  0.00  0.00    +0.037 C 
ATOM      3  C   UNL     1      36.291 -22.768 -15.545  0.00  0.00    +0.037 C 
ATOM      4  C   UNL     1      34.442 -23.193 -17.041  0.00  0.00    +0.039 C 
ATOM      5  C   UNL     1      33.663 -23.605 -15.959  0.00  0.00    +0.006 C 
ATOM      6  C   UNL     1      35.756 -22.774 -16.833  0.00  0.00    +0.006 C 
ENDROOT
BRANCH   4   8
ATOM      7  O   UNL     1      33.208 -24.160 -18.775  0.00  0.00    -0.287 OA
ATOM      8  C   UNL     1      33.883 -23.197 -18.383  0.00  0.00    +0.196 C 
BRANCH   8   9
ATOM      9  C   UNL     1      34.087 -22.067 -19.340  0.00  0.00    +0.039 C 
ATOM     10  C   UNL     1      34.467 -19.959 -21.126  0.00  0.00    +0.001 C 
ATOM     11  C   UNL     1      35.378 -21.686 -19.703  0.00  0.00    +0.003 C 
ATOM     12  C   UNL     1      32.986 -21.393 -19.869  0.00  0.00    +0.003 C 
ATOM     13  C   UNL     1      35.568 -20.632 -20.597  0.00  0.00    +0.000 C 
ATOM     14  C   UNL     1      33.176 -20.339 -20.762  0.00  0.00    +0.000 C 
BRANCH  10  16
ATOM     15  S   UNL     1      34.616 -17.567 -24.258  0.00  0.00    -0.086 S 
ATOM     16  C   UNL     1      34.665 -18.874 -22.046  0.00  0.00    +0.007 C 
ATOM     17  C   UNL     1      35.250 -17.605 -21.768  0.00  0.00    +0.007 C 
ATOM     18  C   UNL     1      34.276 -18.987 -23.363  0.00  0.00    +0.035 C 
ATOM     19  C   UNL     1      35.286 -16.796 -22.882  0.00  0.00    +0.035 C 
ENDBRANCH  10  16
ENDBRANCH   8   9
ENDBRANCH   4   8
BRANCH   1  20
ATOM     20  O   UNL     1      36.039 -23.175 -13.197  0.00  0.00    -0.478 OA
BRANCH  20  21
ATOM     21  C   UNL     1      35.888 -24.360 -12.434  0.00  0.00    +0.184 C 
BRANCH  21  23
ATOM     22  N   UNL     1      38.281 -24.559 -13.059  0.00  0.00    +0.388 N 
ATOM     23  C   UNL     1      37.046 -25.295 -12.747  0.00  0.00    -0.017 C 
ATOM     24  C   UNL     1      36.816 -26.129 -13.998  0.00  0.00    -0.020 C 
ATOM     25  C   UNL     1      38.218 -26.493 -14.462  0.00  0.00    -0.025 C 
ATOM     26  C   UNL     1      39.146 -25.547 -13.712  0.00  0.00    -0.082 C 
ATOM     27  H   UNL     1      38.715 -24.209 -12.205  0.00  0.00    -0.084 HD
ATOM     28  H   UNL     1      38.107 -23.747 -13.650  0.00  0.00    -0.084 HD
ENDBRANCH  21  23
ENDBRANCH  20  21
ENDBRANCH   1  20
TORSDOF 6
ENDMDL
MODEL 3
REMARK VINA RESULT:     -10.4      4.809     10.183
REMARK  Name = 44129624
REMARK  6 active torsions:
REMARK  status: ('A' for Active; 'I' for Inactive)
REMARK    1  A    between atoms: C_1  and  O_20
REMARK    2  A    between atoms: C_4  and  C_8
REMARK    3  A    between atoms: C_8  and  C_9
REMARK    4  A    between atoms: C_10  and  C_16
REMARK    5  A    between atoms: O_20  and  C_21
REMARK    6  A    between atoms: C_21  and  C_23
REMARK                            x       y       z     vdW  Elec       q    Type
REMARK                         _______ _______ _______ _____ _____    ______ ____
ROOT
ATOM      1  C   UNL     1      35.562 -19.351 -21.371  0.00  0.00    +0.138 C 
ATOM      2  C   UNL     1      36.473 -20.138 -20.668  0.00  0.00    +0.037 C 
ATOM      3  C   UNL     1      34.199 -19.643 -21.317  0.00  0.00    +0.037 C 
ATOM      4  C   UNL     1      34.659 -21.511 -19.855  0.00  0.00    +0.039 C 
ATOM      5  C   UNL     1      36.022 -21.218 -19.911  0.00  0.00    +0.006 C 
ATOM      6  C   UNL     1      33.748 -20.723 -20.558  0.00  0.00    +0.006 C 
ENDROOT
BRANCH   4   8
ATOM      7  O   UNL     1      33.409 -23.464 -19.555  0.00  0.00    -0.287 OA
ATOM      8  C   UNL     1      34.189 -22.636 -19.062  0.00  0.00    +0.196 C 
BRANCH   8   9
ATOM      9  C   UNL     1      34.611 -22.849 -17.645  0.00  0.00    +0.039 C 
ATOM     10  C   UNL     1      35.399 -23.248 -14.999  0.00  0.00    +0.001 C 
ATOM     11  C   UNL     1      33.751 -23.486 -16.750  0.00  0.00    +0.003 C 
ATOM     12  C   UNL     1      35.864 -22.410 -17.216  0.00  0.00    +0.003 C 
ATOM     13  C   UNL     1      34.145 -23.685 -15.427  0.00  0.00    +0.000 C 
ATOM     14  C   UNL     1      36.258 -22.610 -15.893  0.00  0.00    +0.000 C 
BRANCH  10  16
ATOM     15  S   UNL     1      35.680 -24.230 -11.190  0.00  0.00    -0.086 S 
ATOM     16  C   UNL     1      35.803 -23.455 -13.636  0.00  0.00    +0.007 C 
ATOM     17  C   UNL     1      37.027 -23.048 -13.031  0.00  0.00    +0.007 C 
ATOM     18  C   UNL     1      34.978 -24.108 -12.747  0.00  0.00    +0.035 C 
ATOM     19  C   UNL     1      37.091 -23.407 -11.702  0.00  0.00    +0.035 C 
ENDBRANCH  10  16
ENDBRANCH   8   9
ENDBRANCH   4   8
BRANCH   1  20
ATOM     20  O   UNL     1      36.005 -18.288 -22.118  0.00  0.00    -0.478 OA
BRANCH  20  21
ATOM     21  C   UNL     1      35.283 -17.991 -23.303  0.00  0.00    +0.184 C 
BRANCH  21  23
ATOM     22  N   UNL     1      34.633 -15.829 -22.276  0.00  0.00    +0.388 N 
ATOM     23  C   UNL     1      35.205 -16.481 -23.464  0.00  0.00    -0.017 C 
ATOM     24  C   UNL     1      34.266 -16.051 -24.580  0.00  0.00    -0.020 C 
ATOM     25  C   UNL     1      33.864 -14.634 -24.198  0.00  0.00    -0.025 C 
ATOM     26  C   UNL     1      34.259 -14.487 -22.735  0.00  0.00    -0.082 C 
ATOM     27  H   UNL     1      35.325 -15.773 -21.529  0.00  0.00    -0.084 HD
ATOM     28  H   UNL     1      33.838 -16.344 -21.898  0.00  0.00    -0.084 HD
ENDBRANCH  21  23
ENDBRANCH  20  21
ENDBRANCH   1  20
TORSDOF 6
ENDMDL
MODEL 4
REMARK VINA RESULT:     -10.3      2.233      3.743
REMARK  Name = 44129624
REMARK  6 active torsions:
REMARK  status: ('A' for Active; 'I' for Inactive)
REMARK    1  A    between atoms: C_1  and  O_20
REMARK    2  A    between atoms: C_4  and  C_8
REMARK    3  A    between atoms: C_8  and  C_9
REMARK    4  A    between atoms: C_10  and  C_16
REMARK    5  A    between atoms: O_20  and  C_21
REMARK    6  A    between atoms: C_21  and  C_23
REMARK                            x       y       z     vdW  Elec       q    Type
REMARK                         _______ _______ _______ _____ _____    ______ ____
ROOT
ATOM      1  C   UNL     1      35.925 -19.876 -20.755  0.00  0.00    +0.138 C 
ATOM      2  C   UNL     1      34.614 -20.059 -21.193  0.00  0.00    +0.037 C 
ATOM      3  C   UNL     1      36.773 -19.002 -21.436  0.00  0.00    +0.037 C 
ATOM      4  C   UNL     1      34.998 -18.493 -22.993  0.00  0.00    +0.039 C 
ATOM      5  C   UNL     1      34.150 -19.368 -22.312  0.00  0.00    +0.006 C 
ATOM      6  C   UNL     1      36.308 -18.310 -22.555  0.00  0.00    +0.006 C 
ENDROOT
BRANCH   4   8
ATOM      7  O   UNL     1      34.286 -18.375 -25.217  0.00  0.00    -0.287 OA
ATOM      8  C   UNL     1      34.512 -17.771 -24.158  0.00  0.00    +0.196 C 
BRANCH   8   9
ATOM      9  C   UNL     1      34.265 -16.297 -24.142  0.00  0.00    +0.039 C 
ATOM     10  C   UNL     1      33.802 -13.547 -24.111  0.00  0.00    +0.001 C 
ATOM     11  C   UNL     1      33.714 -15.671 -25.259  0.00  0.00    +0.003 C 
ATOM     12  C   UNL     1      34.585 -15.548 -23.009  0.00  0.00    +0.003 C 
ATOM     13  C   UNL     1      33.482 -14.295 -25.244  0.00  0.00    +0.000 C 
ATOM     14  C   UNL     1      34.354 -14.173 -22.994  0.00  0.00    +0.000 C 
BRANCH  10  16
ATOM     15  S   UNL     1      33.699  -9.668 -24.817  0.00  0.00    -0.086 S 
ATOM     16  C   UNL     1      33.563 -12.131 -24.097  0.00  0.00    +0.007 C 
ATOM     17  C   UNL     1      32.759 -11.404 -23.172  0.00  0.00    +0.007 C 
ATOM     18  C   UNL     1      34.133 -11.309 -25.044  0.00  0.00    +0.035 C 
ATOM     19  C   UNL     1      32.746 -10.054 -23.448  0.00  0.00    +0.035 C 
ENDBRANCH  10  16
ENDBRANCH   8   9
ENDBRANCH   4   8
BRANCH   1  20
ATOM     20  O   UNL     1      36.384 -20.556 -19.654  0.00  0.00    -0.478 OA
BRANCH  20  21
ATOM     21  C   UNL     1      36.016 -21.921 -19.545  0.00  0.00    +0.184 C 
BRANCH  21  23
ATOM     22  N   UNL     1      35.459 -22.826 -17.304  0.00  0.00    +0.388 N 
ATOM     23  C   UNL     1      34.963 -22.060 -18.457  0.00  0.00    -0.017 C 
ATOM     24  C   UNL     1      33.748 -22.857 -18.905  0.00  0.00    -0.020 C 
ATOM     25  C   UNL     1      33.155 -23.386 -17.608  0.00  0.00    -0.025 C 
ATOM     26  C   UNL     1      34.250 -23.207 -16.565  0.00  0.00    -0.082 C 
ATOM     27  H   UNL     1      36.068 -22.248 -16.724  0.00  0.00    -0.084 HD
ATOM     28  H   UNL     1      36.010 -23.635 -17.587  0.00  0.00    -0.084 HD
ENDBRANCH  21  23
ENDBRANCH  20  21
ENDBRANCH   1  20
TORSDOF 6
ENDMDL
MODEL 5
REMARK VINA RESULT:     -10.3      4.501     10.006
REMARK  Name = 44129624
REMARK  6 active torsions:
REMARK  status: ('A' for Active; 'I' for Inactive)
REMARK    1  A    between atoms: C_1  and  O_20
REMARK    2  A    between atoms: C_4  and  C_8
REMARK    3  A    between atoms: C_8  and  C_9
REMARK    4  A    between atoms: C_10  and  C_16
REMARK    5  A    between atoms: O_20  and  C_21
REMARK    6  A    between atoms: C_21  and  C_23
REMARK                            x       y       z     vdW  Elec       q    Type
REMARK                         _______ _______ _______ _____ _____    ______ ____
ROOT
ATOM      1  C   UNL     1      34.510 -15.030 -22.893  0.00  0.00    +0.138 C 
ATOM      2  C   UNL     1      34.662 -15.726 -21.695  0.00  0.00    +0.037 C 
ATOM      3  C   UNL     1      34.448 -15.725 -24.101  0.00  0.00    +0.037 C 
ATOM      4  C   UNL     1      34.689 -17.813 -22.910  0.00  0.00    +0.039 C 
ATOM      5  C   UNL     1      34.751 -17.117 -21.703  0.00  0.00    +0.006 C 
ATOM      6  C   UNL     1      34.537 -17.117 -24.109  0.00  0.00    +0.006 C 
ENDROOT
BRANCH   4   8
ATOM      7  O   UNL     1      34.962 -19.873 -23.983  0.00  0.00    -0.287 OA
ATOM      8  C   UNL     1      34.780 -19.264 -22.918  0.00  0.00    +0.196 C 
BRANCH   8   9
ATOM      9  C   UNL     1      34.662 -20.082 -21.672  0.00  0.00    +0.039 C 
ATOM     10  C   UNL     1      34.442 -21.608 -19.347  0.00  0.00    +0.001 C 
ATOM     11  C   UNL     1      33.404 -20.374 -21.147  0.00  0.00    +0.003 C 
ATOM     12  C   UNL     1      35.811 -20.551 -21.034  0.00  0.00    +0.003 C 
ATOM     13  C   UNL     1      33.294 -21.138 -19.985  0.00  0.00    +0.000 C 
ATOM     14  C   UNL     1      35.701 -21.313 -19.872  0.00  0.00    +0.000 C 
BRANCH  10  16
ATOM     15  S   UNL     1      35.002 -23.488 -15.926  0.00  0.00    -0.086 S 
ATOM     16  C   UNL     1      34.327 -22.394 -18.152  0.00  0.00    +0.007 C 
ATOM     17  C   UNL     1      33.192 -23.135 -17.716  0.00  0.00    +0.007 C 
ATOM     18  C   UNL     1      35.383 -22.499 -17.272  0.00  0.00    +0.035 C 
ATOM     19  C   UNL     1      33.422 -23.778 -16.519  0.00  0.00    +0.035 C 
ENDBRANCH  10  16
ENDBRANCH   8   9
ENDBRANCH   4   8
BRANCH   1  20
ATOM     20  O   UNL     1      34.422 -13.660 -22.887  0.00  0.00    -0.478 OA
BRANCH  20  21
ATOM     21  C   UNL     1      33.377 -13.080 -23.649  0.00  0.00    +0.184 C 
BRANCH  21  23
ATOM     22  N   UNL     1      33.575 -10.832 -24.679  0.00  0.00    +0.388 N 
ATOM     23  C   UNL     1      33.988 -12.242 -24.761  0.00  0.00    -0.017 C 
ATOM     24  C   UNL     1      33.519 -12.659 -26.146  0.00  0.00    -0.020 C 
ATOM     25  C   UNL     1      33.716 -11.411 -26.993  0.00  0.00    -0.025 C 
ATOM     26  C   UNL     1      33.898 -10.275 -25.997  0.00  0.00    -0.082 C 
ATOM     27  H   UNL     1      34.094 -10.348 -23.946  0.00  0.00    -0.084 HD
ATOM     28  H   UNL     1      32.587 -10.732 -24.448  0.00  0.00    -0.084 HD
ENDBRANCH  21  23
ENDBRANCH  20  21
ENDBRANCH   1  20
TORSDOF 6
ENDMDL
MODEL 6
REMARK VINA RESULT:     -10.2      4.419      9.129
REMARK  Name = 44129624
REMARK  6 active torsions:
REMARK  status: ('A' for Active; 'I' for Inactive)
REMARK    1  A    between atoms: C_1  and  O_20
REMARK    2  A    between atoms: C_4  and  C_8
REMARK    3  A    between atoms: C_8  and  C_9
REMARK    4  A    between atoms: C_10  and  C_16
REMARK    5  A    between atoms: O_20  and  C_21
REMARK    6  A    between atoms: C_21  and  C_23
REMARK                            x       y       z     vdW  Elec       q    Type
REMARK                         _______ _______ _______ _____ _____    ______ ____
ROOT
ATOM      1  C   UNL     1      34.329 -14.932 -22.782  0.00  0.00    +0.138 C 
ATOM      2  C   UNL     1      34.582 -15.587 -21.577  0.00  0.00    +0.037 C 
ATOM      3  C   UNL     1      34.326 -15.648 -23.979  0.00  0.00    +0.037 C 
ATOM      4  C   UNL     1      34.829 -17.676 -22.765  0.00  0.00    +0.039 C 
ATOM      5  C   UNL     1      34.832 -16.958 -21.568  0.00  0.00    +0.006 C 
ATOM      6  C   UNL     1      34.576 -17.020 -23.970  0.00  0.00    +0.006 C 
ENDROOT
BRANCH   4   8
ATOM      7  O   UNL     1      35.599 -19.656 -23.742  0.00  0.00    -0.287 OA
ATOM      8  C   UNL     1      35.087 -19.107 -22.755  0.00  0.00    +0.196 C 
BRANCH   8   9
ATOM      9  C   UNL     1      34.756 -19.973 -21.583  0.00  0.00    +0.039 C 
ATOM     10  C   UNL     1      34.139 -21.591 -19.396  0.00  0.00    +0.001 C 
ATOM     11  C   UNL     1      33.424 -20.187 -21.229  0.00  0.00    +0.003 C 
ATOM     12  C   UNL     1      35.779 -20.567 -20.844  0.00  0.00    +0.003 C 
ATOM     13  C   UNL     1      33.116 -20.996 -20.135  0.00  0.00    +0.000 C 
ATOM     14  C   UNL     1      35.470 -21.375 -19.750  0.00  0.00    +0.000 C 
BRANCH  10  16
ATOM     15  S   UNL     1      34.168 -23.791 -16.124  0.00  0.00    -0.086 S 
ATOM     16  C   UNL     1      33.819 -22.424 -18.271  0.00  0.00    +0.007 C 
ATOM     17  C   UNL     1      32.541 -22.952 -17.928  0.00  0.00    +0.007 C 
ATOM     18  C   UNL     1      34.794 -22.802 -17.374  0.00  0.00    +0.035 C 
ATOM     19  C   UNL     1      32.588 -23.715 -16.781  0.00  0.00    +0.035 C 
ENDBRANCH  10  16
ENDBRANCH   8   9
ENDBRANCH   4   8
BRANCH   1  20
ATOM     20  O   UNL     1      34.084 -13.581 -22.791  0.00  0.00    -0.478 OA
BRANCH  20  21
ATOM     21  C   UNL     1      32.940 -13.142 -23.505  0.00  0.00    +0.184 C 
BRANCH  21  23
ATOM     22  N   UNL     1      32.135 -11.063 -22.418  0.00  0.00    +0.388 N 
ATOM     23  C   UNL     1      31.959 -12.519 -22.524  0.00  0.00    -0.017 C 
ATOM     24  C   UNL     1      32.163 -12.997 -21.095  0.00  0.00    -0.020 C 
ATOM     25  C   UNL     1      31.571 -11.883 -20.245  0.00  0.00    -0.025 C 
ATOM     26  C   UNL     1      31.431 -10.694 -21.185  0.00  0.00    -0.082 C 
ATOM     27  H   UNL     1      31.722 -10.592 -23.223  0.00  0.00    -0.084 HD
ATOM     28  H   UNL     1      33.118 -10.794 -22.397  0.00  0.00    -0.084 HD
ENDBRANCH  21  23
ENDBRANCH  20  21
ENDBRANCH   1  20
TORSDOF 6
ENDMDL
MODEL 7
REMARK VINA RESULT:     -10.1      5.224     10.629
REMARK  Name = 44129624
REMARK  6 active torsions:
REMARK  status: ('A' for Active; 'I' for Inactive)
REMARK    1  A    between atoms: C_1  and  O_20
REMARK    2  A    between atoms: C_4  and  C_8
REMARK    3  A    between atoms: C_8  and  C_9
REMARK    4  A    between atoms: C_10  and  C_16
REMARK    5  A    between atoms: O_20  and  C_21
REMARK    6  A    between atoms: C_21  and  C_23
REMARK                            x       y       z     vdW  Elec       q    Type
REMARK                         _______ _______ _______ _____ _____    ______ ____
ROOT
ATOM      1  C   UNL     1      33.233 -12.427 -23.613  0.00  0.00    +0.138 C 
ATOM      2  C   UNL     1      33.486 -13.335 -22.586  0.00  0.00    +0.037 C 
ATOM      3  C   UNL     1      33.447 -12.798 -24.941  0.00  0.00    +0.037 C 
ATOM      4  C   UNL     1      34.167 -14.986 -24.212  0.00  0.00    +0.039 C 
ATOM      5  C   UNL     1      33.953 -14.614 -22.885  0.00  0.00    +0.006 C 
ATOM      6  C   UNL     1      33.913 -14.078 -25.240  0.00  0.00    +0.006 C 
ENDROOT
BRANCH   4   8
ATOM      7  O   UNL     1      35.032 -16.595 -25.672  0.00  0.00    -0.287 OA
ATOM      8  C   UNL     1      34.651 -16.321 -24.524  0.00  0.00    +0.196 C 
BRANCH   8   9
ATOM      9  C   UNL     1      34.716 -17.409 -23.502  0.00  0.00    +0.039 C 
ATOM     10  C   UNL     1      34.837 -19.441 -21.594  0.00  0.00    +0.001 C 
ATOM     11  C   UNL     1      34.108 -18.639 -23.754  0.00  0.00    +0.003 C 
ATOM     12  C   UNL     1      35.382 -17.195 -22.295  0.00  0.00    +0.003 C 
ATOM     13  C   UNL     1      34.169 -19.655 -22.800  0.00  0.00    +0.000 C 
ATOM     14  C   UNL     1      35.442 -18.210 -21.342  0.00  0.00    +0.000 C 
BRANCH  10  16
ATOM     15  S   UNL     1      34.085 -22.330 -19.018  0.00  0.00    -0.086 S 
ATOM     16  C   UNL     1      34.899 -20.488 -20.614  0.00  0.00    +0.007 C 
ATOM     17  C   UNL     1      36.064 -21.000 -19.974  0.00  0.00    +0.007 C 
ATOM     18  C   UNL     1      33.753 -21.122 -20.186  0.00  0.00    +0.035 C 
ATOM     19  C   UNL     1      35.765 -22.006 -19.082  0.00  0.00    +0.035 C 
ENDBRANCH  10  16
ENDBRANCH   8   9
ENDBRANCH   4   8
BRANCH   1  20
ATOM     20  O   UNL     1      32.774 -11.167 -23.320  0.00  0.00    -0.478 OA
BRANCH  20  21
ATOM     21  C   UNL     1      32.978 -10.165 -24.302  0.00  0.00    +0.184 C 
BRANCH  21  23
ATOM     22  N   UNL     1      33.023  -7.749 -23.743  0.00  0.00    +0.388 N 
ATOM     23  C   UNL     1      33.760  -9.019 -23.678  0.00  0.00    -0.017 C 
ATOM     24  C   UNL     1      35.052  -8.709 -24.419  0.00  0.00    -0.020 C 
ATOM     25  C   UNL     1      35.340  -7.258 -24.063  0.00  0.00    -0.025 C 
ATOM     26  C   UNL     1      34.037  -6.719 -23.490  0.00  0.00    -0.082 C 
ATOM     27  H   UNL     1      32.295  -7.719 -23.030  0.00  0.00    -0.084 HD
ATOM     28  H   UNL     1      32.556  -7.619 -24.640  0.00  0.00    -0.084 HD
ENDBRANCH  21  23
ENDBRANCH  20  21
ENDBRANCH   1  20
TORSDOF 6
ENDMDL
MODEL 8
REMARK VINA RESULT:     -10.0      4.818     10.244
REMARK  Name = 44129624
REMARK  6 active torsions:
REMARK  status: ('A' for Active; 'I' for Inactive)
REMARK    1  A    between atoms: C_1  and  O_20
REMARK    2  A    between atoms: C_4  and  C_8
REMARK    3  A    between atoms: C_8  and  C_9
REMARK    4  A    between atoms: C_10  and  C_16
REMARK    5  A    between atoms: O_20  and  C_21
REMARK    6  A    between atoms: C_21  and  C_23
REMARK                            x       y       z     vdW  Elec       q    Type
REMARK                         _______ _______ _______ _____ _____    ______ ____
ROOT
ATOM      1  C   UNL     1      33.645 -13.228 -23.857  0.00  0.00    +0.138 C 
ATOM      2  C   UNL     1      33.406 -13.850 -25.082  0.00  0.00    +0.037 C 
ATOM      3  C   UNL     1      34.212 -13.950 -22.807  0.00  0.00    +0.037 C 
ATOM      4  C   UNL     1      34.300 -15.917 -24.207  0.00  0.00    +0.039 C 
ATOM      5  C   UNL     1      33.733 -15.194 -25.257  0.00  0.00    +0.006 C 
ATOM      6  C   UNL     1      34.540 -15.295 -22.983  0.00  0.00    +0.006 C 
ENDROOT
BRANCH   4   8
ATOM      7  O   UNL     1      34.793 -17.779 -25.533  0.00  0.00    -0.287 OA
ATOM      8  C   UNL     1      34.644 -17.317 -24.392  0.00  0.00    +0.196 C 
BRANCH   8   9
ATOM      9  C   UNL     1      34.832 -18.255 -23.243  0.00  0.00    +0.039 C 
ATOM     10  C   UNL     1      35.184 -20.004 -21.099  0.00  0.00    +0.001 C 
ATOM     11  C   UNL     1      33.780 -19.072 -22.830  0.00  0.00    +0.003 C 
ATOM     12  C   UNL     1      36.060 -18.311 -22.583  0.00  0.00    +0.003 C 
ATOM     13  C   UNL     1      33.956 -19.947 -21.758  0.00  0.00    +0.000 C 
ATOM     14  C   UNL     1      36.236 -19.186 -21.511  0.00  0.00    +0.000 C 
BRANCH  10  16
ATOM     15  S   UNL     1      36.515 -22.083 -18.023  0.00  0.00    -0.086 S 
ATOM     16  C   UNL     1      35.363 -20.906 -19.996  0.00  0.00    +0.007 C 
ATOM     17  C   UNL     1      34.423 -21.852 -19.497  0.00  0.00    +0.007 C 
ATOM     18  C   UNL     1      36.544 -20.926 -19.286  0.00  0.00    +0.035 C 
ATOM     19  C   UNL     1      34.920 -22.560 -18.424  0.00  0.00    +0.035 C 
ENDBRANCH  10  16
ENDBRANCH   8   9
ENDBRANCH   4   8
BRANCH   1  20
ATOM     20  O   UNL     1      33.323 -11.905 -23.683  0.00  0.00    -0.478 OA
BRANCH  20  21
ATOM     21  C   UNL     1      33.954 -10.973 -24.544  0.00  0.00    +0.184 C 
BRANCH  21  23
ATOM     22  N   UNL     1      32.340  -9.603 -23.252  0.00  0.00    +0.388 N 
ATOM     23  C   UNL     1      33.468  -9.575 -24.195  0.00  0.00    -0.017 C 
ATOM     24  C   UNL     1      32.899  -8.827 -25.391  0.00  0.00    -0.020 C 
ATOM     25  C   UNL     1      31.965  -7.798 -24.773  0.00  0.00    -0.025 C 
ATOM     26  C   UNL     1      31.750  -8.263 -23.339  0.00  0.00    -0.082 C 
ATOM     27  H   UNL     1      32.668  -9.791 -22.305  0.00  0.00    -0.084 HD
ATOM     28  H   UNL     1      31.668 -10.337 -23.476  0.00  0.00    -0.084 HD
ENDBRANCH  21  23
ENDBRANCH  20  21
ENDBRANCH   1  20
TORSDOF 6
ENDMDL
MODEL 9
REMARK VINA RESULT:      -9.9      3.251      5.837
REMARK  Name = 44129624
REMARK  6 active torsions:
REMARK  status: ('A' for Active; 'I' for Inactive)
REMARK    1  A    between atoms: C_1  and  O_20
REMARK    2  A    between atoms: C_4  and  C_8
REMARK    3  A    between atoms: C_8  and  C_9
REMARK    4  A    between atoms: C_10  and  C_16
REMARK    5  A    between atoms: O_20  and  C_21
REMARK    6  A    between atoms: C_21  and  C_23
REMARK                            x       y       z     vdW  Elec       q    Type
REMARK                         _______ _______ _______ _____ _____    ______ ____
ROOT
ATOM      1  C   UNL     1      35.166 -17.776 -22.234  0.00  0.00    +0.138 C 
ATOM      2  C   UNL     1      34.954 -16.481 -21.762  0.00  0.00    +0.037 C 
ATOM      3  C   UNL     1      34.930 -18.077 -23.576  0.00  0.00    +0.037 C 
ATOM      4  C   UNL     1      34.270 -15.787 -23.972  0.00  0.00    +0.039 C 
ATOM      5  C   UNL     1      34.506 -15.487 -22.630  0.00  0.00    +0.006 C 
ATOM      6  C   UNL     1      34.482 -17.082 -24.445  0.00  0.00    +0.006 C 
ENDROOT
BRANCH   4   8
ATOM      7  O   UNL     1      33.657 -14.994 -26.085  0.00  0.00    -0.287 OA
ATOM      8  C   UNL     1      33.805 -14.749 -24.878  0.00  0.00    +0.196 C 
BRANCH   8   9
ATOM      9  C   UNL     1      33.488 -13.364 -24.415  0.00  0.00    +0.039 C 
ATOM     10  C   UNL     1      32.895 -10.779 -23.551  0.00  0.00    +0.001 C 
ATOM     11  C   UNL     1      34.025 -12.265 -25.085  0.00  0.00    +0.003 C 
ATOM     12  C   UNL     1      32.656 -13.170 -23.312  0.00  0.00    +0.003 C 
ATOM     13  C   UNL     1      33.728 -10.972 -24.653  0.00  0.00    +0.000 C 
ATOM     14  C   UNL     1      32.360 -11.878 -22.880  0.00  0.00    +0.000 C 
BRANCH  10  16
ATOM     15  S   UNL     1      32.894  -6.930 -22.693  0.00  0.00    -0.086 S 
ATOM     16  C   UNL     1      32.590  -9.447 -23.108  0.00  0.00    +0.007 C 
ATOM     17  C   UNL     1      31.408  -9.011 -22.443  0.00  0.00    +0.007 C 
ATOM     18  C   UNL     1      33.483  -8.416 -23.306  0.00  0.00    +0.035 C 
ATOM     19  C   UNL     1      31.441  -7.664 -22.159  0.00  0.00    +0.035 C 
ENDBRANCH  10  16
ENDBRANCH   8   9
ENDBRANCH   4   8
BRANCH   1  20
ATOM     20  O   UNL     1      35.607 -18.756 -21.380  0.00  0.00    -0.478 OA
BRANCH  20  21
ATOM     21  C   UNL     1      35.104 -20.065 -21.591  0.00  0.00    +0.184 C 
BRANCH  21  23
ATOM     22  N   UNL     1      35.226 -21.893 -19.920  0.00  0.00    +0.388 N 
ATOM     23  C   UNL     1      34.592 -20.613 -20.269  0.00  0.00    -0.017 C 
ATOM     24  C   UNL     1      33.111 -20.958 -20.302  0.00  0.00    -0.020 C 
ATOM     25  C   UNL     1      32.949 -21.994 -19.200  0.00  0.00    -0.025 C 
ATOM     26  C   UNL     1      34.362 -22.463 -18.880  0.00  0.00    -0.082 C 
ATOM     27  H   UNL     1      36.168 -21.741 -19.561  0.00  0.00    -0.084 HD
ATOM     28  H   UNL     1      35.319 -22.510 -20.726  0.00  0.00    -0.084 HD
ENDBRANCH  21  23
ENDBRANCH  20  21
ENDBRANCH   1  20
TORSDOF 6
ENDMDL
