MODEL 1
REMARK VINA RESULT:     -12.1      0.000      0.000
REMARK  Name = 44123754
REMARK  11 active torsions:
REMARK  status: ('A' for Active; 'I' for Inactive)
REMARK    1  A    between atoms: C_3  and  C_22
REMARK    2  A    between atoms: C_4  and  C_7
REMARK    3  A    between atoms: N_6  and  C_15
REMARK    4  A    between atoms: C_8  and  N_12
REMARK    5  A    between atoms: C_15  and  O_16
REMARK    6  A    between atoms: O_16  and  P_17
REMARK    7  A    between atoms: P_17  and  O_20
REMARK    8  A    between atoms: C_22  and  C_23
REMARK    9  A    between atoms: C_26  and  C_29
REMARK   10  A    between atoms: C_29  and  O_30
REMARK   11  A    between atoms: O_30  and  C_32
REMARK                            x       y       z     vdW  Elec       q    Type
REMARK                         _______ _______ _______ _____ _____    ______ ____
ROOT
ATOM      1  O   UNL     1      32.794 -23.467 -15.165  0.00  0.00    -0.354 OA
ATOM      2  N   UNL     1      32.161 -23.146 -16.360  0.00  0.00    -0.081 NA
ATOM      3  C   UNL     1      33.075 -23.373 -17.307  0.00  0.00    +0.105 C 
ATOM      4  C   UNL     1      34.063 -23.875 -15.425  0.00  0.00    +0.175 C 
ATOM      5  C   UNL     1      34.293 -23.833 -16.774  0.00  0.00    +0.058 C 
ENDROOT
BRANCH   4   7
ATOM      6  N   UNL     1      36.696 -25.339 -13.283  0.00  0.00    -0.266 N 
ATOM      7  C   UNL     1      34.849 -24.245 -14.271  0.00  0.00    +0.048 C 
ATOM      8  C   UNL     1      35.995 -25.019 -14.380  0.00  0.00    +0.156 C 
ATOM      9  C   UNL     1      34.449 -23.813 -13.011  0.00  0.00    +0.003 C 
ATOM     10  C   UNL     1      36.333 -24.937 -12.058  0.00  0.00    +0.064 C 
ATOM     11  C   UNL     1      35.196 -24.161 -11.889  0.00  0.00    +0.016 C 
BRANCH   8  12
ATOM     12  N   UNL     1      36.435 -25.477 -15.641  0.00  0.00    -0.303 NA
ATOM     13  H   UNL     1      36.813 -26.382 -15.731  0.00  0.00    +0.121 HD
ATOM     14  H   UNL     1      36.364 -24.892 -16.429  0.00  0.00    +0.121 HD
ENDBRANCH   8  12
BRANCH   6  15
ATOM     15  C   UNL     1      37.906 -26.156 -13.399  0.00  0.00    +0.251 C 
BRANCH  15  16
ATOM     16  O   UNL     1      39.024 -25.293 -13.552  0.00  0.00    -0.250 OA
BRANCH  16  17
ATOM     17  P   UNL     1      40.198 -25.688 -14.619  0.00  0.00    +0.504 P 
ATOM     18  O   UNL     1      40.902 -26.947 -14.162  0.00  0.00    -0.225 OA
ATOM     19  O   UNL     1      40.991 -24.440 -14.942  0.00  0.00    -0.116 OA
BRANCH  17  20
ATOM     20  O   UNL     1      39.272 -26.050 -15.915  0.00  0.00    -0.301 OA
ATOM     21  H   UNL     1      38.765 -25.266 -16.179  0.00  0.00    +0.222 HD
ENDBRANCH  17  20
ENDBRANCH  16  17
ENDBRANCH  15  16
ENDBRANCH   6  15
ENDBRANCH   4   7
BRANCH   3  22
ATOM     22  C   UNL     1      32.744 -23.134 -18.721  0.00  0.00    +0.075 C 
BRANCH  22  23
ATOM     23  C   UNL     1      33.621 -22.099 -19.413  0.00  0.00    -0.016 C 
ATOM     24  C   UNL     1      35.007 -22.148 -19.264  0.00  0.00    -0.004 C 
ATOM     25  C   UNL     1      33.039 -21.102 -20.196  0.00  0.00    -0.004 C 
ATOM     26  C   UNL     1      35.228 -20.203 -20.680  0.00  0.00    +0.021 C 
ATOM     27  C   UNL     1      35.811 -21.200 -19.896  0.00  0.00    -0.001 C 
ATOM     28  C   UNL     1      33.842 -20.154 -20.829  0.00  0.00    -0.001 C 
BRANCH  26  29
ATOM     29  C   UNL     1      36.088 -19.192 -21.358  0.00  0.00    +0.234 C 
BRANCH  29  30
ATOM     30  O   UNL     1      35.475 -17.911 -21.265  0.00  0.00    -0.455 OA
BRANCH  30  32
ATOM     31  N   UNL     1      34.873 -15.983 -22.406  0.00  0.00    -0.210 NA
ATOM     32  C   UNL     1      35.113 -17.313 -22.443  0.00  0.00    +0.225 C 
ATOM     33  C   UNL     1      35.016 -18.087 -23.588  0.00  0.00    +0.058 C 
ATOM     34  C   UNL     1      34.648 -17.457 -24.772  0.00  0.00    +0.006 C 
ATOM     35  C   UNL     1      34.519 -15.404 -23.576  0.00  0.00    +0.102 C 
ATOM     36  C   UNL     1      34.394 -16.089 -24.774  0.00  0.00    +0.021 C 
ENDBRANCH  30  32
ENDBRANCH  29  30
ENDBRANCH  26  29
ENDBRANCH  22  23
ENDBRANCH   3  22
TORSDOF 11
ENDMDL
MODEL 2
REMARK VINA RESULT:     -12.0      4.214      6.098
REMARK  Name = 44123754
REMARK  11 active torsions:
REMARK  status: ('A' for Active; 'I' for Inactive)
REMARK    1  A    between atoms: C_3  and  C_22
REMARK    2  A    between atoms: C_4  and  C_7
REMARK    3  A    between atoms: N_6  and  C_15
REMARK    4  A    between atoms: C_8  and  N_12
REMARK    5  A    between atoms: C_15  and  O_16
REMARK    6  A    between atoms: O_16  and  P_17
REMARK    7  A    between atoms: P_17  and  O_20
REMARK    8  A    between atoms: C_22  and  C_23
REMARK    9  A    between atoms: C_26  and  C_29
REMARK   10  A    between atoms: C_29  and  O_30
REMARK   11  A    between atoms: O_30  and  C_32
REMARK                            x       y       z     vdW  Elec       q    Type
REMARK                         _______ _______ _______ _____ _____    ______ ____
ROOT
ATOM      1  O   UNL     1      33.593 -23.480 -18.489  0.00  0.00    -0.354 OA
ATOM      2  N   UNL     1      34.448 -22.984 -19.466  0.00  0.00    -0.081 NA
ATOM      3  C   UNL     1      35.374 -22.292 -18.796  0.00  0.00    +0.105 C 
ATOM      4  C   UNL     1      34.026 -23.075 -17.267  0.00  0.00    +0.175 C 
ATOM      5  C   UNL     1      35.157 -22.315 -17.407  0.00  0.00    +0.058 C 
ENDROOT
BRANCH   4   7
ATOM      6  N   UNL     1      31.168 -23.705 -15.009  0.00  0.00    -0.266 N 
ATOM      7  C   UNL     1      33.231 -23.516 -16.144  0.00  0.00    +0.048 C 
ATOM      8  C   UNL     1      31.867 -23.277 -16.069  0.00  0.00    +0.156 C 
ATOM      9  C   UNL     1      33.849 -24.203 -15.104  0.00  0.00    +0.003 C 
ATOM     10  C   UNL     1      31.737 -24.368 -13.994  0.00  0.00    +0.064 C 
ATOM     11  C   UNL     1      33.098 -24.636 -14.015  0.00  0.00    +0.016 C 
BRANCH   8  12
ATOM     12  N   UNL     1      31.201 -22.583 -17.103  0.00  0.00    -0.303 NA
ATOM     13  H   UNL     1      30.219 -22.611 -17.161  0.00  0.00    +0.121 HD
ATOM     14  H   UNL     1      31.720 -22.072 -17.765  0.00  0.00    +0.121 HD
ENDBRANCH   8  12
BRANCH   6  15
ATOM     15  C   UNL     1      29.727 -23.452 -14.930  0.00  0.00    +0.251 C 
BRANCH  15  16
ATOM     16  O   UNL     1      29.084 -24.159 -15.982  0.00  0.00    -0.250 OA
BRANCH  16  17
ATOM     17  P   UNL     1      27.763 -23.509 -16.691  0.00  0.00    +0.504 P 
ATOM     18  O   UNL     1      26.779 -23.064 -15.631  0.00  0.00    -0.225 OA
ATOM     19  O   UNL     1      27.321 -24.425 -17.811  0.00  0.00    -0.116 OA
BRANCH  17  20
ATOM     20  O   UNL     1      28.443 -22.182 -17.359  0.00  0.00    -0.301 OA
ATOM     21  H   UNL     1      29.409 -22.247 -17.295  0.00  0.00    +0.222 HD
ENDBRANCH  17  20
ENDBRANCH  16  17
ENDBRANCH  15  16
ENDBRANCH   6  15
ENDBRANCH   4   7
BRANCH   3  22
ATOM     22  C   UNL     1      36.458 -21.618 -19.528  0.00  0.00    +0.075 C 
BRANCH  22  23
ATOM     23  C   UNL     1      35.993 -20.553 -20.513  0.00  0.00    -0.016 C 
ATOM     24  C   UNL     1      36.896 -19.606 -20.994  0.00  0.00    -0.004 C 
ATOM     25  C   UNL     1      34.663 -20.526 -20.934  0.00  0.00    -0.004 C 
ATOM     26  C   UNL     1      35.140 -18.604 -22.317  0.00  0.00    +0.021 C 
ATOM     27  C   UNL     1      36.470 -18.631 -21.896  0.00  0.00    -0.001 C 
ATOM     28  C   UNL     1      34.237 -19.551 -21.835  0.00  0.00    -0.001 C 
BRANCH  26  29
ATOM     29  C   UNL     1      34.686 -17.563 -23.283  0.00  0.00    +0.234 C 
BRANCH  29  30
ATOM     30  O   UNL     1      35.240 -16.305 -22.918  0.00  0.00    -0.455 OA
BRANCH  30  32
ATOM     31  N   UNL     1      33.839 -14.754 -23.927  0.00  0.00    -0.210 NA
ATOM     32  C   UNL     1      34.364 -15.259 -22.788  0.00  0.00    +0.225 C 
ATOM     33  C   UNL     1      34.068 -14.785 -21.520  0.00  0.00    +0.058 C 
ATOM     34  C   UNL     1      33.175 -13.723 -21.415  0.00  0.00    +0.006 C 
ATOM     35  C   UNL     1      32.975 -13.724 -23.785  0.00  0.00    +0.102 C 
ATOM     36  C   UNL     1      32.613 -13.178 -22.564  0.00  0.00    +0.021 C 
ENDBRANCH  30  32
ENDBRANCH  29  30
ENDBRANCH  26  29
ENDBRANCH  22  23
ENDBRANCH   3  22
TORSDOF 11
ENDMDL
MODEL 3
REMARK VINA RESULT:     -11.9      5.645     12.407
REMARK  Name = 44123754
REMARK  11 active torsions:
REMARK  status: ('A' for Active; 'I' for Inactive)
REMARK    1  A    between atoms: C_3  and  C_22
REMARK    2  A    between atoms: C_4  and  C_7
REMARK    3  A    between atoms: N_6  and  C_15
REMARK    4  A    between atoms: C_8  and  N_12
REMARK    5  A    between atoms: C_15  and  O_16
REMARK    6  A    between atoms: O_16  and  P_17
REMARK    7  A    between atoms: P_17  and  O_20
REMARK    8  A    between atoms: C_22  and  C_23
REMARK    9  A    between atoms: C_26  and  C_29
REMARK   10  A    between atoms: C_29  and  O_30
REMARK   11  A    between atoms: O_30  and  C_32
REMARK                            x       y       z     vdW  Elec       q    Type
REMARK                         _______ _______ _______ _____ _____    ______ ____
ROOT
ATOM      1  O   UNL     1      34.595 -15.699 -21.197  0.00  0.00    -0.354 OA
ATOM      2  N   UNL     1      35.083 -16.979 -20.959  0.00  0.00    -0.081 NA
ATOM      3  C   UNL     1      35.173 -17.545 -22.165  0.00  0.00    +0.105 C 
ATOM      4  C   UNL     1      34.407 -15.533 -22.532  0.00  0.00    +0.175 C 
ATOM      5  C   UNL     1      34.760 -16.679 -23.193  0.00  0.00    +0.058 C 
ENDROOT
BRANCH   4   7
ATOM      6  N   UNL     1      32.456 -12.395 -22.639  0.00  0.00    -0.266 N 
ATOM      7  C   UNL     1      33.899 -14.242 -22.936  0.00  0.00    +0.048 C 
ATOM      8  C   UNL     1      32.897 -13.592 -22.230  0.00  0.00    +0.156 C 
ATOM      9  C   UNL     1      34.429 -13.628 -24.066  0.00  0.00    +0.003 C 
ATOM     10  C   UNL     1      32.948 -11.782 -23.724  0.00  0.00    +0.064 C 
ATOM     11  C   UNL     1      33.951 -12.385 -24.469  0.00  0.00    +0.016 C 
BRANCH   8  12
ATOM     12  N   UNL     1      32.333 -14.181 -21.077  0.00  0.00    -0.303 NA
ATOM     13  H   UNL     1      31.404 -13.974 -20.823  0.00  0.00    +0.121 HD
ATOM     14  H   UNL     1      32.868 -14.797 -20.528  0.00  0.00    +0.121 HD
ENDBRANCH   8  12
BRANCH   6  15
ATOM     15  C   UNL     1      31.398 -11.709 -21.893  0.00  0.00    +0.251 C 
BRANCH  15  16
ATOM     16  O   UNL     1      31.921 -11.299 -20.637  0.00  0.00    -0.250 OA
BRANCH  16  17
ATOM     17  P   UNL     1      31.479  -9.851 -20.022  0.00  0.00    +0.504 P 
ATOM     18  O   UNL     1      30.227 -10.011 -19.186  0.00  0.00    -0.225 OA
ATOM     19  O   UNL     1      31.535  -8.822 -21.130  0.00  0.00    -0.116 OA
BRANCH  17  20
ATOM     20  O   UNL     1      32.742  -9.589 -19.021  0.00  0.00    -0.301 OA
ATOM     21  H   UNL     1      32.741 -10.255 -18.317  0.00  0.00    +0.222 HD
ENDBRANCH  17  20
ENDBRANCH  16  17
ENDBRANCH  15  16
ENDBRANCH   6  15
ENDBRANCH   4   7
BRANCH   3  22
ATOM     22  C   UNL     1      35.663 -18.927 -22.293  0.00  0.00    +0.075 C 
BRANCH  22  23
ATOM     23  C   UNL     1      35.046 -19.912 -21.310  0.00  0.00    -0.016 C 
ATOM     24  C   UNL     1      33.659 -20.006 -21.195  0.00  0.00    -0.004 C 
ATOM     25  C   UNL     1      35.867 -20.722 -20.525  0.00  0.00    -0.004 C 
ATOM     26  C   UNL     1      33.914 -21.718 -19.509  0.00  0.00    +0.021 C 
ATOM     27  C   UNL     1      33.093 -20.908 -20.295  0.00  0.00    -0.001 C 
ATOM     28  C   UNL     1      35.301 -21.624 -19.624  0.00  0.00    -0.001 C 
BRANCH  26  29
ATOM     29  C   UNL     1      33.309 -22.684 -18.549  0.00  0.00    +0.234 C 
BRANCH  29  30
ATOM     30  O   UNL     1      31.926 -22.391 -18.391  0.00  0.00    -0.455 OA
BRANCH  30  32
ATOM     31  N   UNL     1      29.998 -22.654 -17.127  0.00  0.00    -0.210 NA
ATOM     32  C   UNL     1      31.341 -22.787 -17.217  0.00  0.00    +0.225 C 
ATOM     33  C   UNL     1      32.140 -23.295 -16.206  0.00  0.00    +0.058 C 
ATOM     34  C   UNL     1      31.522 -23.691 -15.025  0.00  0.00    +0.006 C 
ATOM     35  C   UNL     1      29.433 -23.050 -15.964  0.00  0.00    +0.102 C 
ATOM     36  C   UNL     1      30.143 -23.570 -14.894  0.00  0.00    +0.021 C 
ENDBRANCH  30  32
ENDBRANCH  29  30
ENDBRANCH  26  29
ENDBRANCH  22  23
ENDBRANCH   3  22
TORSDOF 11
ENDMDL
MODEL 4
REMARK VINA RESULT:     -11.7      5.862     12.652
REMARK  Name = 44123754
REMARK  11 active torsions:
REMARK  status: ('A' for Active; 'I' for Inactive)
REMARK    1  A    between atoms: C_3  and  C_22
REMARK    2  A    between atoms: C_4  and  C_7
REMARK    3  A    between atoms: N_6  and  C_15
REMARK    4  A    between atoms: C_8  and  N_12
REMARK    5  A    between atoms: C_15  and  O_16
REMARK    6  A    between atoms: O_16  and  P_17
REMARK    7  A    between atoms: P_17  and  O_20
REMARK    8  A    between atoms: C_22  and  C_23
REMARK    9  A    between atoms: C_26  and  C_29
REMARK   10  A    between atoms: C_29  and  O_30
REMARK   11  A    between atoms: O_30  and  C_32
REMARK                            x       y       z     vdW  Elec       q    Type
REMARK                         _______ _______ _______ _____ _____    ______ ____
ROOT
ATOM      1  O   UNL     1      34.719 -16.258 -21.643  0.00  0.00    -0.354 OA
ATOM      2  N   UNL     1      35.249 -17.359 -20.981  0.00  0.00    -0.081 NA
ATOM      3  C   UNL     1      35.646 -18.188 -21.951  0.00  0.00    +0.105 C 
ATOM      4  C   UNL     1      34.811 -16.454 -22.983  0.00  0.00    +0.175 C 
ATOM      5  C   UNL     1      35.394 -17.668 -23.233  0.00  0.00    +0.058 C 
ENDROOT
BRANCH   4   7
ATOM      6  N   UNL     1      33.647 -13.135 -24.122  0.00  0.00    -0.266 N 
ATOM      7  C   UNL     1      34.296 -15.385 -23.808  0.00  0.00    +0.048 C 
ATOM      8  C   UNL     1      34.127 -14.097 -23.321  0.00  0.00    +0.156 C 
ATOM      9  C   UNL     1      33.959 -15.652 -25.131  0.00  0.00    +0.003 C 
ATOM     10  C   UNL     1      33.314 -13.364 -25.399  0.00  0.00    +0.064 C 
ATOM     11  C   UNL     1      33.462 -14.633 -25.939  0.00  0.00    +0.016 C 
BRANCH   8  12
ATOM     12  N   UNL     1      34.457 -13.785 -21.985  0.00  0.00    -0.303 NA
ATOM     13  H   UNL     1      33.753 -13.501 -21.357  0.00  0.00    +0.121 HD
ATOM     14  H   UNL     1      35.391 -13.851 -21.681  0.00  0.00    +0.121 HD
ENDBRANCH   8  12
BRANCH   6  15
ATOM     15  C   UNL     1      33.469 -11.775 -23.607  0.00  0.00    +0.251 C 
BRANCH  15  16
ATOM     16  O   UNL     1      33.481 -10.870 -24.702  0.00  0.00    -0.250 OA
BRANCH  16  17
ATOM     17  P   UNL     1      34.034  -9.349 -24.476  0.00  0.00    +0.504 P 
ATOM     18  O   UNL     1      33.462  -8.782 -23.194  0.00  0.00    -0.225 OA
ATOM     19  O   UNL     1      33.897  -8.591 -25.778  0.00  0.00    -0.116 OA
BRANCH  17  20
ATOM     20  O   UNL     1      35.618  -9.672 -24.241  0.00  0.00    -0.301 OA
ATOM     21  H   UNL     1      35.768 -10.627 -24.315  0.00  0.00    +0.222 HD
ENDBRANCH  17  20
ENDBRANCH  16  17
ENDBRANCH  15  16
ENDBRANCH   6  15
ENDBRANCH   4   7
BRANCH   3  22
ATOM     22  C   UNL     1      36.267 -19.477 -21.607  0.00  0.00    +0.075 C 
BRANCH  22  23
ATOM     23  C   UNL     1      35.395 -20.394 -20.759  0.00  0.00    -0.016 C 
ATOM     24  C   UNL     1      35.986 -21.276 -19.853  0.00  0.00    -0.004 C 
ATOM     25  C   UNL     1      34.006 -20.352 -20.886  0.00  0.00    -0.004 C 
ATOM     26  C   UNL     1      33.800 -22.073 -19.203  0.00  0.00    +0.021 C 
ATOM     27  C   UNL     1      35.189 -22.115 -19.076  0.00  0.00    -0.001 C 
ATOM     28  C   UNL     1      33.209 -21.191 -20.108  0.00  0.00    -0.001 C 
BRANCH  26  29
ATOM     29  C   UNL     1      32.947 -22.969 -18.370  0.00  0.00    +0.234 C 
BRANCH  29  30
ATOM     30  O   UNL     1      31.688 -22.347 -18.145  0.00  0.00    -0.455 OA
BRANCH  30  32
ATOM     31  N   UNL     1      29.619 -22.690 -17.151  0.00  0.00    -0.210 NA
ATOM     32  C   UNL     1      30.965 -22.789 -17.068  0.00  0.00    +0.225 C 
ATOM     33  C   UNL     1      31.639 -23.305 -15.973  0.00  0.00    +0.058 C 
ATOM     34  C   UNL     1      30.884 -23.748 -14.893  0.00  0.00    +0.006 C 
ATOM     35  C   UNL     1      28.918 -23.132 -16.082  0.00  0.00    +0.102 C 
ATOM     36  C   UNL     1      29.496 -23.664 -14.941  0.00  0.00    +0.021 C 
ENDBRANCH  30  32
ENDBRANCH  29  30
ENDBRANCH  26  29
ENDBRANCH  22  23
ENDBRANCH   3  22
TORSDOF 11
ENDMDL
MODEL 5
REMARK VINA RESULT:     -11.7      5.742     13.074
REMARK  Name = 44123754
REMARK  11 active torsions:
REMARK  status: ('A' for Active; 'I' for Inactive)
REMARK    1  A    between atoms: C_3  and  C_22
REMARK    2  A    between atoms: C_4  and  C_7
REMARK    3  A    between atoms: N_6  and  C_15
REMARK    4  A    between atoms: C_8  and  N_12
REMARK    5  A    between atoms: C_15  and  O_16
REMARK    6  A    between atoms: O_16  and  P_17
REMARK    7  A    between atoms: P_17  and  O_20
REMARK    8  A    between atoms: C_22  and  C_23
REMARK    9  A    between atoms: C_26  and  C_29
REMARK   10  A    between atoms: C_29  and  O_30
REMARK   11  A    between atoms: O_30  and  C_32
REMARK                            x       y       z     vdW  Elec       q    Type
REMARK                         _______ _______ _______ _____ _____    ______ ____
ROOT
ATOM      1  O   UNL     1      32.959 -14.541 -24.895  0.00  0.00    -0.354 OA
ATOM      2  N   UNL     1      33.567 -15.672 -25.427  0.00  0.00    -0.081 NA
ATOM      3  C   UNL     1      34.343 -16.141 -24.446  0.00  0.00    +0.105 C 
ATOM      4  C   UNL     1      33.383 -14.362 -23.618  0.00  0.00    +0.175 C 
ATOM      5  C   UNL     1      34.266 -15.354 -23.283  0.00  0.00    +0.058 C 
ENDROOT
BRANCH   4   7
ATOM      6  N   UNL     1      32.363 -10.906 -22.796  0.00  0.00    -0.266 N 
ATOM      7  C   UNL     1      32.833 -13.218 -22.930  0.00  0.00    +0.048 C 
ATOM      8  C   UNL     1      32.887 -11.940 -23.468  0.00  0.00    +0.156 C 
ATOM      9  C   UNL     1      32.228 -13.397 -21.690  0.00  0.00    +0.003 C 
ATOM     10  C   UNL     1      31.776 -11.051 -21.601  0.00  0.00    +0.064 C 
ATOM     11  C   UNL     1      31.692 -12.305 -21.014  0.00  0.00    +0.016 C 
BRANCH   8  12
ATOM     12  N   UNL     1      33.492 -11.715 -24.724  0.00  0.00    -0.303 NA
ATOM     13  H   UNL     1      33.139 -12.161 -25.527  0.00  0.00    +0.121 HD
ATOM     14  H   UNL     1      34.267 -11.112 -24.795  0.00  0.00    +0.121 HD
ENDBRANCH   8  12
BRANCH   6  15
ATOM     15  C   UNL     1      32.421  -9.557 -23.365  0.00  0.00    +0.251 C 
BRANCH  15  16
ATOM     16  O   UNL     1      33.710  -9.014 -23.115  0.00  0.00    -0.250 OA
BRANCH  16  17
ATOM     17  P   UNL     1      34.615  -8.492 -24.372  0.00  0.00    +0.504 P 
ATOM     18  O   UNL     1      35.258  -7.167 -24.025  0.00  0.00    -0.225 OA
ATOM     19  O   UNL     1      33.804  -8.642 -25.641  0.00  0.00    -0.116 OA
BRANCH  17  20
ATOM     20  O   UNL     1      35.769  -9.647 -24.369  0.00  0.00    -0.301 OA
ATOM     21  H   UNL     1      35.395 -10.478 -24.037  0.00  0.00    +0.222 HD
ENDBRANCH  17  20
ENDBRANCH  16  17
ENDBRANCH  15  16
ENDBRANCH   6  15
ENDBRANCH   4   7
BRANCH   3  22
ATOM     22  C   UNL     1      35.149 -17.353 -24.663  0.00  0.00    +0.075 C 
BRANCH  22  23
ATOM     23  C   UNL     1      35.287 -18.250 -23.439  0.00  0.00    -0.016 C 
ATOM     24  C   UNL     1      36.483 -18.273 -22.723  0.00  0.00    -0.004 C 
ATOM     25  C   UNL     1      34.216 -19.048 -23.035  0.00  0.00    -0.004 C 
ATOM     26  C   UNL     1      35.539 -19.892 -21.198  0.00  0.00    +0.021 C 
ATOM     27  C   UNL     1      36.610 -19.094 -21.603  0.00  0.00    -0.001 C 
ATOM     28  C   UNL     1      34.343 -19.869 -21.914  0.00  0.00    -0.001 C 
BRANCH  26  29
ATOM     29  C   UNL     1      35.674 -20.767 -19.999  0.00  0.00    +0.234 C 
BRANCH  29  30
ATOM     30  O   UNL     1      34.645 -21.750 -20.013  0.00  0.00    -0.455 OA
BRANCH  30  32
ATOM     31  N   UNL     1      35.319 -22.450 -17.906  0.00  0.00    -0.210 NA
ATOM     32  C   UNL     1      34.323 -22.323 -18.811  0.00  0.00    +0.225 C 
ATOM     33  C   UNL     1      33.017 -22.730 -18.590  0.00  0.00    +0.058 C 
ATOM     34  C   UNL     1      32.714 -23.308 -17.362  0.00  0.00    +0.006 C 
ATOM     35  C   UNL     1      34.987 -23.015 -16.723  0.00  0.00    +0.102 C 
ATOM     36  C   UNL     1      33.712 -23.456 -16.405  0.00  0.00    +0.021 C 
ENDBRANCH  30  32
ENDBRANCH  29  30
ENDBRANCH  26  29
ENDBRANCH  22  23
ENDBRANCH   3  22
TORSDOF 11
ENDMDL
MODEL 6
REMARK VINA RESULT:     -11.7      5.735     12.225
REMARK  Name = 44123754
REMARK  11 active torsions:
REMARK  status: ('A' for Active; 'I' for Inactive)
REMARK    1  A    between atoms: C_3  and  C_22
REMARK    2  A    between atoms: C_4  and  C_7
REMARK    3  A    between atoms: N_6  and  C_15
REMARK    4  A    between atoms: C_8  and  N_12
REMARK    5  A    between atoms: C_15  and  O_16
REMARK    6  A    between atoms: O_16  and  P_17
REMARK    7  A    between atoms: P_17  and  O_20
REMARK    8  A    between atoms: C_22  and  C_23
REMARK    9  A    between atoms: C_26  and  C_29
REMARK   10  A    between atoms: C_29  and  O_30
REMARK   11  A    between atoms: O_30  and  C_32
REMARK                            x       y       z     vdW  Elec       q    Type
REMARK                         _______ _______ _______ _____ _____    ______ ____
ROOT
ATOM      1  O   UNL     1      34.817 -16.391 -21.599  0.00  0.00    -0.354 OA
ATOM      2  N   UNL     1      35.324 -17.544 -21.011  0.00  0.00    -0.081 NA
ATOM      3  C   UNL     1      35.529 -18.388 -22.026  0.00  0.00    +0.105 C 
ATOM      4  C   UNL     1      34.731 -16.574 -22.942  0.00  0.00    +0.175 C 
ATOM      5  C   UNL     1      35.172 -17.829 -23.265  0.00  0.00    +0.058 C 
ENDROOT
BRANCH   4   7
ATOM      6  N   UNL     1      33.375 -13.248 -23.816  0.00  0.00    -0.266 N 
ATOM      7  C   UNL     1      34.217 -15.452 -23.693  0.00  0.00    +0.048 C 
ATOM      8  C   UNL     1      33.846 -14.264 -23.081  0.00  0.00    +0.156 C 
ATOM      9  C   UNL     1      34.089 -15.563 -25.074  0.00  0.00    +0.003 C 
ATOM     10  C   UNL     1      33.240 -13.328 -25.147  0.00  0.00    +0.064 C 
ATOM     11  C   UNL     1      33.595 -14.491 -25.813  0.00  0.00    +0.016 C 
BRANCH   8  12
ATOM     12  N   UNL     1      33.961 -14.111 -21.682  0.00  0.00    -0.303 NA
ATOM     13  H   UNL     1      34.017 -14.906 -21.102  0.00  0.00    +0.121 HD
ATOM     14  H   UNL     1      33.985 -13.210 -21.286  0.00  0.00    +0.121 HD
ENDBRANCH   8  12
BRANCH   6  15
ATOM     15  C   UNL     1      32.983 -11.994 -23.168  0.00  0.00    +0.251 C 
BRANCH  15  16
ATOM     16  O   UNL     1      31.834 -12.235 -22.368  0.00  0.00    -0.250 OA
BRANCH  16  17
ATOM     17  P   UNL     1      31.390 -11.127 -21.253  0.00  0.00    +0.504 P 
ATOM     18  O   UNL     1      31.777  -9.742 -21.725  0.00  0.00    -0.225 OA
ATOM     19  O   UNL     1      31.820 -11.620 -19.889  0.00  0.00    -0.116 OA
BRANCH  17  20
ATOM     20  O   UNL     1      29.767 -11.277 -21.358  0.00  0.00    -0.301 OA
ATOM     21  H   UNL     1      29.343 -10.602 -20.805  0.00  0.00    +0.222 HD
ENDBRANCH  17  20
ENDBRANCH  16  17
ENDBRANCH  15  16
ENDBRANCH   6  15
ENDBRANCH   4   7
BRANCH   3  22
ATOM     22  C   UNL     1      36.071 -19.732 -21.766  0.00  0.00    +0.075 C 
BRANCH  22  23
ATOM     23  C   UNL     1      35.243 -20.575 -20.804  0.00  0.00    -0.016 C 
ATOM     24  C   UNL     1      35.877 -21.421 -19.895  0.00  0.00    -0.004 C 
ATOM     25  C   UNL     1      33.850 -20.499 -20.831  0.00  0.00    -0.004 C 
ATOM     26  C   UNL     1      33.727 -22.117 -19.042  0.00  0.00    +0.021 C 
ATOM     27  C   UNL     1      35.120 -22.193 -19.014  0.00  0.00    -0.001 C 
ATOM     28  C   UNL     1      33.092 -21.271 -19.951  0.00  0.00    -0.001 C 
BRANCH  26  29
ATOM     29  C   UNL     1      32.917 -22.940 -18.099  0.00  0.00    +0.234 C 
BRANCH  29  30
ATOM     30  O   UNL     1      31.602 -22.406 -18.015  0.00  0.00    -0.455 OA
BRANCH  30  32
ATOM     31  N   UNL     1      29.455 -22.718 -17.191  0.00  0.00    -0.210 NA
ATOM     32  C   UNL     1      30.783 -22.930 -17.049  0.00  0.00    +0.225 C 
ATOM     33  C   UNL     1      31.348 -23.638 -16.001  0.00  0.00    +0.058 C 
ATOM     34  C   UNL     1      30.496 -24.161 -15.034  0.00  0.00    +0.006 C 
ATOM     35  C   UNL     1      28.658 -23.242 -16.233  0.00  0.00    +0.102 C 
ATOM     36  C   UNL     1      29.124 -23.964 -15.146  0.00  0.00    +0.021 C 
ENDBRANCH  30  32
ENDBRANCH  29  30
ENDBRANCH  26  29
ENDBRANCH  22  23
ENDBRANCH   3  22
TORSDOF 11
ENDMDL
MODEL 7
REMARK VINA RESULT:     -11.4      5.344     12.799
REMARK  Name = 44123754
REMARK  11 active torsions:
REMARK  status: ('A' for Active; 'I' for Inactive)
REMARK    1  A    between atoms: C_3  and  C_22
REMARK    2  A    between atoms: C_4  and  C_7
REMARK    3  A    between atoms: N_6  and  C_15
REMARK    4  A    between atoms: C_8  and  N_12
REMARK    5  A    between atoms: C_15  and  O_16
REMARK    6  A    between atoms: O_16  and  P_17
REMARK    7  A    between atoms: P_17  and  O_20
REMARK    8  A    between atoms: C_22  and  C_23
REMARK    9  A    between atoms: C_26  and  C_29
REMARK   10  A    between atoms: C_29  and  O_30
REMARK   11  A    between atoms: O_30  and  C_32
REMARK                            x       y       z     vdW  Elec       q    Type
REMARK                         _______ _______ _______ _____ _____    ______ ____
ROOT
ATOM      1  O   UNL     1      34.133 -15.883 -23.818  0.00  0.00    -0.354 OA
ATOM      2  N   UNL     1      34.854 -17.071 -23.842  0.00  0.00    -0.081 NA
ATOM      3  C   UNL     1      35.290 -17.236 -22.591  0.00  0.00    +0.105 C 
ATOM      4  C   UNL     1      34.156 -15.370 -22.561  0.00  0.00    +0.175 C 
ATOM      5  C   UNL     1      34.880 -16.194 -21.741  0.00  0.00    +0.058 C 
ENDROOT
BRANCH   4   7
ATOM      6  N   UNL     1      32.888 -11.935 -23.064  0.00  0.00    -0.266 N 
ATOM      7  C   UNL     1      33.443 -14.128 -22.380  0.00  0.00    +0.048 C 
ATOM      8  C   UNL     1      33.568 -13.071 -23.270  0.00  0.00    +0.156 C 
ATOM      9  C   UNL     1      32.603 -13.981 -21.280  0.00  0.00    +0.003 C 
ATOM     10  C   UNL     1      32.073 -11.768 -22.014  0.00  0.00    +0.064 C 
ATOM     11  C   UNL     1      31.909 -12.790 -21.091  0.00  0.00    +0.016 C 
BRANCH   8  12
ATOM     12  N   UNL     1      34.410 -13.179 -24.399  0.00  0.00    -0.303 NA
ATOM     13  H   UNL     1      34.066 -12.951 -25.293  0.00  0.00    +0.121 HD
ATOM     14  H   UNL     1      35.340 -13.482 -24.291  0.00  0.00    +0.121 HD
ENDBRANCH   8  12
BRANCH   6  15
ATOM     15  C   UNL     1      33.020 -10.820 -24.005  0.00  0.00    +0.251 C 
BRANCH  15  16
ATOM     16  O   UNL     1      34.380 -10.410 -24.033  0.00  0.00    -0.250 OA
BRANCH  16  17
ATOM     17  P   UNL     1      34.847  -9.263 -25.100  0.00  0.00    +0.504 P 
ATOM     18  O   UNL     1      33.628  -8.598 -25.703  0.00  0.00    -0.225 OA
ATOM     19  O   UNL     1      35.921  -9.847 -25.992  0.00  0.00    -0.116 OA
BRANCH  17  20
ATOM     20  O   UNL     1      35.557  -8.212 -24.071  0.00  0.00    -0.301 OA
ATOM     21  H   UNL     1      35.025  -7.403 -24.017  0.00  0.00    +0.222 HD
ENDBRANCH  17  20
ENDBRANCH  16  17
ENDBRANCH  15  16
ENDBRANCH   6  15
ENDBRANCH   4   7
BRANCH   3  22
ATOM     22  C   UNL     1      36.104 -18.413 -22.245  0.00  0.00    +0.075 C 
BRANCH  22  23
ATOM     23  C   UNL     1      35.376 -19.468 -21.421  0.00  0.00    -0.016 C 
ATOM     24  C   UNL     1      33.985 -19.554 -21.472  0.00  0.00    -0.004 C 
ATOM     25  C   UNL     1      36.101 -20.347 -20.617  0.00  0.00    -0.004 C 
ATOM     26  C   UNL     1      34.044 -21.399 -19.913  0.00  0.00    +0.021 C 
ATOM     27  C   UNL     1      33.319 -20.519 -20.718  0.00  0.00    -0.001 C 
ATOM     28  C   UNL     1      35.435 -21.312 -19.862  0.00  0.00    -0.001 C 
BRANCH  26  29
ATOM     29  C   UNL     1      33.331 -22.433 -19.109  0.00  0.00    +0.234 C 
BRANCH  29  30
ATOM     30  O   UNL     1      34.245 -23.042 -18.205  0.00  0.00    -0.455 OA
BRANCH  30  32
ATOM     31  N   UNL     1      34.606 -24.040 -16.142  0.00  0.00    -0.210 NA
ATOM     32  C   UNL     1      33.737 -23.471 -17.008  0.00  0.00    +0.225 C 
ATOM     33  C   UNL     1      32.386 -23.301 -16.752  0.00  0.00    +0.058 C 
ATOM     34  C   UNL     1      31.894 -23.743 -15.528  0.00  0.00    +0.006 C 
ATOM     35  C   UNL     1      34.092 -24.456 -14.962  0.00  0.00    +0.102 C 
ATOM     36  C   UNL     1      32.757 -24.332 -14.611  0.00  0.00    +0.021 C 
ENDBRANCH  30  32
ENDBRANCH  29  30
ENDBRANCH  26  29
ENDBRANCH  22  23
ENDBRANCH   3  22
TORSDOF 11
ENDMDL
MODEL 8
REMARK VINA RESULT:     -11.4      3.559      6.574
REMARK  Name = 44123754
REMARK  11 active torsions:
REMARK  status: ('A' for Active; 'I' for Inactive)
REMARK    1  A    between atoms: C_3  and  C_22
REMARK    2  A    between atoms: C_4  and  C_7
REMARK    3  A    between atoms: N_6  and  C_15
REMARK    4  A    between atoms: C_8  and  N_12
REMARK    5  A    between atoms: C_15  and  O_16
REMARK    6  A    between atoms: O_16  and  P_17
REMARK    7  A    between atoms: P_17  and  O_20
REMARK    8  A    between atoms: C_22  and  C_23
REMARK    9  A    between atoms: C_26  and  C_29
REMARK   10  A    between atoms: C_29  and  O_30
REMARK   11  A    between atoms: O_30  and  C_32
REMARK                            x       y       z     vdW  Elec       q    Type
REMARK                         _______ _______ _______ _____ _____    ______ ____
ROOT
ATOM      1  O   UNL     1      36.217 -19.590 -20.657  0.00  0.00    -0.354 OA
ATOM      2  N   UNL     1      36.444 -18.746 -21.738  0.00  0.00    -0.081 NA
ATOM      3  C   UNL     1      35.405 -18.944 -22.554  0.00  0.00    +0.105 C 
ATOM      4  C   UNL     1      35.057 -20.267 -20.852  0.00  0.00    +0.175 C 
ATOM      5  C   UNL     1      34.500 -19.893 -22.046  0.00  0.00    +0.058 C 
ENDROOT
BRANCH   4   7
ATOM      6  N   UNL     1      35.178 -22.394 -17.831  0.00  0.00    -0.266 N 
ATOM      7  C   UNL     1      34.687 -21.189 -19.804  0.00  0.00    +0.048 C 
ATOM      8  C   UNL     1      35.563 -21.535 -18.785  0.00  0.00    +0.156 C 
ATOM      9  C   UNL     1      33.414 -21.750 -19.811  0.00  0.00    +0.003 C 
ATOM     10  C   UNL     1      33.959 -22.948 -17.815  0.00  0.00    +0.064 C 
ATOM     11  C   UNL     1      33.041 -22.640 -18.808  0.00  0.00    +0.016 C 
BRANCH   8  12
ATOM     12  N   UNL     1      36.864 -20.988 -18.740  0.00  0.00    -0.303 NA
ATOM     13  H   UNL     1      37.472 -21.223 -18.002  0.00  0.00    +0.121 HD
ATOM     14  H   UNL     1      37.162 -20.372 -19.447  0.00  0.00    +0.121 HD
ENDBRANCH   8  12
BRANCH   6  15
ATOM     15  C   UNL     1      36.104 -22.758 -16.756  0.00  0.00    +0.251 C 
BRANCH  15  16
ATOM     16  O   UNL     1      35.637 -23.949 -16.138  0.00  0.00    -0.250 OA
BRANCH  16  17
ATOM     17  P   UNL     1      36.577 -24.696 -15.029  0.00  0.00    +0.504 P 
ATOM     18  O   UNL     1      35.772 -24.971 -13.778  0.00  0.00    -0.225 OA
ATOM     19  O   UNL     1      37.896 -23.961 -14.946  0.00  0.00    -0.116 OA
BRANCH  17  20
ATOM     20  O   UNL     1      36.832 -26.111 -15.805  0.00  0.00    -0.301 OA
ATOM     21  H   UNL     1      37.431 -26.664 -15.279  0.00  0.00    +0.222 HD
ENDBRANCH  17  20
ENDBRANCH  16  17
ENDBRANCH  15  16
ENDBRANCH   6  15
ENDBRANCH   4   7
BRANCH   3  22
ATOM     22  C   UNL     1      35.315 -18.201 -23.822  0.00  0.00    +0.075 C 
BRANCH  22  23
ATOM     23  C   UNL     1      34.714 -16.807 -23.698  0.00  0.00    -0.016 C 
ATOM     24  C   UNL     1      34.810 -16.110 -22.493  0.00  0.00    -0.004 C 
ATOM     25  C   UNL     1      34.067 -16.226 -24.790  0.00  0.00    -0.004 C 
ATOM     26  C   UNL     1      33.614 -14.253 -23.471  0.00  0.00    +0.021 C 
ATOM     27  C   UNL     1      34.260 -14.834 -22.379  0.00  0.00    -0.001 C 
ATOM     28  C   UNL     1      33.517 -14.950 -24.676  0.00  0.00    -0.001 C 
BRANCH  26  29
ATOM     29  C   UNL     1      33.028 -12.888 -23.350  0.00  0.00    +0.234 C 
BRANCH  29  30
ATOM     30  O   UNL     1      32.001 -12.899 -22.366  0.00  0.00    -0.455 OA
BRANCH  30  32
ATOM     31  N   UNL     1      31.804 -10.587 -22.387  0.00  0.00    -0.210 NA
ATOM     32  C   UNL     1      31.797 -11.735 -21.673  0.00  0.00    +0.225 C 
ATOM     33  C   UNL     1      31.595 -11.796 -20.304  0.00  0.00    +0.058 C 
ATOM     34  C   UNL     1      31.388 -10.601 -19.623  0.00  0.00    +0.006 C 
ATOM     35  C   UNL     1      31.599  -9.446 -21.692  0.00  0.00    +0.102 C 
ATOM     36  C   UNL     1      31.388  -9.399 -20.323  0.00  0.00    +0.021 C 
ENDBRANCH  30  32
ENDBRANCH  29  30
ENDBRANCH  26  29
ENDBRANCH  22  23
ENDBRANCH   3  22
TORSDOF 11
ENDMDL
MODEL 9
REMARK VINA RESULT:     -11.3      2.451      3.864
REMARK  Name = 44123754
REMARK  11 active torsions:
REMARK  status: ('A' for Active; 'I' for Inactive)
REMARK    1  A    between atoms: C_3  and  C_22
REMARK    2  A    between atoms: C_4  and  C_7
REMARK    3  A    between atoms: N_6  and  C_15
REMARK    4  A    between atoms: C_8  and  N_12
REMARK    5  A    between atoms: C_15  and  O_16
REMARK    6  A    between atoms: O_16  and  P_17
REMARK    7  A    between atoms: P_17  and  O_20
REMARK    8  A    between atoms: C_22  and  C_23
REMARK    9  A    between atoms: C_26  and  C_29
REMARK   10  A    between atoms: C_29  and  O_30
REMARK   11  A    between atoms: O_30  and  C_32
REMARK                            x       y       z     vdW  Elec       q    Type
REMARK                         _______ _______ _______ _____ _____    ______ ____
ROOT
ATOM      1  O   UNL     1      34.076 -23.333 -18.628  0.00  0.00    -0.354 OA
ATOM      2  N   UNL     1      34.865 -22.775 -19.627  0.00  0.00    -0.081 NA
ATOM      3  C   UNL     1      35.737 -21.995 -18.982  0.00  0.00    +0.105 C 
ATOM      4  C   UNL     1      34.492 -22.875 -17.419  0.00  0.00    +0.175 C 
ATOM      5  C   UNL     1      35.547 -22.019 -17.589  0.00  0.00    +0.058 C 
ENDROOT
BRANCH   4   7
ATOM      6  N   UNL     1      33.684 -24.276 -14.095  0.00  0.00    -0.266 N 
ATOM      7  C   UNL     1      33.760 -23.371 -16.277  0.00  0.00    +0.048 C 
ATOM      8  C   UNL     1      34.402 -23.824 -15.133  0.00  0.00    +0.156 C 
ATOM      9  C   UNL     1      32.370 -23.399 -16.321  0.00  0.00    +0.003 C 
ATOM     10  C   UNL     1      32.345 -24.313 -14.111  0.00  0.00    +0.064 C 
ATOM     11  C   UNL     1      31.650 -23.874 -15.228  0.00  0.00    +0.016 C 
BRANCH   8  12
ATOM     12  N   UNL     1      35.811 -23.813 -15.048  0.00  0.00    -0.303 NA
ATOM     13  H   UNL     1      36.250 -23.663 -14.179  0.00  0.00    +0.121 HD
ATOM     14  H   UNL     1      36.353 -23.955 -15.856  0.00  0.00    +0.121 HD
ENDBRANCH   8  12
BRANCH   6  15
ATOM     15  C   UNL     1      34.362 -24.753 -12.887  0.00  0.00    +0.251 C 
BRANCH  15  16
ATOM     16  O   UNL     1      34.998 -23.649 -12.258  0.00  0.00    -0.250 OA
BRANCH  16  17
ATOM     17  P   UNL     1      36.394 -23.890 -11.444  0.00  0.00    +0.504 P 
ATOM     18  O   UNL     1      37.322 -24.759 -12.265  0.00  0.00    -0.225 OA
ATOM     19  O   UNL     1      36.059 -24.261 -10.016  0.00  0.00    -0.116 OA
BRANCH  17  20
ATOM     20  O   UNL     1      36.973 -22.362 -11.448  0.00  0.00    -0.301 OA
ATOM     21  H   UNL     1      36.527 -21.849 -12.140  0.00  0.00    +0.222 HD
ENDBRANCH  17  20
ENDBRANCH  16  17
ENDBRANCH  15  16
ENDBRANCH   6  15
ENDBRANCH   4   7
BRANCH   3  22
ATOM     22  C   UNL     1      36.744 -21.235 -19.741  0.00  0.00    +0.075 C 
BRANCH  22  23
ATOM     23  C   UNL     1      36.167 -20.226 -20.726  0.00  0.00    -0.016 C 
ATOM     24  C   UNL     1      34.806 -20.248 -21.030  0.00  0.00    -0.004 C 
ATOM     25  C   UNL     1      37.000 -19.280 -21.324  0.00  0.00    -0.004 C 
ATOM     26  C   UNL     1      35.110 -18.378 -22.529  0.00  0.00    +0.021 C 
ATOM     27  C   UNL     1      34.277 -19.324 -21.931  0.00  0.00    -0.001 C 
ATOM     28  C   UNL     1      36.471 -18.356 -22.225  0.00  0.00    -0.001 C 
BRANCH  26  29
ATOM     29  C   UNL     1      34.545 -17.389 -23.490  0.00  0.00    +0.234 C 
BRANCH  29  30
ATOM     30  O   UNL     1      34.638 -16.083 -22.935  0.00  0.00    -0.455 OA
BRANCH  30  32
ATOM     31  N   UNL     1      33.809 -15.354 -24.976  0.00  0.00    -0.210 NA
ATOM     32  C   UNL     1      34.249 -15.041 -23.737  0.00  0.00    +0.225 C 
ATOM     33  C   UNL     1      34.325 -13.749 -23.243  0.00  0.00    +0.058 C 
ATOM     34  C   UNL     1      33.923 -12.710 -24.075  0.00  0.00    +0.006 C 
ATOM     35  C   UNL     1      33.425 -14.318 -25.756  0.00  0.00    +0.102 C 
ATOM     36  C   UNL     1      33.462 -12.992 -25.357  0.00  0.00    +0.021 C 
ENDBRANCH  30  32
ENDBRANCH  29  30
ENDBRANCH  26  29
ENDBRANCH  22  23
ENDBRANCH   3  22
TORSDOF 11
ENDMDL
