MODEL 1
REMARK VINA RESULT:     -10.8      0.000      0.000
REMARK  Name = 25118925
REMARK  3 active torsions:
REMARK  status: ('A' for Active; 'I' for Inactive)
REMARK    1  A    between atoms: C_3  and  C_12
REMARK    2  A    between atoms: C_5  and  C_24
REMARK    3  A    between atoms: C_27  and  C_33
REMARK                            x       y       z     vdW  Elec       q    Type
REMARK                         _______ _______ _______ _____ _____    ______ ____
ROOT
ATOM      1  N   UNL     1      31.571 -11.185 -21.540  0.00  0.00    -0.279 N 
ATOM      2  N   UNL     1      32.863 -11.198 -23.346  0.00  0.00    -0.394 NA
ATOM      3  C   UNL     1      32.193 -10.442 -22.504  0.00  0.00    +0.160 C 
ATOM      4  C   UNL     1      31.862 -12.498 -21.783  0.00  0.00    +0.152 C 
ATOM      5  C   UNL     1      32.661 -12.481 -22.902  0.00  0.00    +0.130 C 
ATOM      6  C   UNL     1      30.752 -10.691 -20.459  0.00  0.00    +0.115 C 
ENDROOT
BRANCH   3  12
ATOM      7  N   UNL     1      32.141  -6.329 -23.823  0.00  0.00    -0.296 N 
ATOM      8  N   UNL     1      31.137  -4.178 -24.061  0.00  0.00    -0.233 NA
ATOM      9  N   UNL     1      34.084  -3.211 -26.624  0.00  0.00    -0.223 N 
ATOM     10  N   UNL     1      32.072  -2.452 -25.510  0.00  0.00    -0.232 NA
ATOM     11  N   UNL     1      34.867  -4.303 -26.703  0.00  0.00    -0.183 NA
ATOM     12  C   UNL     1      32.091  -8.930 -22.552  0.00  0.00    +0.070 C 
ATOM     13  C   UNL     1      30.948  -8.456 -23.463  0.00  0.00    +0.030 C 
ATOM     14  C   UNL     1      33.407  -8.274 -22.996  0.00  0.00    +0.030 C 
ATOM     15  C   UNL     1      30.846  -6.931 -23.475  0.00  0.00    +0.092 C 
ATOM     16  C   UNL     1      33.292  -6.749 -23.017  0.00  0.00    +0.092 C 
ATOM     17  C   UNL     1      32.124  -5.048 -24.386  0.00  0.00    +0.118 C 
ATOM     18  C   UNL     1      33.113  -4.647 -25.279  0.00  0.00    +0.152 C 
ATOM     19  C   UNL     1      33.019  -3.363 -25.787  0.00  0.00    +0.133 C 
ATOM     20  C   UNL     1      34.271  -5.173 -25.881  0.00  0.00    +0.105 C 
ATOM     21  C   UNL     1      31.173  -2.951 -24.635  0.00  0.00    +0.252 C 
ATOM     22  H   UNL     1      34.262  -2.382 -27.124  0.00  0.00    +0.176 HD
ENDBRANCH   3  12
BRANCH   5  24
ATOM     23  F   UNL     1      34.803 -16.986 -25.356  0.00  0.00    -0.204 F 
ATOM     24  C   UNL     1      33.214 -13.640 -23.530  0.00  0.00    +0.027 C 
ATOM     25  C   UNL     1      33.810 -14.636 -22.757  0.00  0.00    +0.008 C 
ATOM     26  C   UNL     1      33.154 -13.776 -24.917  0.00  0.00    +0.005 C 
ATOM     27  C   UNL     1      34.348 -15.767 -23.370  0.00  0.00    +0.099 C 
ATOM     28  C   UNL     1      33.692 -14.906 -25.531  0.00  0.00    +0.030 C 
ATOM     29  C   UNL     1      34.289 -15.902 -24.757  0.00  0.00    +0.144 C 
BRANCH  27  33
ATOM     30  F   UNL     1      34.379 -18.049 -22.654  0.00  0.00    -0.166 F 
ATOM     31  F   UNL     1      36.296 -17.056 -22.857  0.00  0.00    -0.166 F 
ATOM     32  F   UNL     1      34.974 -16.537 -21.210  0.00  0.00    -0.166 F 
ATOM     33  C   UNL     1      34.986 -16.830 -22.542  0.00  0.00    +0.421 C 
ENDBRANCH  27  33
ENDBRANCH   5  24
TORSDOF 3
ENDMDL
MODEL 2
REMARK VINA RESULT:     -10.3      7.626     13.490
REMARK  Name = 25118925
REMARK  3 active torsions:
REMARK  status: ('A' for Active; 'I' for Inactive)
REMARK    1  A    between atoms: C_3  and  C_12
REMARK    2  A    between atoms: C_5  and  C_24
REMARK    3  A    between atoms: C_27  and  C_33
REMARK                            x       y       z     vdW  Elec       q    Type
REMARK                         _______ _______ _______ _____ _____    ______ ____
ROOT
ATOM      1  N   UNL     1      34.672 -19.193 -24.138  0.00  0.00    -0.279 N 
ATOM      2  N   UNL     1      34.295 -17.845 -22.413  0.00  0.00    -0.394 NA
ATOM      3  C   UNL     1      34.475 -19.092 -22.789  0.00  0.00    +0.160 C 
ATOM      4  C   UNL     1      34.616 -17.929 -24.656  0.00  0.00    +0.152 C 
ATOM      5  C   UNL     1      34.382 -17.115 -23.573  0.00  0.00    +0.130 C 
ATOM      6  C   UNL     1      34.900 -20.402 -24.893  0.00  0.00    +0.115 C 
ENDROOT
BRANCH   3  12
ATOM      7  N   UNL     1      34.741 -21.704 -19.359  0.00  0.00    -0.296 N 
ATOM      8  N   UNL     1      33.889 -23.358 -17.865  0.00  0.00    -0.233 NA
ATOM      9  N   UNL     1      36.994 -22.593 -15.425  0.00  0.00    -0.223 N 
ATOM     10  N   UNL     1      34.991 -23.912 -15.761  0.00  0.00    -0.232 NA
ATOM     11  N   UNL     1      37.708 -21.632 -16.039  0.00  0.00    -0.183 NA
ATOM     12  C   UNL     1      34.472 -20.306 -21.879  0.00  0.00    +0.070 C 
ATOM     13  C   UNL     1      33.401 -20.205 -20.783  0.00  0.00    +0.030 C 
ATOM     14  C   UNL     1      35.844 -20.549 -21.235  0.00  0.00    +0.030 C 
ATOM     15  C   UNL     1      33.397 -21.449 -19.896  0.00  0.00    +0.092 C 
ATOM     16  C   UNL     1      35.829 -21.789 -20.339  0.00  0.00    +0.092 C 
ATOM     17  C   UNL     1      34.830 -22.431 -18.166  0.00  0.00    +0.118 C 
ATOM     18  C   UNL     1      35.878 -22.218 -17.276  0.00  0.00    +0.152 C 
ATOM     19  C   UNL     1      35.888 -22.980 -16.121  0.00  0.00    +0.133 C 
ATOM     20  C   UNL     1      37.024 -21.408 -17.166  0.00  0.00    +0.105 C 
ATOM     21  C   UNL     1      34.026 -24.031 -16.698  0.00  0.00    +0.252 C 
ATOM     22  H   UNL     1      37.246 -22.980 -14.555  0.00  0.00    +0.176 HD
ENDBRANCH   3  12
BRANCH   5  24
ATOM     23  F   UNL     1      33.847 -11.586 -23.795  0.00  0.00    -0.204 F 
ATOM     24  C   UNL     1      34.245 -15.693 -23.633  0.00  0.00    +0.027 C 
ATOM     25  C   UNL     1      33.925 -15.073 -24.840  0.00  0.00    +0.008 C 
ATOM     26  C   UNL     1      34.428 -14.925 -22.482  0.00  0.00    +0.005 C 
ATOM     27  C   UNL     1      33.790 -13.686 -24.899  0.00  0.00    +0.099 C 
ATOM     28  C   UNL     1      34.294 -13.539 -22.540  0.00  0.00    +0.030 C 
ATOM     29  C   UNL     1      33.974 -12.919 -23.749  0.00  0.00    +0.144 C 
BRANCH  27  33
ATOM     30  F   UNL     1      33.608 -11.668 -26.170  0.00  0.00    -0.166 F 
ATOM     31  F   UNL     1      34.208 -13.455 -27.242  0.00  0.00    -0.166 F 
ATOM     32  F   UNL     1      32.153 -13.235 -26.563  0.00  0.00    -0.166 F 
ATOM     33  C   UNL     1      33.449 -13.025 -26.191  0.00  0.00    +0.421 C 
ENDBRANCH  27  33
ENDBRANCH   5  24
TORSDOF 3
ENDMDL
MODEL 3
REMARK VINA RESULT:      -9.9      1.848      2.782
REMARK  Name = 25118925
REMARK  3 active torsions:
REMARK  status: ('A' for Active; 'I' for Inactive)
REMARK    1  A    between atoms: C_3  and  C_12
REMARK    2  A    between atoms: C_5  and  C_24
REMARK    3  A    between atoms: C_27  and  C_33
REMARK                            x       y       z     vdW  Elec       q    Type
REMARK                         _______ _______ _______ _____ _____    ______ ____
ROOT
ATOM      1  N   UNL     1      33.684 -11.454 -25.474  0.00  0.00    -0.279 N 
ATOM      2  N   UNL     1      33.987 -11.644 -23.282  0.00  0.00    -0.394 NA
ATOM      3  C   UNL     1      33.778 -10.806 -24.274  0.00  0.00    +0.160 C 
ATOM      4  C   UNL     1      33.843 -12.790 -25.232  0.00  0.00    +0.152 C 
ATOM      5  C   UNL     1      34.029 -12.882 -23.873  0.00  0.00    +0.130 C 
ATOM      6  C   UNL     1      33.458 -10.854 -26.767  0.00  0.00    +0.115 C 
ENDROOT
BRANCH   3  12
ATOM      7  N   UNL     1      33.664  -6.574 -25.131  0.00  0.00    -0.296 N 
ATOM      8  N   UNL     1      32.625  -4.427 -25.141  0.00  0.00    -0.233 NA
ATOM      9  N   UNL     1      35.577  -3.134 -27.549  0.00  0.00    -0.223 N 
ATOM     10  N   UNL     1      33.542  -2.536 -26.380  0.00  0.00    -0.232 NA
ATOM     11  N   UNL     1      36.380  -4.197 -27.739  0.00  0.00    -0.183 NA
ATOM     12  C   UNL     1      33.649  -9.300 -24.155  0.00  0.00    +0.070 C 
ATOM     13  C   UNL     1      32.506  -8.747 -25.021  0.00  0.00    +0.030 C 
ATOM     14  C   UNL     1      34.957  -8.577 -24.510  0.00  0.00    +0.030 C 
ATOM     15  C   UNL     1      32.377  -7.232 -24.865  0.00  0.00    +0.092 C 
ATOM     16  C   UNL     1      34.815  -7.062 -24.364  0.00  0.00    +0.092 C 
ATOM     17  C   UNL     1      33.630  -5.239 -25.548  0.00  0.00    +0.118 C 
ATOM     18  C   UNL     1      34.619  -4.725 -26.381  0.00  0.00    +0.152 C 
ATOM     19  C   UNL     1      34.507  -3.395 -26.745  0.00  0.00    +0.133 C 
ATOM     20  C   UNL     1      35.792  -5.163 -27.025  0.00  0.00    +0.105 C 
ATOM     21  C   UNL     1      32.643  -3.144 -25.576  0.00  0.00    +0.252 C 
ATOM     22  H   UNL     1      35.745  -2.252 -27.952  0.00  0.00    +0.176 HD
ENDBRANCH   3  12
BRANCH   5  24
ATOM     23  F   UNL     1      34.854 -17.618 -21.080  0.00  0.00    -0.204 F 
ATOM     24  C   UNL     1      34.241 -14.102 -23.158  0.00  0.00    +0.027 C 
ATOM     25  C   UNL     1      34.463 -15.290 -23.853  0.00  0.00    +0.008 C 
ATOM     26  C   UNL     1      34.228 -14.103 -21.762  0.00  0.00    +0.005 C 
ATOM     27  C   UNL     1      34.670 -16.479 -23.155  0.00  0.00    +0.099 C 
ATOM     28  C   UNL     1      34.434 -15.291 -21.064  0.00  0.00    +0.030 C 
ATOM     29  C   UNL     1      34.656 -16.480 -21.760  0.00  0.00    +0.144 C 
BRANCH  27  33
ATOM     30  F   UNL     1      36.083 -18.362 -23.578  0.00  0.00    -0.166 F 
ATOM     31  F   UNL     1      33.943 -18.694 -23.689  0.00  0.00    -0.166 F 
ATOM     32  F   UNL     1      34.948 -17.564 -25.252  0.00  0.00    -0.166 F 
ATOM     33  C   UNL     1      34.906 -17.749 -23.901  0.00  0.00    +0.421 C 
ENDBRANCH  27  33
ENDBRANCH   5  24
TORSDOF 3
ENDMDL
MODEL 4
REMARK VINA RESULT:      -9.6      8.715     14.827
REMARK  Name = 25118925
REMARK  3 active torsions:
REMARK  status: ('A' for Active; 'I' for Inactive)
REMARK    1  A    between atoms: C_3  and  C_12
REMARK    2  A    between atoms: C_5  and  C_24
REMARK    3  A    between atoms: C_27  and  C_33
REMARK                            x       y       z     vdW  Elec       q    Type
REMARK                         _______ _______ _______ _____ _____    ______ ____
ROOT
ATOM      1  N   UNL     1      35.681 -20.551 -20.487  0.00  0.00    -0.279 N 
ATOM      2  N   UNL     1      33.763 -19.903 -21.400  0.00  0.00    -0.394 NA
ATOM      3  C   UNL     1      34.331 -20.751 -20.571  0.00  0.00    +0.160 C 
ATOM      4  C   UNL     1      35.993 -19.509 -21.315  0.00  0.00    +0.152 C 
ATOM      5  C   UNL     1      34.793 -19.126 -21.867  0.00  0.00    +0.130 C 
ATOM      6  C   UNL     1      36.619 -21.293 -19.679  0.00  0.00    +0.115 C 
ENDROOT
BRANCH   3  12
ATOM      7  N   UNL     1      32.676 -23.147 -17.381  0.00  0.00    -0.296 N 
ATOM      8  N   UNL     1      30.897 -24.281 -16.267  0.00  0.00    -0.233 NA
ATOM      9  N   UNL     1      33.323 -24.732 -13.090  0.00  0.00    -0.223 N 
ATOM     10  N   UNL     1      31.122 -25.161 -14.003  0.00  0.00    -0.232 NA
ATOM     11  N   UNL     1      34.486 -24.152 -13.438  0.00  0.00    -0.183 NA
ATOM     12  C   UNL     1      33.624 -21.835 -19.781  0.00  0.00    +0.070 C 
ATOM     13  C   UNL     1      32.437 -21.284 -18.977  0.00  0.00    +0.030 C 
ATOM     14  C   UNL     1      34.580 -22.582 -18.839  0.00  0.00    +0.030 C 
ATOM     15  C   UNL     1      31.722 -22.397 -18.211  0.00  0.00    +0.092 C 
ATOM     16  C   UNL     1      33.855 -23.686 -18.068  0.00  0.00    +0.092 C 
ATOM     17  C   UNL     1      32.168 -23.812 -16.259  0.00  0.00    +0.118 C 
ATOM     18  C   UNL     1      32.953 -24.004 -15.126  0.00  0.00    +0.152 C 
ATOM     19  C   UNL     1      32.370 -24.672 -14.063  0.00  0.00    +0.133 C 
ATOM     20  C   UNL     1      34.254 -23.711 -14.679  0.00  0.00    +0.105 C 
ATOM     21  C   UNL     1      30.459 -24.917 -15.154  0.00  0.00    +0.252 C 
ATOM     22  H   UNL     1      33.174 -25.160 -12.216  0.00  0.00    +0.176 HD
ENDBRANCH   3  12
BRANCH   5  24
ATOM     23  F   UNL     1      34.155 -14.993 -25.530  0.00  0.00    -0.204 F 
ATOM     24  C   UNL     1      34.628 -18.061 -22.807  0.00  0.00    +0.027 C 
ATOM     25  C   UNL     1      34.484 -16.749 -22.357  0.00  0.00    +0.008 C 
ATOM     26  C   UNL     1      34.614 -18.335 -24.175  0.00  0.00    +0.005 C 
ATOM     27  C   UNL     1      34.324 -15.710 -23.274  0.00  0.00    +0.099 C 
ATOM     28  C   UNL     1      34.454 -17.297 -25.092  0.00  0.00    +0.030 C 
ATOM     29  C   UNL     1      34.309 -15.985 -24.641  0.00  0.00    +0.144 C 
BRANCH  27  33
ATOM     30  F   UNL     1      34.787 -13.385 -23.585  0.00  0.00    -0.166 F 
ATOM     31  F   UNL     1      32.868 -13.898 -22.714  0.00  0.00    -0.166 F 
ATOM     32  F   UNL     1      34.686 -14.123 -21.542  0.00  0.00    -0.166 F 
ATOM     33  C   UNL     1      34.168 -14.308 -22.790  0.00  0.00    +0.421 C 
ENDBRANCH  27  33
ENDBRANCH   5  24
TORSDOF 3
ENDMDL
MODEL 5
REMARK VINA RESULT:      -9.5      1.596      2.672
REMARK  Name = 25118925
REMARK  3 active torsions:
REMARK  status: ('A' for Active; 'I' for Inactive)
REMARK    1  A    between atoms: C_3  and  C_12
REMARK    2  A    between atoms: C_5  and  C_24
REMARK    3  A    between atoms: C_27  and  C_33
REMARK                            x       y       z     vdW  Elec       q    Type
REMARK                         _______ _______ _______ _____ _____    ______ ____
ROOT
ATOM      1  N   UNL     1      32.946 -11.808 -23.215  0.00  0.00    -0.279 N 
ATOM      2  N   UNL     1      34.108 -12.800 -24.827  0.00  0.00    -0.394 NA
ATOM      3  C   UNL     1      33.614 -11.659 -24.398  0.00  0.00    +0.160 C 
ATOM      4  C   UNL     1      33.018 -13.128 -22.866  0.00  0.00    +0.152 C 
ATOM      5  C   UNL     1      33.739 -13.719 -23.876  0.00  0.00    +0.130 C 
ATOM      6  C   UNL     1      32.280 -10.773 -22.460  0.00  0.00    +0.115 C 
ENDROOT
BRANCH   3  12
ATOM      7  N   UNL     1      33.543  -7.437 -25.304  0.00  0.00    -0.296 N 
ATOM      8  N   UNL     1      34.543  -5.390 -26.015  0.00  0.00    -0.233 NA
ATOM      9  N   UNL     1      31.240  -3.470 -24.754  0.00  0.00    -0.223 N 
ATOM     10  N   UNL     1      33.423  -3.236 -25.776  0.00  0.00    -0.232 NA
ATOM     11  N   UNL     1      30.430  -4.427 -24.265  0.00  0.00    -0.183 NA
ATOM     12  C   UNL     1      33.742 -10.317 -25.092  0.00  0.00    +0.070 C 
ATOM     13  C   UNL     1      34.731  -9.386 -24.374  0.00  0.00    +0.030 C 
ATOM     14  C   UNL     1      32.386  -9.610 -25.239  0.00  0.00    +0.030 C 
ATOM     15  C   UNL     1      34.864  -8.050 -25.105  0.00  0.00    +0.092 C 
ATOM     16  C   UNL     1      32.530  -8.270 -25.960  0.00  0.00    +0.092 C 
ATOM     17  C   UNL     1      33.497  -6.046 -25.457  0.00  0.00    +0.118 C 
ATOM     18  C   UNL     1      32.385  -5.319 -25.043  0.00  0.00    +0.152 C 
ATOM     19  C   UNL     1      32.423  -3.948 -25.232  0.00  0.00    +0.133 C 
ATOM     20  C   UNL     1      31.133  -5.551 -24.444  0.00  0.00    +0.105 C 
ATOM     21  C   UNL     1      34.442  -4.045 -26.138  0.00  0.00    +0.252 C 
ATOM     22  H   UNL     1      31.001  -2.515 -24.766  0.00  0.00    +0.176 HD
ENDBRANCH   3  12
BRANCH   5  24
ATOM     23  F   UNL     1      35.013 -19.125 -24.134  0.00  0.00    -0.204 F 
ATOM     24  C   UNL     1      34.069 -15.110 -23.939  0.00  0.00    +0.027 C 
ATOM     25  C   UNL     1      34.531 -15.771 -22.802  0.00  0.00    +0.008 C 
ATOM     26  C   UNL     1      33.924 -15.806 -25.140  0.00  0.00    +0.005 C 
ATOM     27  C   UNL     1      34.851 -17.126 -22.863  0.00  0.00    +0.099 C 
ATOM     28  C   UNL     1      34.244 -17.161 -25.203  0.00  0.00    +0.030 C 
ATOM     29  C   UNL     1      34.708 -17.822 -24.064  0.00  0.00    +0.144 C 
BRANCH  27  33
ATOM     30  F   UNL     1      34.609 -18.931 -21.313  0.00  0.00    -0.166 F 
ATOM     31  F   UNL     1      36.629 -18.285 -21.761  0.00  0.00    -0.166 F 
ATOM     32  F   UNL     1      35.336 -17.034 -20.538  0.00  0.00    -0.166 F 
ATOM     33  C   UNL     1      35.346 -17.831 -21.646  0.00  0.00    +0.421 C 
ENDBRANCH  27  33
ENDBRANCH   5  24
TORSDOF 3
ENDMDL
MODEL 6
REMARK VINA RESULT:      -9.5      3.543      6.296
REMARK  Name = 25118925
REMARK  3 active torsions:
REMARK  status: ('A' for Active; 'I' for Inactive)
REMARK    1  A    between atoms: C_3  and  C_12
REMARK    2  A    between atoms: C_5  and  C_24
REMARK    3  A    between atoms: C_27  and  C_33
REMARK                            x       y       z     vdW  Elec       q    Type
REMARK                         _______ _______ _______ _____ _____    ______ ____
ROOT
ATOM      1  N   UNL     1      34.304 -16.017 -24.682  0.00  0.00    -0.279 N 
ATOM      2  N   UNL     1      34.178 -16.074 -22.465  0.00  0.00    -0.394 NA
ATOM      3  C   UNL     1      33.881 -15.385 -23.545  0.00  0.00    +0.160 C 
ATOM      4  C   UNL     1      34.909 -17.182 -24.302  0.00  0.00    +0.152 C 
ATOM      5  C   UNL     1      34.819 -17.195 -22.930  0.00  0.00    +0.130 C 
ATOM      6  C   UNL     1      34.149 -15.553 -26.040  0.00  0.00    +0.115 C 
ENDROOT
BRANCH   3  12
ATOM      7  N   UNL     1      32.544 -11.370 -22.681  0.00  0.00    -0.296 N 
ATOM      8  N   UNL     1      32.109  -9.096 -23.257  0.00  0.00    -0.233 NA
ATOM      9  N   UNL     1      31.550  -8.330 -19.347  0.00  0.00    -0.223 N 
ATOM     10  N   UNL     1      31.574  -7.403 -21.584  0.00  0.00    -0.232 NA
ATOM     11  N   UNL     1      31.741  -9.504 -18.718  0.00  0.00    -0.183 NA
ATOM     12  C   UNL     1      33.160 -14.051 -23.582  0.00  0.00    +0.070 C 
ATOM     13  C   UNL     1      34.124 -12.879 -23.820  0.00  0.00    +0.030 C 
ATOM     14  C   UNL     1      32.350 -13.797 -22.302  0.00  0.00    +0.030 C 
ATOM     15  C   UNL     1      33.375 -11.549 -23.880  0.00  0.00    +0.092 C 
ATOM     16  C   UNL     1      31.612 -12.459 -22.365  0.00  0.00    +0.092 C 
ATOM     17  C   UNL     1      32.223 -10.059 -22.310  0.00  0.00    +0.118 C 
ATOM     18  C   UNL     1      32.015  -9.724 -20.976  0.00  0.00    +0.152 C 
ATOM     19  C   UNL     1      31.702  -8.405 -20.699  0.00  0.00    +0.133 C 
ATOM     20  C   UNL     1      32.024 -10.349 -19.715  0.00  0.00    +0.105 C 
ATOM     21  C   UNL     1      31.795  -7.846 -22.840  0.00  0.00    +0.252 C 
ATOM     22  H   UNL     1      31.321  -7.497 -18.876  0.00  0.00    +0.176 HD
ENDBRANCH   3  12
BRANCH   5  24
ATOM     23  F   UNL     1      36.795 -21.230 -19.656  0.00  0.00    -0.204 F 
ATOM     24  C   UNL     1      35.324 -18.234 -22.087  0.00  0.00    +0.027 C 
ATOM     25  C   UNL     1      34.462 -19.210 -21.588  0.00  0.00    +0.008 C 
ATOM     26  C   UNL     1      36.681 -18.272 -21.765  0.00  0.00    +0.005 C 
ATOM     27  C   UNL     1      34.955 -20.223 -20.767  0.00  0.00    +0.099 C 
ATOM     28  C   UNL     1      37.175 -19.284 -20.944  0.00  0.00    +0.030 C 
ATOM     29  C   UNL     1      36.311 -20.260 -20.445  0.00  0.00    +0.144 C 
BRANCH  27  33
ATOM     30  F   UNL     1      34.368 -22.536 -20.605  0.00  0.00    -0.166 F 
ATOM     31  F   UNL     1      33.972 -21.297 -18.870  0.00  0.00    -0.166 F 
ATOM     32  F   UNL     1      32.744 -21.090 -20.654  0.00  0.00    -0.166 F 
ATOM     33  C   UNL     1      34.031 -21.265 -20.234  0.00  0.00    +0.421 C 
ENDBRANCH  27  33
ENDBRANCH   5  24
TORSDOF 3
ENDMDL
MODEL 7
REMARK VINA RESULT:      -9.2      1.919      2.812
REMARK  Name = 25118925
REMARK  3 active torsions:
REMARK  status: ('A' for Active; 'I' for Inactive)
REMARK    1  A    between atoms: C_3  and  C_12
REMARK    2  A    between atoms: C_5  and  C_24
REMARK    3  A    between atoms: C_27  and  C_33
REMARK                            x       y       z     vdW  Elec       q    Type
REMARK                         _______ _______ _______ _____ _____    ______ ____
ROOT
ATOM      1  N   UNL     1      33.718 -12.560 -25.942  0.00  0.00    -0.279 N 
ATOM      2  N   UNL     1      34.015 -13.351 -23.888  0.00  0.00    -0.394 NA
ATOM      3  C   UNL     1      33.838 -12.268 -24.612  0.00  0.00    +0.160 C 
ATOM      4  C   UNL     1      33.825 -13.916 -26.075  0.00  0.00    +0.152 C 
ATOM      5  C   UNL     1      34.007 -14.382 -24.795  0.00  0.00    +0.130 C 
ATOM      6  C   UNL     1      33.517 -11.622 -27.021  0.00  0.00    +0.115 C 
ENDROOT
BRANCH   3  12
ATOM      7  N   UNL     1      33.447  -7.978 -24.297  0.00  0.00    -0.296 N 
ATOM      8  N   UNL     1      32.486  -5.982 -23.408  0.00  0.00    -0.233 NA
ATOM      9  N   UNL     1      34.375  -3.919 -26.300  0.00  0.00    -0.223 N 
ATOM     10  N   UNL     1      32.904  -3.785 -24.381  0.00  0.00    -0.232 NA
ATOM     11  N   UNL     1      35.050  -4.837 -27.017  0.00  0.00    -0.183 NA
ATOM     12  C   UNL     1      33.770 -10.847 -24.086  0.00  0.00    +0.070 C 
ATOM     13  C   UNL     1      32.395 -10.206 -24.329  0.00  0.00    +0.030 C 
ATOM     14  C   UNL     1      34.865  -9.954 -24.688  0.00  0.00    +0.030 C 
ATOM     15  C   UNL     1      32.339  -8.786 -23.768  0.00  0.00    +0.092 C 
ATOM     16  C   UNL     1      34.795  -8.532 -24.130  0.00  0.00    +0.092 C 
ATOM     17  C   UNL     1      33.272  -6.590 -24.331  0.00  0.00    +0.118 C 
ATOM     18  C   UNL     1      33.896  -5.814 -25.303  0.00  0.00    +0.152 C 
ATOM     19  C   UNL     1      33.667  -4.450 -25.263  0.00  0.00    +0.133 C 
ATOM     20  C   UNL     1      34.754  -5.989 -26.405  0.00  0.00    +0.105 C 
ATOM     21  C   UNL     1      32.354  -4.637 -23.490  0.00  0.00    +0.252 C 
ATOM     22  H   UNL     1      34.391  -2.957 -26.504  0.00  0.00    +0.176 HD
ENDBRANCH   3  12
BRANCH   5  24
ATOM     23  F   UNL     1      34.634 -19.735 -23.429  0.00  0.00    -0.204 F 
ATOM     24  C   UNL     1      34.170 -15.758 -24.441  0.00  0.00    +0.027 C 
ATOM     25  C   UNL     1      34.637 -16.102 -23.173  0.00  0.00    +0.008 C 
ATOM     26  C   UNL     1      33.859 -16.757 -25.364  0.00  0.00    +0.005 C 
ATOM     27  C   UNL     1      34.796 -17.444 -22.828  0.00  0.00    +0.099 C 
ATOM     28  C   UNL     1      34.017 -18.098 -25.021  0.00  0.00    +0.030 C 
ATOM     29  C   UNL     1      34.486 -18.442 -23.752  0.00  0.00    +0.144 C 
BRANCH  27  33
ATOM     30  F   UNL     1      34.648 -18.878 -20.920  0.00  0.00    -0.166 F 
ATOM     31  F   UNL     1      36.620 -18.147 -21.451  0.00  0.00    -0.166 F 
ATOM     32  F   UNL     1      35.162 -16.795 -20.570  0.00  0.00    -0.166 F 
ATOM     33  C   UNL     1      35.297 -17.810 -21.472  0.00  0.00    +0.421 C 
ENDBRANCH  27  33
ENDBRANCH   5  24
TORSDOF 3
ENDMDL
MODEL 8
REMARK VINA RESULT:      -9.0      1.371      2.783
REMARK  Name = 25118925
REMARK  3 active torsions:
REMARK  status: ('A' for Active; 'I' for Inactive)
REMARK    1  A    between atoms: C_3  and  C_12
REMARK    2  A    between atoms: C_5  and  C_24
REMARK    3  A    between atoms: C_27  and  C_33
REMARK                            x       y       z     vdW  Elec       q    Type
REMARK                         _______ _______ _______ _____ _____    ______ ____
ROOT
ATOM      1  N   UNL     1      32.136 -10.825 -22.739  0.00  0.00    -0.279 N 
ATOM      2  N   UNL     1      33.799 -11.848 -23.798  0.00  0.00    -0.394 NA
ATOM      3  C   UNL     1      33.079 -10.749 -23.725  0.00  0.00    +0.160 C 
ATOM      4  C   UNL     1      32.262 -12.050 -22.144  0.00  0.00    +0.152 C 
ATOM      5  C   UNL     1      33.294 -12.662 -22.815  0.00  0.00    +0.130 C 
ATOM      6  C   UNL     1      31.176  -9.810 -22.378  0.00  0.00    +0.115 C 
ENDROOT
BRANCH   3  12
ATOM      7  N   UNL     1      33.184  -6.690 -25.196  0.00  0.00    -0.296 N 
ATOM      8  N   UNL     1      34.247  -4.825 -26.239  0.00  0.00    -0.233 NA
ATOM      9  N   UNL     1      31.149  -2.544 -25.060  0.00  0.00    -0.223 N 
ATOM     10  N   UNL     1      33.268  -2.590 -26.231  0.00  0.00    -0.232 NA
ATOM     11  N   UNL     1      30.321  -3.373 -24.398  0.00  0.00    -0.183 NA
ATOM     12  C   UNL     1      33.235  -9.523 -24.603  0.00  0.00    +0.070 C 
ATOM     13  C   UNL     1      34.320  -8.570 -24.080  0.00  0.00    +0.030 C 
ATOM     14  C   UNL     1      31.914  -8.756 -24.765  0.00  0.00    +0.030 C 
ATOM     15  C   UNL     1      34.479  -7.355 -24.993  0.00  0.00    +0.092 C 
ATOM     16  C   UNL     1      32.084  -7.535 -25.671  0.00  0.00    +0.092 C 
ATOM     17  C   UNL     1      33.206  -5.332 -25.535  0.00  0.00    +0.118 C 
ATOM     18  C   UNL     1      32.167  -4.486 -25.160  0.00  0.00    +0.152 C 
ATOM     19  C   UNL     1      32.269  -3.158 -25.537  0.00  0.00    +0.133 C 
ATOM     20  C   UNL     1      30.947  -4.554 -24.462  0.00  0.00    +0.105 C 
ATOM     21  C   UNL     1      34.214  -3.505 -26.539  0.00  0.00    +0.252 C 
ATOM     22  H   UNL     1      30.964  -1.586 -25.189  0.00  0.00    +0.176 HD
ENDBRANCH   3  12
BRANCH   5  24
ATOM     23  F   UNL     1      35.209 -17.765 -21.716  0.00  0.00    -0.204 F 
ATOM     24  C   UNL     1      33.786 -13.975 -22.535  0.00  0.00    +0.027 C 
ATOM     25  C   UNL     1      34.036 -14.865 -23.580  0.00  0.00    +0.008 C 
ATOM     26  C   UNL     1      34.019 -14.366 -21.216  0.00  0.00    +0.005 C 
ATOM     27  C   UNL     1      34.516 -16.145 -23.307  0.00  0.00    +0.099 C 
ATOM     28  C   UNL     1      34.498 -15.646 -20.942  0.00  0.00    +0.030 C 
ATOM     29  C   UNL     1      34.747 -16.536 -21.988  0.00  0.00    +0.144 C 
BRANCH  27  33
ATOM     30  F   UNL     1      35.688 -18.068 -24.114  0.00  0.00    -0.166 F 
ATOM     31  F   UNL     1      33.669 -17.768 -24.846  0.00  0.00    -0.166 F 
ATOM     32  F   UNL     1      35.277 -16.475 -25.535  0.00  0.00    -0.166 F 
ATOM     33  C   UNL     1      34.781 -17.095 -24.426  0.00  0.00    +0.421 C 
ENDBRANCH  27  33
ENDBRANCH   5  24
TORSDOF 3
ENDMDL
MODEL 9
REMARK VINA RESULT:      -8.9      7.455     13.442
REMARK  Name = 25118925
REMARK  3 active torsions:
REMARK  status: ('A' for Active; 'I' for Inactive)
REMARK    1  A    between atoms: C_3  and  C_12
REMARK    2  A    between atoms: C_5  and  C_24
REMARK    3  A    between atoms: C_27  and  C_33
REMARK                            x       y       z     vdW  Elec       q    Type
REMARK                         _______ _______ _______ _____ _____    ______ ____
ROOT
ATOM      1  N   UNL     1      34.870 -18.845 -23.896  0.00  0.00    -0.279 N 
ATOM      2  N   UNL     1      34.158 -17.658 -22.159  0.00  0.00    -0.394 NA
ATOM      3  C   UNL     1      34.509 -18.854 -22.577  0.00  0.00    +0.160 C 
ATOM      4  C   UNL     1      34.740 -17.561 -24.347  0.00  0.00    +0.152 C 
ATOM      5  C   UNL     1      34.300 -16.848 -23.258  0.00  0.00    +0.130 C 
ATOM      6  C   UNL     1      35.308 -19.973 -24.683  0.00  0.00    +0.115 C 
ENDROOT
BRANCH   3  12
ATOM      7  N   UNL     1      34.794 -21.658 -19.304  0.00  0.00    -0.296 N 
ATOM      8  N   UNL     1      33.969 -23.428 -17.933  0.00  0.00    -0.233 NA
ATOM      9  N   UNL     1      36.992 -22.707 -15.378  0.00  0.00    -0.223 N 
ATOM     10  N   UNL     1      35.045 -24.071 -15.840  0.00  0.00    -0.232 NA
ATOM     11  N   UNL     1      37.685 -21.686 -15.917  0.00  0.00    -0.183 NA
ATOM     12  C   UNL     1      34.530 -20.120 -21.742  0.00  0.00    +0.070 C 
ATOM     13  C   UNL     1      33.432 -20.122 -20.668  0.00  0.00    +0.030 C 
ATOM     14  C   UNL     1      35.896 -20.355 -21.081  0.00  0.00    +0.030 C 
ATOM     15  C   UNL     1      33.453 -21.417 -19.857  0.00  0.00    +0.092 C 
ATOM     16  C   UNL     1      35.905 -21.647 -20.262  0.00  0.00    +0.092 C 
ATOM     17  C   UNL     1      34.883 -22.453 -18.156  0.00  0.00    +0.118 C 
ATOM     18  C   UNL     1      35.904 -22.259 -17.230  0.00  0.00    +0.152 C 
ATOM     19  C   UNL     1      35.916 -23.089 -16.123  0.00  0.00    +0.133 C 
ATOM     20  C   UNL     1      37.017 -21.418 -17.045  0.00  0.00    +0.105 C 
ATOM     21  C   UNL     1      34.105 -24.166 -16.805  0.00  0.00    +0.252 C 
ATOM     22  H   UNL     1      37.238 -23.137 -14.528  0.00  0.00    +0.176 HD
ENDBRANCH   3  12
BRANCH   5  24
ATOM     23  F   UNL     1      33.225 -11.393 -23.262  0.00  0.00    -0.204 F 
ATOM     24  C   UNL     1      34.021 -15.445 -23.256  0.00  0.00    +0.027 C 
ATOM     25  C   UNL     1      33.240 -14.889 -22.244  0.00  0.00    +0.008 C 
ATOM     26  C   UNL     1      34.533 -14.632 -24.268  0.00  0.00    +0.005 C 
ATOM     27  C   UNL     1      32.969 -13.521 -22.242  0.00  0.00    +0.099 C 
ATOM     28  C   UNL     1      34.262 -13.265 -24.268  0.00  0.00    +0.030 C 
ATOM     29  C   UNL     1      33.480 -12.709 -23.255  0.00  0.00    +0.144 C 
BRANCH  27  33
ATOM     30  F   UNL     1      32.795 -12.008 -20.399  0.00  0.00    -0.166 F 
ATOM     31  F   UNL     1      31.023 -12.279 -21.619  0.00  0.00    -0.166 F 
ATOM     32  F   UNL     1      31.671 -13.866 -20.280  0.00  0.00    -0.166 F 
ATOM     33  C   UNL     1      32.132 -12.929 -21.159  0.00  0.00    +0.421 C 
ENDBRANCH  27  33
ENDBRANCH   5  24
TORSDOF 3
ENDMDL
