MODEL 1
REMARK VINA RESULT:     -11.8      0.000      0.000
REMARK  Name = 12136798
REMARK  7 active torsions:
REMARK  status: ('A' for Active; 'I' for Inactive)
REMARK    1  A    between atoms: C_1  and  C_21
REMARK    2  A    between atoms: C_2  and  C_9
REMARK    3  A    between atoms: N_8  and  C_12
REMARK    4  A    between atoms: C_13  and  N_18
REMARK    5  A    between atoms: C_21  and  N_23
REMARK    6  A    between atoms: C_24  and  C_26
REMARK    7  A    between atoms: C_27  and  C_29
REMARK                            x       y       z     vdW  Elec       q    Type
REMARK                         _______ _______ _______ _____ _____    ______ ____
ROOT
ATOM      1  C   UNL     1      35.049 -19.984 -21.094  0.00  0.00    -0.003 C 
ATOM      2  C   UNL     1      34.019 -21.971 -19.445  0.00  0.00    +0.054 C 
ATOM      3  C   UNL     1      35.915 -20.816 -20.396  0.00  0.00    -0.002 C 
ATOM      4  C   UNL     1      33.672 -20.134 -20.975  0.00  0.00    -0.002 C 
ATOM      5  C   UNL     1      35.400 -21.814 -19.569  0.00  0.00    +0.004 C 
ATOM      6  C   UNL     1      33.155 -21.131 -20.148  0.00  0.00    +0.004 C 
ENDROOT
BRANCH   2   9
ATOM      7  O   UNL     1      33.542 -24.194 -18.952  0.00  0.00    -0.270 OA
ATOM      8  N   UNL     1      32.946 -22.574 -17.362  0.00  0.00    -0.279 N 
ATOM      9  C   UNL     1      33.480 -23.011 -18.582  0.00  0.00    +0.250 C 
ATOM     10  H   UNL     1      32.968 -21.602 -17.208  0.00  0.00    +0.155 HD
BRANCH   8  12
ATOM     11  F   UNL     1      30.805 -25.614 -13.271  0.00  0.00    -0.204 F 
ATOM     12  C   UNL     1      32.379 -23.349 -16.320  0.00  0.00    +0.064 C 
ATOM     13  C   UNL     1      31.004 -23.465 -16.202  0.00  0.00    +0.057 C 
ATOM     14  C   UNL     1      33.235 -23.980 -15.430  0.00  0.00    +0.018 C 
ATOM     15  C   UNL     1      30.470 -24.234 -15.167  0.00  0.00    +0.045 C 
ATOM     16  C   UNL     1      32.700 -24.749 -14.397  0.00  0.00    +0.031 C 
ATOM     17  C   UNL     1      31.318 -24.875 -14.264  0.00  0.00    +0.141 C 
BRANCH  13  18
ATOM     18  N   UNL     1      30.127 -22.824 -17.104  0.00  0.00    -0.356 N 
ATOM     19  H   UNL     1      29.526 -22.113 -16.784  0.00  0.00    +0.142 HD
ATOM     20  H   UNL     1      30.115 -23.089 -18.052  0.00  0.00    +0.142 HD
ENDBRANCH  13  18
ENDBRANCH   8  12
ENDBRANCH   2   9
BRANCH   1  21
ATOM     21  C   UNL     1      35.604 -18.910 -21.984  0.00  0.00    +0.117 C 
BRANCH  21  23
ATOM     22  O   UNL     1      35.457 -16.622 -23.755  0.00  0.00    -0.270 OA
ATOM     23  N   UNL     1      35.023 -17.616 -21.700  0.00  0.00    -0.297 N 
ATOM     24  C   UNL     1      35.001 -16.580 -22.618  0.00  0.00    +0.246 C 
ATOM     25  H   UNL     1      34.624 -17.466 -20.812  0.00  0.00    +0.150 HD
BRANCH  24  26
ATOM     26  C   UNL     1      34.344 -15.363 -22.062  0.00  0.00    +0.058 C 
ATOM     27  C   UNL     1      33.620 -14.568 -22.865  0.00  0.00    +0.006 C 
BRANCH  27  29
ATOM     28  N   UNL     1      32.316 -11.068 -22.855  0.00  0.00    -0.242 NA
ATOM     29  C   UNL     1      32.919 -13.349 -22.422  0.00  0.00    +0.019 C 
ATOM     30  C   UNL     1      32.239 -13.336 -21.223  0.00  0.00    +0.003 C 
ATOM     31  C   UNL     1      32.938 -12.218 -23.202  0.00  0.00    +0.099 C 
ATOM     32  C   UNL     1      31.587 -12.171 -20.832  0.00  0.00    +0.021 C 
ATOM     33  C   UNL     1      31.655 -11.075 -21.676  0.00  0.00    +0.099 C 
ENDBRANCH  27  29
ENDBRANCH  24  26
ENDBRANCH  21  23
ENDBRANCH   1  21
TORSDOF 7
ENDMDL
MODEL 2
REMARK VINA RESULT:     -11.6      0.804      1.659
REMARK  Name = 12136798
REMARK  7 active torsions:
REMARK  status: ('A' for Active; 'I' for Inactive)
REMARK    1  A    between atoms: C_1  and  C_21
REMARK    2  A    between atoms: C_2  and  C_9
REMARK    3  A    between atoms: N_8  and  C_12
REMARK    4  A    between atoms: C_13  and  N_18
REMARK    5  A    between atoms: C_21  and  N_23
REMARK    6  A    between atoms: C_24  and  C_26
REMARK    7  A    between atoms: C_27  and  C_29
REMARK                            x       y       z     vdW  Elec       q    Type
REMARK                         _______ _______ _______ _____ _____    ______ ____
ROOT
ATOM      1  C   UNL     1      35.112 -20.001 -21.014  0.00  0.00    -0.003 C 
ATOM      2  C   UNL     1      33.810 -21.903 -19.461  0.00  0.00    +0.054 C 
ATOM      3  C   UNL     1      33.723 -20.046 -21.003  0.00  0.00    -0.002 C 
ATOM      4  C   UNL     1      35.857 -20.897 -20.257  0.00  0.00    -0.002 C 
ATOM      5  C   UNL     1      33.069 -21.001 -20.224  0.00  0.00    +0.004 C 
ATOM      6  C   UNL     1      35.204 -21.852 -19.477  0.00  0.00    +0.004 C 
ENDROOT
BRANCH   2   9
ATOM      7  O   UNL     1      33.424 -24.098 -18.792  0.00  0.00    -0.270 OA
ATOM      8  N   UNL     1      32.191 -22.405 -17.734  0.00  0.00    -0.279 N 
ATOM      9  C   UNL     1      33.129 -22.900 -18.649  0.00  0.00    +0.250 C 
ATOM     10  H   UNL     1      32.065 -21.428 -17.736  0.00  0.00    +0.155 HD
BRANCH   8  12
ATOM     11  F   UNL     1      29.041 -25.194 -14.149  0.00  0.00    -0.204 F 
ATOM     12  C   UNL     1      31.400 -23.125 -16.805  0.00  0.00    +0.064 C 
ATOM     13  C   UNL     1      31.997 -23.815 -15.763  0.00  0.00    +0.057 C 
ATOM     14  C   UNL     1      30.024 -23.120 -16.971  0.00  0.00    +0.018 C 
ATOM     15  C   UNL     1      31.197 -24.517 -14.861  0.00  0.00    +0.045 C 
ATOM     16  C   UNL     1      29.224 -23.821 -16.069  0.00  0.00    +0.031 C 
ATOM     17  C   UNL     1      29.810 -24.521 -15.015  0.00  0.00    +0.141 C 
BRANCH  13  18
ATOM     18  N   UNL     1      33.398 -23.826 -15.588  0.00  0.00    -0.356 N 
ATOM     19  H   UNL     1      33.860 -23.017 -15.267  0.00  0.00    +0.142 HD
ATOM     20  H   UNL     1      33.914 -24.641 -15.785  0.00  0.00    +0.142 HD
ENDBRANCH  13  18
ENDBRANCH   8  12
ENDBRANCH   2   9
BRANCH   1  21
ATOM     21  C   UNL     1      35.816 -18.973 -21.852  0.00  0.00    +0.117 C 
BRANCH  21  23
ATOM     22  O   UNL     1      35.341 -16.985 -23.905  0.00  0.00    -0.270 OA
ATOM     23  N   UNL     1      35.250 -17.654 -21.681  0.00  0.00    -0.297 N 
ATOM     24  C   UNL     1      35.061 -16.771 -22.731  0.00  0.00    +0.246 C 
ATOM     25  H   UNL     1      34.986 -17.371 -20.775  0.00  0.00    +0.150 HD
BRANCH  24  26
ATOM     26  C   UNL     1      34.462 -15.485 -22.272  0.00  0.00    +0.058 C 
ATOM     27  C   UNL     1      33.721 -14.753 -23.116  0.00  0.00    +0.006 C 
BRANCH  27  29
ATOM     28  N   UNL     1      32.730 -11.155 -23.269  0.00  0.00    -0.242 NA
ATOM     29  C   UNL     1      33.073 -13.476 -22.768  0.00  0.00    +0.019 C 
ATOM     30  C   UNL     1      32.241 -13.395 -21.671  0.00  0.00    +0.003 C 
ATOM     31  C   UNL     1      33.293 -12.357 -23.533  0.00  0.00    +0.099 C 
ATOM     32  C   UNL     1      31.644 -12.177 -21.366  0.00  0.00    +0.021 C 
ATOM     33  C   UNL     1      31.918 -11.097 -22.190  0.00  0.00    +0.099 C 
ENDBRANCH  27  29
ENDBRANCH  24  26
ENDBRANCH  21  23
ENDBRANCH   1  21
TORSDOF 7
ENDMDL
MODEL 3
REMARK VINA RESULT:     -11.2      5.007     12.358
REMARK  Name = 12136798
REMARK  7 active torsions:
REMARK  status: ('A' for Active; 'I' for Inactive)
REMARK    1  A    between atoms: C_1  and  C_21
REMARK    2  A    between atoms: C_2  and  C_9
REMARK    3  A    between atoms: N_8  and  C_12
REMARK    4  A    between atoms: C_13  and  N_18
REMARK    5  A    between atoms: C_21  and  N_23
REMARK    6  A    between atoms: C_24  and  C_26
REMARK    7  A    between atoms: C_27  and  C_29
REMARK                            x       y       z     vdW  Elec       q    Type
REMARK                         _______ _______ _______ _____ _____    ______ ____
ROOT
ATOM      1  C   UNL     1      34.285 -16.319 -24.315  0.00  0.00    -0.003 C 
ATOM      2  C   UNL     1      33.689 -13.645 -23.845  0.00  0.00    +0.054 C 
ATOM      3  C   UNL     1      34.707 -15.717 -23.135  0.00  0.00    -0.002 C 
ATOM      4  C   UNL     1      33.569 -15.598 -25.263  0.00  0.00    -0.002 C 
ATOM      5  C   UNL     1      34.408 -14.375 -22.899  0.00  0.00    +0.004 C 
ATOM      6  C   UNL     1      33.270 -14.255 -25.027  0.00  0.00    +0.004 C 
ENDROOT
BRANCH   2   9
ATOM      7  O   UNL     1      32.477 -11.959 -22.797  0.00  0.00    -0.270 OA
ATOM      8  N   UNL     1      34.164 -11.314 -24.294  0.00  0.00    -0.279 N 
ATOM      9  C   UNL     1      33.379 -12.244 -23.601  0.00  0.00    +0.250 C 
ATOM     10  H   UNL     1      34.843 -11.693 -24.899  0.00  0.00    +0.155 HD
BRANCH   8  12
ATOM     11  F   UNL     1      33.887  -5.800 -24.044  0.00  0.00    -0.204 F 
ATOM     12  C   UNL     1      34.110  -9.899 -24.241  0.00  0.00    +0.064 C 
ATOM     13  C   UNL     1      35.105  -9.138 -24.830  0.00  0.00    +0.057 C 
ATOM     14  C   UNL     1      33.042  -9.308 -23.584  0.00  0.00    +0.018 C 
ATOM     15  C   UNL     1      35.029  -7.746 -24.764  0.00  0.00    +0.045 C 
ATOM     16  C   UNL     1      32.966  -7.917 -23.519  0.00  0.00    +0.031 C 
ATOM     17  C   UNL     1      33.960  -7.136 -24.107  0.00  0.00    +0.141 C 
BRANCH  13  18
ATOM     18  N   UNL     1      36.196  -9.733 -25.500  0.00  0.00    -0.356 N 
ATOM     19  H   UNL     1      36.838 -10.286 -24.998  0.00  0.00    +0.142 HD
ATOM     20  H   UNL     1      36.314  -9.598 -26.468  0.00  0.00    +0.142 HD
ENDBRANCH  13  18
ENDBRANCH   8  12
ENDBRANCH   2   9
BRANCH   1  21
ATOM     21  C   UNL     1      34.606 -17.763 -24.569  0.00  0.00    +0.117 C 
BRANCH  21  23
ATOM     22  O   UNL     1      36.355 -18.785 -22.498  0.00  0.00    -0.270 OA
ATOM     23  N   UNL     1      34.243 -18.604 -23.450  0.00  0.00    -0.297 N 
ATOM     24  C   UNL     1      35.156 -19.044 -22.507  0.00  0.00    +0.246 C 
ATOM     25  H   UNL     1      33.301 -18.877 -23.356  0.00  0.00    +0.150 HD
BRANCH  24  26
ATOM     26  C   UNL     1      34.511 -19.894 -21.467  0.00  0.00    +0.058 C 
ATOM     27  C   UNL     1      35.267 -20.658 -20.665  0.00  0.00    +0.006 C 
BRANCH  27  29
ATOM     28  N   UNL     1      35.159 -22.833 -17.630  0.00  0.00    -0.242 NA
ATOM     29  C   UNL     1      34.739 -21.528 -19.598  0.00  0.00    +0.019 C 
ATOM     30  C   UNL     1      33.396 -21.842 -19.559  0.00  0.00    +0.003 C 
ATOM     31  C   UNL     1      35.579 -22.031 -18.635  0.00  0.00    +0.099 C 
ATOM     32  C   UNL     1      32.927 -22.664 -18.540  0.00  0.00    +0.021 C 
ATOM     33  C   UNL     1      33.840 -23.129 -17.609  0.00  0.00    +0.099 C 
ENDBRANCH  27  29
ENDBRANCH  24  26
ENDBRANCH  21  23
ENDBRANCH   1  21
TORSDOF 7
ENDMDL
MODEL 4
REMARK VINA RESULT:     -11.1      1.968      2.675
REMARK  Name = 12136798
REMARK  7 active torsions:
REMARK  status: ('A' for Active; 'I' for Inactive)
REMARK    1  A    between atoms: C_1  and  C_21
REMARK    2  A    between atoms: C_2  and  C_9
REMARK    3  A    between atoms: N_8  and  C_12
REMARK    4  A    between atoms: C_13  and  N_18
REMARK    5  A    between atoms: C_21  and  N_23
REMARK    6  A    between atoms: C_24  and  C_26
REMARK    7  A    between atoms: C_27  and  C_29
REMARK                            x       y       z     vdW  Elec       q    Type
REMARK                         _______ _______ _______ _____ _____    ______ ____
ROOT
ATOM      1  C   UNL     1      35.527 -19.319 -21.705  0.00  0.00    -0.003 C 
ATOM      2  C   UNL     1      35.100 -21.294 -19.796  0.00  0.00    +0.054 C 
ATOM      3  C   UNL     1      36.602 -19.819 -20.980  0.00  0.00    -0.002 C 
ATOM      4  C   UNL     1      34.240 -19.795 -21.484  0.00  0.00    -0.002 C 
ATOM      5  C   UNL     1      36.389 -20.811 -20.023  0.00  0.00    +0.004 C 
ATOM      6  C   UNL     1      34.026 -20.787 -20.526  0.00  0.00    +0.004 C 
ENDROOT
BRANCH   2   9
ATOM      7  O   UNL     1      34.202 -23.323 -19.098  0.00  0.00    -0.270 OA
ATOM      8  N   UNL     1      35.483 -22.112 -17.550  0.00  0.00    -0.279 N 
ATOM      9  C   UNL     1      34.877 -22.327 -18.796  0.00  0.00    +0.250 C 
ATOM     10  H   UNL     1      35.989 -21.272 -17.459  0.00  0.00    +0.155 HD
BRANCH   8  12
ATOM     11  F   UNL     1      35.324 -25.357 -13.079  0.00  0.00    -0.204 F 
ATOM     12  C   UNL     1      35.462 -22.945 -16.404  0.00  0.00    +0.064 C 
ATOM     13  C   UNL     1      36.645 -23.411 -15.856  0.00  0.00    +0.057 C 
ATOM     14  C   UNL     1      34.232 -23.276 -15.856  0.00  0.00    +0.018 C 
ATOM     15  C   UNL     1      36.598 -24.230 -14.727  0.00  0.00    +0.045 C 
ATOM     16  C   UNL     1      34.186 -24.093 -14.727  0.00  0.00    +0.031 C 
ATOM     17  C   UNL     1      35.369 -24.572 -14.163  0.00  0.00    +0.141 C 
BRANCH  13  18
ATOM     18  N   UNL     1      37.900 -23.078 -16.409  0.00  0.00    -0.356 N 
ATOM     19  H   UNL     1      38.607 -23.761 -16.471  0.00  0.00    +0.142 HD
ATOM     20  H   UNL     1      38.069 -22.164 -16.735  0.00  0.00    +0.142 HD
ENDBRANCH  13  18
ENDBRANCH   8  12
ENDBRANCH   2   9
BRANCH   1  21
ATOM     21  C   UNL     1      35.756 -18.252 -22.736  0.00  0.00    +0.117 C 
BRANCH  21  23
ATOM     22  O   UNL     1      34.900 -16.111 -24.490  0.00  0.00    -0.270 OA
ATOM     23  N   UNL     1      35.158 -16.992 -22.355  0.00  0.00    -0.297 N 
ATOM     24  C   UNL     1      34.779 -16.027 -23.272  0.00  0.00    +0.246 C 
ATOM     25  H   UNL     1      35.012 -16.813 -21.397  0.00  0.00    +0.150 HD
BRANCH  24  26
ATOM     26  C   UNL     1      34.192 -14.830 -22.606  0.00  0.00    +0.058 C 
ATOM     27  C   UNL     1      33.316 -14.059 -23.267  0.00  0.00    +0.006 C 
BRANCH  27  29
ATOM     28  N   UNL     1      32.250 -10.504 -22.850  0.00  0.00    -0.242 NA
ATOM     29  C   UNL     1      32.666 -12.861 -22.704  0.00  0.00    +0.019 C 
ATOM     30  C   UNL     1      31.899 -12.959 -21.563  0.00  0.00    +0.003 C 
ATOM     31  C   UNL     1      32.819 -11.640 -23.314  0.00  0.00    +0.099 C 
ATOM     32  C   UNL     1      31.298 -11.812 -21.055  0.00  0.00    +0.021 C 
ATOM     33  C   UNL     1      31.502 -10.621 -21.730  0.00  0.00    +0.099 C 
ENDBRANCH  27  29
ENDBRANCH  24  26
ENDBRANCH  21  23
ENDBRANCH   1  21
TORSDOF 7
ENDMDL
MODEL 5
REMARK VINA RESULT:     -11.0      4.018     10.769
REMARK  Name = 12136798
REMARK  7 active torsions:
REMARK  status: ('A' for Active; 'I' for Inactive)
REMARK    1  A    between atoms: C_1  and  C_21
REMARK    2  A    between atoms: C_2  and  C_9
REMARK    3  A    between atoms: N_8  and  C_12
REMARK    4  A    between atoms: C_13  and  N_18
REMARK    5  A    between atoms: C_21  and  N_23
REMARK    6  A    between atoms: C_24  and  C_26
REMARK    7  A    between atoms: C_27  and  C_29
REMARK                            x       y       z     vdW  Elec       q    Type
REMARK                         _______ _______ _______ _____ _____    ______ ____
ROOT
ATOM      1  C   UNL     1      36.137 -20.936 -19.840  0.00  0.00    -0.003 C 
ATOM      2  C   UNL     1      35.110 -19.209 -21.760  0.00  0.00    +0.054 C 
ATOM      3  C   UNL     1      34.801 -21.033 -20.207  0.00  0.00    -0.002 C 
ATOM      4  C   UNL     1      36.965 -19.984 -20.422  0.00  0.00    -0.002 C 
ATOM      5  C   UNL     1      34.284 -20.167 -21.171  0.00  0.00    +0.004 C 
ATOM      6  C   UNL     1      36.450 -19.117 -21.386  0.00  0.00    +0.004 C 
ENDROOT
BRANCH   2   9
ATOM      7  O   UNL     1      33.900 -18.770 -23.698  0.00  0.00    -0.270 OA
ATOM      8  N   UNL     1      34.845 -16.943 -22.569  0.00  0.00    -0.279 N 
ATOM      9  C   UNL     1      34.572 -18.304 -22.764  0.00  0.00    +0.250 C 
ATOM     10  H   UNL     1      35.392 -16.725 -21.780  0.00  0.00    +0.155 HD
BRANCH   8  12
ATOM     11  F   UNL     1      33.255 -12.683 -25.712  0.00  0.00    -0.204 F 
ATOM     12  C   UNL     1      34.437 -15.839 -23.359  0.00  0.00    +0.064 C 
ATOM     13  C   UNL     1      34.202 -14.607 -22.772  0.00  0.00    +0.057 C 
ATOM     14  C   UNL     1      34.280 -16.031 -24.722  0.00  0.00    +0.018 C 
ATOM     15  C   UNL     1      33.802 -13.536 -23.570  0.00  0.00    +0.045 C 
ATOM     16  C   UNL     1      33.880 -14.959 -25.520  0.00  0.00    +0.031 C 
ATOM     17  C   UNL     1      33.640 -13.712 -24.945  0.00  0.00    +0.141 C 
BRANCH  13  18
ATOM     18  N   UNL     1      34.360 -14.406 -21.383  0.00  0.00    -0.356 N 
ATOM     19  H   UNL     1      34.632 -13.523 -21.042  0.00  0.00    +0.142 HD
ATOM     20  H   UNL     1      34.197 -15.146 -20.755  0.00  0.00    +0.142 HD
ENDBRANCH  13  18
ENDBRANCH   8  12
ENDBRANCH   2   9
BRANCH   1  21
ATOM     21  C   UNL     1      36.693 -21.868 -18.803  0.00  0.00    +0.117 C 
BRANCH  21  23
ATOM     22  O   UNL     1      37.239 -22.910 -16.155  0.00  0.00    -0.270 OA
ATOM     23  N   UNL     1      35.736 -22.146 -17.755  0.00  0.00    -0.297 N 
ATOM     24  C   UNL     1      36.097 -22.645 -16.515  0.00  0.00    +0.246 C 
ATOM     25  H   UNL     1      34.783 -21.971 -17.932  0.00  0.00    +0.150 HD
BRANCH  24  26
ATOM     26  C   UNL     1      34.913 -22.838 -15.630  0.00  0.00    +0.058 C 
ATOM     27  C   UNL     1      33.853 -23.530 -16.072  0.00  0.00    +0.006 C 
BRANCH  27  29
ATOM     28  N   UNL     1      31.590 -24.958 -13.466  0.00  0.00    -0.242 NA
ATOM     29  C   UNL     1      32.636 -23.790 -15.281  0.00  0.00    +0.019 C 
ATOM     30  C   UNL     1      31.456 -23.146 -15.589  0.00  0.00    +0.003 C 
ATOM     31  C   UNL     1      32.670 -24.675 -14.231  0.00  0.00    +0.099 C 
ATOM     32  C   UNL     1      30.325 -23.412 -14.825  0.00  0.00    +0.021 C 
ATOM     33  C   UNL     1      30.444 -24.317 -13.784  0.00  0.00    +0.099 C 
ENDBRANCH  27  29
ENDBRANCH  24  26
ENDBRANCH  21  23
ENDBRANCH   1  21
TORSDOF 7
ENDMDL
MODEL 6
REMARK VINA RESULT:     -10.8      1.916      2.392
REMARK  Name = 12136798
REMARK  7 active torsions:
REMARK  status: ('A' for Active; 'I' for Inactive)
REMARK    1  A    between atoms: C_1  and  C_21
REMARK    2  A    between atoms: C_2  and  C_9
REMARK    3  A    between atoms: N_8  and  C_12
REMARK    4  A    between atoms: C_13  and  N_18
REMARK    5  A    between atoms: C_21  and  N_23
REMARK    6  A    between atoms: C_24  and  C_26
REMARK    7  A    between atoms: C_27  and  C_29
REMARK                            x       y       z     vdW  Elec       q    Type
REMARK                         _______ _______ _______ _____ _____    ______ ____
ROOT
ATOM      1  C   UNL     1      35.496 -19.028 -21.889  0.00  0.00    -0.003 C 
ATOM      2  C   UNL     1      35.207 -21.101 -20.059  0.00  0.00    +0.054 C 
ATOM      3  C   UNL     1      36.607 -19.495 -21.197  0.00  0.00    -0.002 C 
ATOM      4  C   UNL     1      34.241 -19.586 -21.675  0.00  0.00    -0.002 C 
ATOM      5  C   UNL     1      36.463 -20.535 -20.279  0.00  0.00    +0.004 C 
ATOM      6  C   UNL     1      34.096 -20.627 -20.757  0.00  0.00    +0.004 C 
ENDROOT
BRANCH   2   9
ATOM      7  O   UNL     1      34.485 -23.228 -19.455  0.00  0.00    -0.270 OA
ATOM      8  N   UNL     1      35.605 -21.958 -17.831  0.00  0.00    -0.279 N 
ATOM      9  C   UNL     1      35.055 -22.185 -19.100  0.00  0.00    +0.250 C 
ATOM     10  H   UNL     1      36.028 -21.079 -17.698  0.00  0.00    +0.155 HD
BRANCH   8  12
ATOM     11  F   UNL     1      35.788 -25.345 -13.467  0.00  0.00    -0.204 F 
ATOM     12  C   UNL     1      35.633 -22.829 -16.714  0.00  0.00    +0.064 C 
ATOM     13  C   UNL     1      34.464 -23.410 -16.250  0.00  0.00    +0.057 C 
ATOM     14  C   UNL     1      36.853 -23.078 -16.105  0.00  0.00    +0.018 C 
ATOM     15  C   UNL     1      34.516 -24.264 -15.148  0.00  0.00    +0.045 C 
ATOM     16  C   UNL     1      36.905 -23.932 -15.004  0.00  0.00    +0.031 C 
ATOM     17  C   UNL     1      35.737 -24.525 -14.524  0.00  0.00    +0.141 C 
BRANCH  13  18
ATOM     18  N   UNL     1      33.218 -23.160 -16.865  0.00  0.00    -0.356 N 
ATOM     19  H   UNL     1      32.383 -23.352 -16.380  0.00  0.00    +0.142 HD
ATOM     20  H   UNL     1      33.183 -22.793 -17.778  0.00  0.00    +0.142 HD
ENDBRANCH  13  18
ENDBRANCH   8  12
ENDBRANCH   2   9
BRANCH   1  21
ATOM     21  C   UNL     1      35.651 -17.909 -22.877  0.00  0.00    +0.117 C 
BRANCH  21  23
ATOM     22  O   UNL     1      34.688 -15.680 -24.458  0.00  0.00    -0.270 OA
ATOM     23  N   UNL     1      35.074 -16.674 -22.393  0.00  0.00    -0.297 N 
ATOM     24  C   UNL     1      34.641 -15.662 -23.232  0.00  0.00    +0.246 C 
ATOM     25  H   UNL     1      34.986 -16.548 -21.420  0.00  0.00    +0.150 HD
BRANCH  24  26
ATOM     26  C   UNL     1      34.092 -14.506 -22.468  0.00  0.00    +0.058 C 
ATOM     27  C   UNL     1      33.054 -13.812 -22.958  0.00  0.00    +0.006 C 
BRANCH  27  29
ATOM     28  N   UNL     1      31.801 -10.347 -22.350  0.00  0.00    -0.242 NA
ATOM     29  C   UNL     1      32.426 -12.662 -22.284  0.00  0.00    +0.019 C 
ATOM     30  C   UNL     1      31.895 -12.802 -21.019  0.00  0.00    +0.003 C 
ATOM     31  C   UNL     1      32.364 -11.441 -22.912  0.00  0.00    +0.099 C 
ATOM     32  C   UNL     1      31.308 -11.699 -20.409  0.00  0.00    +0.021 C 
ATOM     33  C   UNL     1      31.287 -10.505 -21.110  0.00  0.00    +0.099 C 
ENDBRANCH  27  29
ENDBRANCH  24  26
ENDBRANCH  21  23
ENDBRANCH   1  21
TORSDOF 7
ENDMDL
MODEL 7
REMARK VINA RESULT:     -10.8      3.483      5.687
REMARK  Name = 12136798
REMARK  7 active torsions:
REMARK  status: ('A' for Active; 'I' for Inactive)
REMARK    1  A    between atoms: C_1  and  C_21
REMARK    2  A    between atoms: C_2  and  C_9
REMARK    3  A    between atoms: N_8  and  C_12
REMARK    4  A    between atoms: C_13  and  N_18
REMARK    5  A    between atoms: C_21  and  N_23
REMARK    6  A    between atoms: C_24  and  C_26
REMARK    7  A    between atoms: C_27  and  C_29
REMARK                            x       y       z     vdW  Elec       q    Type
REMARK                         _______ _______ _______ _____ _____    ______ ____
ROOT
ATOM      1  C   UNL     1      34.132 -15.748 -24.954  0.00  0.00    -0.003 C 
ATOM      2  C   UNL     1      34.789 -17.420 -22.832  0.00  0.00    +0.054 C 
ATOM      3  C   UNL     1      34.428 -15.199 -23.712  0.00  0.00    -0.002 C 
ATOM      4  C   UNL     1      34.160 -17.124 -25.146  0.00  0.00    -0.002 C 
ATOM      5  C   UNL     1      34.759 -16.038 -22.647  0.00  0.00    +0.004 C 
ATOM      6  C   UNL     1      34.490 -17.963 -24.082  0.00  0.00    +0.004 C 
ENDROOT
BRANCH   2   9
ATOM      7  O   UNL     1      36.042 -17.959 -20.948  0.00  0.00    -0.270 OA
ATOM      8  N   UNL     1      34.364 -19.462 -21.605  0.00  0.00    -0.279 N 
ATOM      9  C   UNL     1      35.131 -18.295 -21.722  0.00  0.00    +0.250 C 
ATOM     10  H   UNL     1      33.675 -19.592 -22.296  0.00  0.00    +0.155 HD
BRANCH   8  12
ATOM     11  F   UNL     1      34.776 -23.422 -17.771  0.00  0.00    -0.204 F 
ATOM     12  C   UNL     1      34.450 -20.479 -20.622  0.00  0.00    +0.064 C 
ATOM     13  C   UNL     1      33.302 -21.082 -20.136  0.00  0.00    +0.057 C 
ATOM     14  C   UNL     1      35.706 -20.846 -20.165  0.00  0.00    +0.018 C 
ATOM     15  C   UNL     1      33.412 -22.081 -19.169  0.00  0.00    +0.045 C 
ATOM     16  C   UNL     1      35.816 -21.845 -19.199  0.00  0.00    +0.031 C 
ATOM     17  C   UNL     1      34.669 -22.462 -18.699  0.00  0.00    +0.141 C 
BRANCH  13  18
ATOM     18  N   UNL     1      32.019 -20.713 -20.597  0.00  0.00    -0.356 N 
ATOM     19  H   UNL     1      31.790 -19.761 -20.703  0.00  0.00    +0.142 HD
ATOM     20  H   UNL     1      31.354 -21.406 -20.813  0.00  0.00    +0.142 HD
ENDBRANCH  13  18
ENDBRANCH   8  12
ENDBRANCH   2   9
BRANCH   1  21
ATOM     21  C   UNL     1      33.777 -14.846 -26.100  0.00  0.00    +0.117 C 
BRANCH  21  23
ATOM     22  O   UNL     1      34.109 -12.441 -27.681  0.00  0.00    -0.270 OA
ATOM     23  N   UNL     1      33.574 -13.480 -25.672  0.00  0.00    -0.297 N 
ATOM     24  C   UNL     1      33.759 -12.391 -26.507  0.00  0.00    +0.246 C 
ATOM     25  H   UNL     1      33.290 -13.317 -24.743  0.00  0.00    +0.150 HD
BRANCH  24  26
ATOM     26  C   UNL     1      33.481 -11.104 -25.808  0.00  0.00    +0.058 C 
ATOM     27  C   UNL     1      34.425 -10.543 -25.039  0.00  0.00    +0.006 C 
BRANCH  27  29
ATOM     28  N   UNL     1      32.937  -7.905 -22.854  0.00  0.00    -0.242 NA
ATOM     29  C   UNL     1      34.264  -9.271 -24.312  0.00  0.00    +0.019 C 
ATOM     30  C   UNL     1      35.235  -8.295 -24.395  0.00  0.00    +0.003 C 
ATOM     31  C   UNL     1      33.146  -9.048 -23.545  0.00  0.00    +0.099 C 
ATOM     32  C   UNL     1      35.056  -7.105 -23.698  0.00  0.00    +0.021 C 
ATOM     33  C   UNL     1      33.900  -6.961 -22.949  0.00  0.00    +0.099 C 
ENDBRANCH  27  29
ENDBRANCH  24  26
ENDBRANCH  21  23
ENDBRANCH   1  21
TORSDOF 7
ENDMDL
MODEL 8
REMARK VINA RESULT:     -10.6      4.822     12.181
REMARK  Name = 12136798
REMARK  7 active torsions:
REMARK  status: ('A' for Active; 'I' for Inactive)
REMARK    1  A    between atoms: C_1  and  C_21
REMARK    2  A    between atoms: C_2  and  C_9
REMARK    3  A    between atoms: N_8  and  C_12
REMARK    4  A    between atoms: C_13  and  N_18
REMARK    5  A    between atoms: C_21  and  N_23
REMARK    6  A    between atoms: C_24  and  C_26
REMARK    7  A    between atoms: C_27  and  C_29
REMARK                            x       y       z     vdW  Elec       q    Type
REMARK                         _______ _______ _______ _____ _____    ______ ____
ROOT
ATOM      1  C   UNL     1      34.555 -15.512 -22.861  0.00  0.00    -0.003 C 
ATOM      2  C   UNL     1      33.054 -13.176 -22.740  0.00  0.00    +0.054 C 
ATOM      3  C   UNL     1      34.178 -15.000 -21.625  0.00  0.00    -0.002 C 
ATOM      4  C   UNL     1      34.190 -14.868 -24.037  0.00  0.00    -0.002 C 
ATOM      5  C   UNL     1      33.425 -13.828 -21.564  0.00  0.00    +0.004 C 
ATOM      6  C   UNL     1      33.436 -13.696 -23.976  0.00  0.00    +0.004 C 
ENDROOT
BRANCH   2   9
ATOM      7  O   UNL     1      31.155 -11.978 -22.132  0.00  0.00    -0.270 OA
ATOM      8  N   UNL     1      32.870 -10.813 -23.231  0.00  0.00    -0.279 N 
ATOM      9  C   UNL     1      32.270 -11.952 -22.677  0.00  0.00    +0.250 C 
ATOM     10  H   UNL     1      33.760 -10.949 -23.629  0.00  0.00    +0.155 HD
BRANCH   8  12
ATOM     11  F   UNL     1      30.904  -5.657 -23.551  0.00  0.00    -0.204 F 
ATOM     12  C   UNL     1      32.363  -9.491 -23.293  0.00  0.00    +0.064 C 
ATOM     13  C   UNL     1      31.918  -8.857 -22.145  0.00  0.00    +0.057 C 
ATOM     14  C   UNL     1      32.325  -8.861 -24.527  0.00  0.00    +0.018 C 
ATOM     15  C   UNL     1      31.423  -7.556 -22.232  0.00  0.00    +0.045 C 
ATOM     16  C   UNL     1      31.831  -7.560 -24.613  0.00  0.00    +0.031 C 
ATOM     17  C   UNL     1      31.379  -6.907 -23.467  0.00  0.00    +0.141 C 
BRANCH  13  18
ATOM     18  N   UNL     1      31.953  -9.494 -20.885  0.00  0.00    -0.356 N 
ATOM     19  H   UNL     1      31.264  -9.290 -20.212  0.00  0.00    +0.142 HD
ATOM     20  H   UNL     1      32.665 -10.143 -20.680  0.00  0.00    +0.142 HD
ENDBRANCH  13  18
ENDBRANCH   8  12
ENDBRANCH   2   9
BRANCH   1  21
ATOM     21  C   UNL     1      35.365 -16.774 -22.927  0.00  0.00    +0.117 C 
BRANCH  21  23
ATOM     22  O   UNL     1      34.918 -19.604 -23.361  0.00  0.00    -0.270 OA
ATOM     23  N   UNL     1      34.927 -17.752 -21.956  0.00  0.00    -0.297 N 
ATOM     24  C   UNL     1      34.741 -19.090 -22.261  0.00  0.00    +0.246 C 
ATOM     25  H   UNL     1      34.752 -17.452 -21.034  0.00  0.00    +0.150 HD
BRANCH  24  26
ATOM     26  C   UNL     1      34.286 -19.870 -21.076  0.00  0.00    +0.058 C 
ATOM     27  C   UNL     1      35.032 -20.886 -20.617  0.00  0.00    +0.006 C 
BRANCH  27  29
ATOM     28  N   UNL     1      35.383 -22.766 -17.409  0.00  0.00    -0.242 NA
ATOM     29  C   UNL     1      34.685 -21.716 -19.449  0.00  0.00    +0.019 C 
ATOM     30  C   UNL     1      33.403 -22.202 -19.298  0.00  0.00    +0.003 C 
ATOM     31  C   UNL     1      35.636 -22.011 -18.503  0.00  0.00    +0.099 C 
ATOM     32  C   UNL     1      33.105 -22.982 -18.187  0.00  0.00    +0.021 C 
ATOM     33  C   UNL     1      34.121 -23.233 -17.280  0.00  0.00    +0.099 C 
ENDBRANCH  27  29
ENDBRANCH  24  26
ENDBRANCH  21  23
ENDBRANCH   1  21
TORSDOF 7
ENDMDL
MODEL 9
REMARK VINA RESULT:     -10.5      4.530      7.329
REMARK  Name = 12136798
REMARK  7 active torsions:
REMARK  status: ('A' for Active; 'I' for Inactive)
REMARK    1  A    between atoms: C_1  and  C_21
REMARK    2  A    between atoms: C_2  and  C_9
REMARK    3  A    between atoms: N_8  and  C_12
REMARK    4  A    between atoms: C_13  and  N_18
REMARK    5  A    between atoms: C_21  and  N_23
REMARK    6  A    between atoms: C_24  and  C_26
REMARK    7  A    between atoms: C_27  and  C_29
REMARK                            x       y       z     vdW  Elec       q    Type
REMARK                         _______ _______ _______ _____ _____    ______ ____
ROOT
ATOM      1  C   UNL     1      33.778 -14.126 -25.268  0.00  0.00    -0.003 C 
ATOM      2  C   UNL     1      34.393 -15.828 -23.159  0.00  0.00    +0.054 C 
ATOM      3  C   UNL     1      34.002 -13.599 -24.002  0.00  0.00    -0.002 C 
ATOM      4  C   UNL     1      33.857 -15.495 -25.491  0.00  0.00    -0.002 C 
ATOM      5  C   UNL     1      34.312 -14.453 -22.944  0.00  0.00    +0.004 C 
ATOM      6  C   UNL     1      34.166 -16.350 -24.433  0.00  0.00    +0.004 C 
ENDROOT
BRANCH   2   9
ATOM      7  O   UNL     1      34.841 -16.246 -20.915  0.00  0.00    -0.270 OA
ATOM      8  N   UNL     1      34.828 -18.078 -22.381  0.00  0.00    -0.279 N 
ATOM      9  C   UNL     1      34.714 -16.720 -22.055  0.00  0.00    +0.250 C 
ATOM     10  H   UNL     1      34.700 -18.303 -23.331  0.00  0.00    +0.155 HD
BRANCH   8  12
ATOM     11  F   UNL     1      35.834 -22.356 -19.027  0.00  0.00    -0.204 F 
ATOM     12  C   UNL     1      35.105 -19.170 -21.522  0.00  0.00    +0.064 C 
ATOM     13  C   UNL     1      36.409 -19.459 -21.154  0.00  0.00    +0.057 C 
ATOM     14  C   UNL     1      34.042 -19.934 -21.067  0.00  0.00    +0.018 C 
ATOM     15  C   UNL     1      36.657 -20.540 -20.307  0.00  0.00    +0.045 C 
ATOM     16  C   UNL     1      34.290 -21.014 -20.221  0.00  0.00    +0.031 C 
ATOM     17  C   UNL     1      35.597 -21.318 -19.841  0.00  0.00    +0.141 C 
BRANCH  13  18
ATOM     18  N   UNL     1      37.497 -18.685 -21.614  0.00  0.00    -0.356 N 
ATOM     19  H   UNL     1      37.392 -17.715 -21.741  0.00  0.00    +0.142 HD
ATOM     20  H   UNL     1      38.362 -19.116 -21.805  0.00  0.00    +0.142 HD
ENDBRANCH  13  18
ENDBRANCH   8  12
ENDBRANCH   2   9
BRANCH   1  21
ATOM     21  C   UNL     1      33.446 -13.207 -26.408  0.00  0.00    +0.117 C 
BRANCH  21  23
ATOM     22  O   UNL     1      35.184 -11.275 -27.690  0.00  0.00    -0.270 OA
ATOM     23  N   UNL     1      33.624 -11.816 -26.053  0.00  0.00    -0.297 N 
ATOM     24  C   UNL     1      34.483 -10.968 -26.731  0.00  0.00    +0.246 C 
ATOM     25  H   UNL     1      33.110 -11.457 -25.294  0.00  0.00    +0.150 HD
BRANCH  24  26
ATOM     26  C   UNL     1      34.472  -9.593 -26.155  0.00  0.00    +0.058 C 
ATOM     27  C   UNL     1      33.365  -9.127 -25.557  0.00  0.00    +0.006 C 
BRANCH  27  29
ATOM     28  N   UNL     1      32.011  -6.293 -23.537  0.00  0.00    -0.242 NA
ATOM     29  C   UNL     1      33.245  -7.792 -24.945  0.00  0.00    +0.019 C 
ATOM     30  C   UNL     1      34.201  -6.828 -25.187  0.00  0.00    +0.003 C 
ATOM     31  C   UNL     1      32.180  -7.497 -24.129  0.00  0.00    +0.099 C 
ATOM     32  C   UNL     1      34.062  -5.577 -24.596  0.00  0.00    +0.021 C 
ATOM     33  C   UNL     1      32.959  -5.362 -23.787  0.00  0.00    +0.099 C 
ENDBRANCH  27  29
ENDBRANCH  24  26
ENDBRANCH  21  23
ENDBRANCH   1  21
TORSDOF 7
ENDMDL
