MODEL 1
REMARK VINA RESULT:     -12.3      0.000      0.000
REMARK  Name = 17748441
REMARK  5 active torsions:
REMARK  status: ('A' for Active; 'I' for Inactive)
REMARK    1  A    between atoms: C_2  and  N_10
REMARK    2  A    between atoms: C_3  and  O_24
REMARK    3  A    between atoms: C_12  and  C_16
REMARK    4  A    between atoms: C_16  and  C_18
REMARK    5  A    between atoms: O_24  and  C_27
REMARK                            x       y       z     vdW  Elec       q    Type
REMARK                         _______ _______ _______ _____ _____    ______ ____
ROOT
ATOM      1  F   UNL     1      36.457 -22.420 -18.971  0.00  0.00    -0.201 F 
ATOM      2  C   UNL     1      34.369 -20.050 -20.775  0.00  0.00    +0.054 C 
ATOM      3  C   UNL     1      34.110 -22.416 -19.320  0.00  0.00    +0.173 C 
ATOM      4  C   UNL     1      35.498 -20.658 -20.225  0.00  0.00    +0.047 C 
ATOM      5  C   UNL     1      33.111 -20.626 -20.597  0.00  0.00    +0.018 C 
ATOM      6  C   UNL     1      35.368 -21.841 -19.497  0.00  0.00    +0.176 C 
ATOM      7  C   UNL     1      32.982 -21.809 -19.870  0.00  0.00    +0.041 C 
ENDROOT
BRANCH   2  10
ATOM      8  O   UNL     1      34.578 -17.476 -25.563  0.00  0.00    -0.274 OA
ATOM      9  O   UNL     1      34.358 -19.582 -23.741  0.00  0.00    -0.252 OA
ATOM     10  N   UNL     1      34.500 -18.850 -21.513  0.00  0.00    -0.268 N 
ATOM     11  N   UNL     1      34.648 -17.333 -23.236  0.00  0.00    -0.239 N 
ATOM     12  C   UNL     1      34.683 -16.815 -24.533  0.00  0.00    +0.234 C 
ATOM     13  C   UNL     1      34.487 -18.693 -22.903  0.00  0.00    +0.310 C 
ATOM     14  H   UNL     1      34.615 -18.027 -20.984  0.00  0.00    +0.156 HD
ATOM     15  H   UNL     1      34.744 -16.695 -22.492  0.00  0.00    +0.159 HD
BRANCH  12  16
ATOM     16  C   UNL     1      34.870 -15.310 -24.519  0.00  0.00    +0.112 C 
BRANCH  16  18
ATOM     17  F   UNL     1      31.862 -12.726 -20.516  0.00  0.00    -0.204 F 
ATOM     18  C   UNL     1      34.067 -14.619 -23.449  0.00  0.00    -0.013 C 
ATOM     19  C   UNL     1      34.403 -14.788 -22.107  0.00  0.00    -0.001 C 
ATOM     20  C   UNL     1      32.985 -13.810 -23.801  0.00  0.00    -0.001 C 
ATOM     21  C   UNL     1      33.658 -14.148 -21.115  0.00  0.00    +0.029 C 
ATOM     22  C   UNL     1      32.240 -13.172 -22.810  0.00  0.00    +0.029 C 
ATOM     23  C   UNL     1      32.577 -13.340 -21.467  0.00  0.00    +0.140 C 
ENDBRANCH  16  18
ENDBRANCH  12  16
ENDBRANCH   2  10
BRANCH   3  24
ATOM     24  O   UNL     1      33.984 -23.572 -18.611  0.00  0.00    -0.451 OA
BRANCH  24  27
ATOM     25  N   UNL     1      32.480 -23.308 -14.720  0.00  0.00    -0.229 NA
ATOM     26  N   UNL     1      34.702 -23.445 -13.869  0.00  0.00    -0.343 N 
ATOM     27  C   UNL     1      33.486 -23.485 -17.322  0.00  0.00    +0.150 C 
ATOM     28  C   UNL     1      34.353 -23.509 -16.235  0.00  0.00    +0.071 C 
ATOM     29  C   UNL     1      32.117 -23.372 -17.109  0.00  0.00    +0.058 C 
ATOM     30  C   UNL     1      33.805 -23.418 -14.966  0.00  0.00    +0.128 C 
ATOM     31  C   UNL     1      31.668 -23.288 -15.801  0.00  0.00    +0.103 C 
ATOM     32  H   UNL     1      34.356 -23.383 -12.949  0.00  0.00    +0.144 HD
ATOM     33  H   UNL     1      35.670 -23.525 -14.027  0.00  0.00    +0.144 HD
ENDBRANCH  24  27
ENDBRANCH   3  24
TORSDOF 5
ENDMDL
MODEL 2
REMARK VINA RESULT:     -12.0      2.983      4.116
REMARK  Name = 17748441
REMARK  5 active torsions:
REMARK  status: ('A' for Active; 'I' for Inactive)
REMARK    1  A    between atoms: C_2  and  N_10
REMARK    2  A    between atoms: C_3  and  O_24
REMARK    3  A    between atoms: C_12  and  C_16
REMARK    4  A    between atoms: C_16  and  C_18
REMARK    5  A    between atoms: O_24  and  C_27
REMARK                            x       y       z     vdW  Elec       q    Type
REMARK                         _______ _______ _______ _____ _____    ______ ____
ROOT
ATOM      1  F   UNL     1      33.998 -23.881 -16.630  0.00  0.00    -0.201 F 
ATOM      2  C   UNL     1      36.020 -21.508 -18.502  0.00  0.00    +0.054 C 
ATOM      3  C   UNL     1      36.090 -22.902 -16.087  0.00  0.00    +0.173 C 
ATOM      4  C   UNL     1      34.973 -22.362 -18.160  0.00  0.00    +0.047 C 
ATOM      5  C   UNL     1      37.103 -21.350 -17.637  0.00  0.00    +0.018 C 
ATOM      6  C   UNL     1      35.008 -23.060 -16.952  0.00  0.00    +0.176 C 
ATOM      7  C   UNL     1      37.137 -22.047 -16.429  0.00  0.00    +0.041 C 
ENDROOT
BRANCH   2  10
ATOM      8  O   UNL     1      33.203 -19.569 -22.733  0.00  0.00    -0.274 OA
ATOM      9  O   UNL     1      33.714 -20.879 -20.319  0.00  0.00    -0.252 OA
ATOM     10  N   UNL     1      35.985 -20.800 -19.727  0.00  0.00    -0.268 N 
ATOM     11  N   UNL     1      35.266 -19.801 -21.670  0.00  0.00    -0.239 N 
ATOM     12  C   UNL     1      34.414 -19.368 -22.689  0.00  0.00    +0.234 C 
ATOM     13  C   UNL     1      34.874 -20.537 -20.534  0.00  0.00    +0.310 C 
ATOM     14  H   UNL     1      36.849 -20.452 -20.050  0.00  0.00    +0.156 HD
ATOM     15  H   UNL     1      36.221 -19.574 -21.753  0.00  0.00    +0.159 HD
BRANCH  12  16
ATOM     16  C   UNL     1      35.176 -18.605 -23.756  0.00  0.00    +0.112 C 
BRANCH  16  18
ATOM     17  F   UNL     1      33.529 -13.240 -24.264  0.00  0.00    -0.204 F 
ATOM     18  C   UNL     1      34.736 -17.171 -23.892  0.00  0.00    -0.013 C 
ATOM     19  C   UNL     1      34.914 -16.283 -22.831  0.00  0.00    -0.001 C 
ATOM     20  C   UNL     1      34.150 -16.730 -25.079  0.00  0.00    -0.001 C 
ATOM     21  C   UNL     1      34.507 -14.955 -22.957  0.00  0.00    +0.029 C 
ATOM     22  C   UNL     1      33.741 -15.402 -25.204  0.00  0.00    +0.029 C 
ATOM     23  C   UNL     1      33.920 -14.514 -24.143  0.00  0.00    +0.140 C 
ENDBRANCH  16  18
ENDBRANCH  12  16
ENDBRANCH   2  10
BRANCH   3  24
ATOM     24  O   UNL     1      36.124 -23.580 -14.908  0.00  0.00    -0.451 OA
BRANCH  24  27
ATOM     25  N   UNL     1      38.102 -27.262 -14.839  0.00  0.00    -0.229 NA
ATOM     26  N   UNL     1      40.124 -26.147 -14.252  0.00  0.00    -0.343 N 
ATOM     27  C   UNL     1      36.779 -24.800 -14.885  0.00  0.00    +0.150 C 
ATOM     28  C   UNL     1      38.134 -24.859 -14.578  0.00  0.00    +0.071 C 
ATOM     29  C   UNL     1      36.086 -25.970 -15.170  0.00  0.00    +0.058 C 
ATOM     30  C   UNL     1      38.743 -26.104 -14.568  0.00  0.00    +0.128 C 
ATOM     31  C   UNL     1      36.786 -27.165 -15.134  0.00  0.00    +0.103 C 
ATOM     32  H   UNL     1      40.598 -27.009 -14.234  0.00  0.00    +0.144 HD
ATOM     33  H   UNL     1      40.610 -25.314 -14.052  0.00  0.00    +0.144 HD
ENDBRANCH  24  27
ENDBRANCH   3  24
TORSDOF 5
ENDMDL
MODEL 3
REMARK VINA RESULT:     -11.9      4.041     10.813
REMARK  Name = 17748441
REMARK  5 active torsions:
REMARK  status: ('A' for Active; 'I' for Inactive)
REMARK    1  A    between atoms: C_2  and  N_10
REMARK    2  A    between atoms: C_3  and  O_24
REMARK    3  A    between atoms: C_12  and  C_16
REMARK    4  A    between atoms: C_16  and  C_18
REMARK    5  A    between atoms: O_24  and  C_27
REMARK                            x       y       z     vdW  Elec       q    Type
REMARK                         _______ _______ _______ _____ _____    ______ ____
ROOT
ATOM      1  F   UNL     1      30.799 -11.969 -20.557  0.00  0.00    -0.201 F 
ATOM      2  C   UNL     1      33.492 -13.971 -21.960  0.00  0.00    +0.054 C 
ATOM      3  C   UNL     1      32.073 -11.639 -22.532  0.00  0.00    +0.173 C 
ATOM      4  C   UNL     1      32.479 -13.543 -21.101  0.00  0.00    +0.047 C 
ATOM      5  C   UNL     1      33.794 -13.233 -23.104  0.00  0.00    +0.018 C 
ATOM      6  C   UNL     1      31.770 -12.376 -21.387  0.00  0.00    +0.176 C 
ATOM      7  C   UNL     1      33.084 -12.068 -23.390  0.00  0.00    +0.041 C 
ENDROOT
BRANCH   2  10
ATOM      8  O   UNL     1      35.775 -18.614 -23.640  0.00  0.00    -0.274 OA
ATOM      9  O   UNL     1      34.393 -16.191 -23.771  0.00  0.00    -0.252 OA
ATOM     10  N   UNL     1      34.212 -15.155 -21.671  0.00  0.00    -0.268 N 
ATOM     11  N   UNL     1      35.304 -17.169 -21.871  0.00  0.00    -0.239 N 
ATOM     12  C   UNL     1      35.840 -18.323 -22.449  0.00  0.00    +0.234 C 
ATOM     13  C   UNL     1      34.605 -16.158 -22.561  0.00  0.00    +0.310 C 
ATOM     14  H   UNL     1      34.465 -15.287 -20.728  0.00  0.00    +0.156 HD
ATOM     15  H   UNL     1      35.424 -17.052 -20.901  0.00  0.00    +0.159 HD
BRANCH  12  16
ATOM     16  C   UNL     1      36.525 -19.191 -21.410  0.00  0.00    +0.112 C 
BRANCH  16  18
ATOM     17  F   UNL     1      33.031 -22.816 -18.879  0.00  0.00    -0.204 F 
ATOM     18  C   UNL     1      35.591 -20.160 -20.734  0.00  0.00    -0.013 C 
ATOM     19  C   UNL     1      34.216 -20.068 -20.948  0.00  0.00    -0.001 C 
ATOM     20  C   UNL     1      36.101 -21.150 -19.893  0.00  0.00    -0.001 C 
ATOM     21  C   UNL     1      33.351 -20.966 -20.321  0.00  0.00    +0.029 C 
ATOM     22  C   UNL     1      35.236 -22.046 -19.266  0.00  0.00    +0.029 C 
ATOM     23  C   UNL     1      33.861 -21.955 -19.480  0.00  0.00    +0.140 C 
ENDBRANCH  16  18
ENDBRANCH  12  16
ENDBRANCH   2  10
BRANCH   3  24
ATOM     24  O   UNL     1      31.379 -10.502 -22.812  0.00  0.00    -0.451 OA
BRANCH  24  27
ATOM     25  N   UNL     1      33.374  -6.854 -22.378  0.00  0.00    -0.229 NA
ATOM     26  N   UNL     1      33.221  -7.070 -20.010  0.00  0.00    -0.343 N 
ATOM     27  C   UNL     1      32.039  -9.293 -22.668  0.00  0.00    +0.150 C 
ATOM     28  C   UNL     1      32.300  -8.786 -21.400  0.00  0.00    +0.071 C 
ATOM     29  C   UNL     1      32.446  -8.582 -23.791  0.00  0.00    +0.058 C 
ATOM     30  C   UNL     1      32.964  -7.573 -21.310  0.00  0.00    +0.128 C 
ATOM     31  C   UNL     1      33.104  -7.378 -23.595  0.00  0.00    +0.103 C 
ATOM     32  H   UNL     1      33.691  -6.212 -19.899  0.00  0.00    +0.144 HD
ATOM     33  H   UNL     1      32.931  -7.579 -19.219  0.00  0.00    +0.144 HD
ENDBRANCH  24  27
ENDBRANCH   3  24
TORSDOF 5
ENDMDL
MODEL 4
REMARK VINA RESULT:     -11.9      3.077      9.489
REMARK  Name = 17748441
REMARK  5 active torsions:
REMARK  status: ('A' for Active; 'I' for Inactive)
REMARK    1  A    between atoms: C_2  and  N_10
REMARK    2  A    between atoms: C_3  and  O_24
REMARK    3  A    between atoms: C_12  and  C_16
REMARK    4  A    between atoms: C_16  and  C_18
REMARK    5  A    between atoms: O_24  and  C_27
REMARK                            x       y       z     vdW  Elec       q    Type
REMARK                         _______ _______ _______ _____ _____    ______ ____
ROOT
ATOM      1  F   UNL     1      36.874 -21.572 -20.137  0.00  0.00    -0.201 F 
ATOM      2  C   UNL     1      33.342 -21.803 -19.300  0.00  0.00    +0.054 C 
ATOM      3  C   UNL     1      35.021 -20.370 -21.005  0.00  0.00    +0.173 C 
ATOM      4  C   UNL     1      34.716 -22.047 -19.294  0.00  0.00    +0.047 C 
ATOM      5  C   UNL     1      32.809 -20.842 -20.158  0.00  0.00    +0.018 C 
ATOM      6  C   UNL     1      35.555 -21.331 -20.147  0.00  0.00    +0.176 C 
ATOM      7  C   UNL     1      33.649 -20.125 -21.011  0.00  0.00    +0.041 C 
ENDROOT
BRANCH   2  10
ATOM      8  O   UNL     1      32.601 -24.618 -14.704  0.00  0.00    -0.274 OA
ATOM      9  O   UNL     1      33.918 -23.135 -16.671  0.00  0.00    -0.252 OA
ATOM     10  N   UNL     1      32.490 -22.529 -18.435  0.00  0.00    -0.268 N 
ATOM     11  N   UNL     1      31.680 -23.757 -16.666  0.00  0.00    -0.239 N 
ATOM     12  C   UNL     1      31.644 -24.455 -15.456  0.00  0.00    +0.234 C 
ATOM     13  C   UNL     1      32.817 -23.131 -17.215  0.00  0.00    +0.310 C 
ATOM     14  H   UNL     1      31.555 -22.623 -18.728  0.00  0.00    +0.156 HD
ATOM     15  H   UNL     1      30.841 -23.698 -17.179  0.00  0.00    +0.159 HD
BRANCH  12  16
ATOM     16  C   UNL     1      30.256 -24.999 -15.176  0.00  0.00    +0.112 C 
BRANCH  16  18
ATOM     17  F   UNL     1      26.138 -21.864 -17.406  0.00  0.00    -0.204 F 
ATOM     18  C   UNL     1      29.156 -24.161 -15.773  0.00  0.00    -0.013 C 
ATOM     19  C   UNL     1      28.814 -22.942 -15.188  0.00  0.00    -0.001 C 
ATOM     20  C   UNL     1      28.478 -24.604 -16.909  0.00  0.00    -0.001 C 
ATOM     21  C   UNL     1      27.794 -22.166 -15.740  0.00  0.00    +0.029 C 
ATOM     22  C   UNL     1      27.458 -23.829 -17.460  0.00  0.00    +0.029 C 
ATOM     23  C   UNL     1      27.117 -22.609 -16.876  0.00  0.00    +0.140 C 
ENDBRANCH  16  18
ENDBRANCH  12  16
ENDBRANCH   2  10
BRANCH   3  24
ATOM     24  O   UNL     1      35.841 -19.669 -21.836  0.00  0.00    -0.451 OA
BRANCH  24  27
ATOM     25  N   UNL     1      34.060 -17.387 -24.851  0.00  0.00    -0.229 NA
ATOM     26  N   UNL     1      34.719 -15.399 -23.715  0.00  0.00    -0.343 N 
ATOM     27  C   UNL     1      35.251 -18.913 -22.835  0.00  0.00    +0.150 C 
ATOM     28  C   UNL     1      35.283 -17.524 -22.771  0.00  0.00    +0.071 C 
ATOM     29  C   UNL     1      34.624 -19.539 -23.906  0.00  0.00    +0.058 C 
ATOM     30  C   UNL     1      34.678 -16.814 -23.795  0.00  0.00    +0.128 C 
ATOM     31  C   UNL     1      34.049 -18.738 -24.880  0.00  0.00    +0.103 C 
ATOM     32  H   UNL     1      34.302 -14.854 -24.421  0.00  0.00    +0.144 HD
ATOM     33  H   UNL     1      35.165 -14.962 -22.954  0.00  0.00    +0.144 HD
ENDBRANCH  24  27
ENDBRANCH   3  24
TORSDOF 5
ENDMDL
MODEL 5
REMARK VINA RESULT:     -11.7      4.020      5.363
REMARK  Name = 17748441
REMARK  5 active torsions:
REMARK  status: ('A' for Active; 'I' for Inactive)
REMARK    1  A    between atoms: C_2  and  N_10
REMARK    2  A    between atoms: C_3  and  O_24
REMARK    3  A    between atoms: C_12  and  C_16
REMARK    4  A    between atoms: C_16  and  C_18
REMARK    5  A    between atoms: O_24  and  C_27
REMARK                            x       y       z     vdW  Elec       q    Type
REMARK                         _______ _______ _______ _____ _____    ______ ____
ROOT
ATOM      1  F   UNL     1      34.977 -20.044 -24.198  0.00  0.00    -0.201 F 
ATOM      2  C   UNL     1      34.951 -16.518 -23.306  0.00  0.00    +0.054 C 
ATOM      3  C   UNL     1      35.317 -19.003 -22.093  0.00  0.00    +0.173 C 
ATOM      4  C   UNL     1      34.871 -17.684 -24.067  0.00  0.00    +0.047 C 
ATOM      5  C   UNL     1      35.214 -16.595 -21.938  0.00  0.00    +0.018 C 
ATOM      6  C   UNL     1      35.054 -18.927 -23.460  0.00  0.00    +0.176 C 
ATOM      7  C   UNL     1      35.397 -17.838 -21.332  0.00  0.00    +0.041 C 
ENDROOT
BRANCH   2  10
ATOM      8  O   UNL     1      32.882 -11.488 -23.183  0.00  0.00    -0.274 OA
ATOM      9  O   UNL     1      33.485 -14.082 -22.340  0.00  0.00    -0.252 OA
ATOM     10  N   UNL     1      34.765 -15.257 -23.920  0.00  0.00    -0.268 N 
ATOM     11  N   UNL     1      34.119 -13.091 -24.342  0.00  0.00    -0.239 N 
ATOM     12  C   UNL     1      33.528 -11.836 -24.168  0.00  0.00    +0.234 C 
ATOM     13  C   UNL     1      34.068 -14.154 -23.419  0.00  0.00    +0.310 C 
ATOM     14  H   UNL     1      35.176 -15.144 -24.808  0.00  0.00    +0.156 HD
ATOM     15  H   UNL     1      34.612 -13.245 -25.181  0.00  0.00    +0.159 HD
BRANCH  12  16
ATOM     16  C   UNL     1      33.783 -10.937 -25.363  0.00  0.00    +0.112 C 
BRANCH  16  18
ATOM     17  F   UNL     1      34.137  -5.479 -24.012  0.00  0.00    -0.204 F 
ATOM     18  C   UNL     1      33.878  -9.478 -25.003  0.00  0.00    -0.013 C 
ATOM     19  C   UNL     1      35.042  -8.979 -24.420  0.00  0.00    -0.001 C 
ATOM     20  C   UNL     1      32.801  -8.626 -25.250  0.00  0.00    -0.001 C 
ATOM     21  C   UNL     1      35.130  -7.627 -24.086  0.00  0.00    +0.029 C 
ATOM     22  C   UNL     1      32.888  -7.276 -24.915  0.00  0.00    +0.029 C 
ATOM     23  C   UNL     1      34.053  -6.775 -24.333  0.00  0.00    +0.140 C 
ENDBRANCH  16  18
ENDBRANCH  12  16
ENDBRANCH   2  10
BRANCH   3  24
ATOM     24  O   UNL     1      35.494 -20.216 -21.500  0.00  0.00    -0.451 OA
BRANCH  24  27
ATOM     25  N   UNL     1      32.361 -21.715 -19.176  0.00  0.00    -0.229 NA
ATOM     26  N   UNL     1      33.916 -23.066 -17.978  0.00  0.00    -0.343 N 
ATOM     27  C   UNL     1      34.456 -20.713 -20.730  0.00  0.00    +0.150 C 
ATOM     28  C   UNL     1      34.712 -21.648 -19.733  0.00  0.00    +0.071 C 
ATOM     29  C   UNL     1      33.154 -20.279 -20.950  0.00  0.00    +0.058 C 
ATOM     30  C   UNL     1      33.639 -22.114 -18.990  0.00  0.00    +0.128 C 
ATOM     31  C   UNL     1      32.150 -20.806 -20.153  0.00  0.00    +0.103 C 
ATOM     32  H   UNL     1      33.184 -23.424 -17.425  0.00  0.00    +0.144 HD
ATOM     33  H   UNL     1      34.841 -23.369 -17.827  0.00  0.00    +0.144 HD
ENDBRANCH  24  27
ENDBRANCH   3  24
TORSDOF 5
ENDMDL
MODEL 6
REMARK VINA RESULT:     -11.6      4.221      6.667
REMARK  Name = 17748441
REMARK  5 active torsions:
REMARK  status: ('A' for Active; 'I' for Inactive)
REMARK    1  A    between atoms: C_2  and  N_10
REMARK    2  A    between atoms: C_3  and  O_24
REMARK    3  A    between atoms: C_12  and  C_16
REMARK    4  A    between atoms: C_16  and  C_18
REMARK    5  A    between atoms: O_24  and  C_27
REMARK                            x       y       z     vdW  Elec       q    Type
REMARK                         _______ _______ _______ _____ _____    ______ ____
ROOT
ATOM      1  F   UNL     1      34.943 -17.397 -25.221  0.00  0.00    -0.201 F 
ATOM      2  C   UNL     1      33.952 -14.737 -22.947  0.00  0.00    +0.054 C 
ATOM      3  C   UNL     1      35.202 -17.229 -22.869  0.00  0.00    +0.173 C 
ATOM      4  C   UNL     1      34.139 -15.461 -24.125  0.00  0.00    +0.047 C 
ATOM      5  C   UNL     1      34.390 -15.260 -21.731  0.00  0.00    +0.018 C 
ATOM      6  C   UNL     1      34.765 -16.707 -24.086  0.00  0.00    +0.176 C 
ATOM      7  C   UNL     1      35.015 -16.507 -21.692  0.00  0.00    +0.041 C 
ENDROOT
BRANCH   2  10
ATOM      8  O   UNL     1      30.496 -11.143 -20.773  0.00  0.00    -0.274 OA
ATOM      9  O   UNL     1      31.955 -13.506 -21.073  0.00  0.00    -0.252 OA
ATOM     10  N   UNL     1      33.318 -13.473 -22.986  0.00  0.00    -0.268 N 
ATOM     11  N   UNL     1      32.000 -11.658 -22.480  0.00  0.00    -0.239 N 
ATOM     12  C   UNL     1      31.085 -10.842 -21.807  0.00  0.00    +0.234 C 
ATOM     13  C   UNL     1      32.390 -12.951 -22.080  0.00  0.00    +0.310 C 
ATOM     14  H   UNL     1      33.559 -12.892 -23.744  0.00  0.00    +0.156 HD
ATOM     15  H   UNL     1      32.405 -11.298 -23.302  0.00  0.00    +0.159 HD
BRANCH  12  16
ATOM     16  C   UNL     1      30.903  -9.516 -22.521  0.00  0.00    +0.112 C 
BRANCH  16  18
ATOM     17  F   UNL     1      35.769  -7.060 -23.948  0.00  0.00    -0.204 F 
ATOM     18  C   UNL     1      32.204  -8.860 -22.902  0.00  0.00    -0.013 C 
ATOM     19  C   UNL     1      32.775  -7.905 -22.062  0.00  0.00    -0.001 C 
ATOM     20  C   UNL     1      32.837  -9.207 -24.096  0.00  0.00    -0.001 C 
ATOM     21  C   UNL     1      33.980  -7.297 -22.415  0.00  0.00    +0.029 C 
ATOM     22  C   UNL     1      34.041  -8.598 -24.449  0.00  0.00    +0.029 C 
ATOM     23  C   UNL     1      34.613  -7.644 -23.609  0.00  0.00    +0.140 C 
ENDBRANCH  16  18
ENDBRANCH  12  16
ENDBRANCH   2  10
BRANCH   3  24
ATOM     24  O   UNL     1      35.811 -18.447 -22.830  0.00  0.00    -0.451 OA
BRANCH  24  27
ATOM     25  N   UNL     1      34.541 -21.163 -19.918  0.00  0.00    -0.229 NA
ATOM     26  N   UNL     1      32.284 -20.814 -20.599  0.00  0.00    -0.343 N 
ATOM     27  C   UNL     1      35.390 -19.346 -21.865  0.00  0.00    +0.150 C 
ATOM     28  C   UNL     1      34.036 -19.629 -21.717  0.00  0.00    +0.071 C 
ATOM     29  C   UNL     1      36.318 -19.971 -21.041  0.00  0.00    +0.058 C 
ATOM     30  C   UNL     1      33.667 -20.537 -20.737  0.00  0.00    +0.128 C 
ATOM     31  C   UNL     1      35.848 -20.863 -20.091  0.00  0.00    +0.103 C 
ATOM     32  H   UNL     1      31.977 -21.453 -19.916  0.00  0.00    +0.144 HD
ATOM     33  H   UNL     1      31.631 -20.369 -21.186  0.00  0.00    +0.144 HD
ENDBRANCH  24  27
ENDBRANCH   3  24
TORSDOF 5
ENDMDL
MODEL 7
REMARK VINA RESULT:     -11.5      4.468     11.543
REMARK  Name = 17748441
REMARK  5 active torsions:
REMARK  status: ('A' for Active; 'I' for Inactive)
REMARK    1  A    between atoms: C_2  and  N_10
REMARK    2  A    between atoms: C_3  and  O_24
REMARK    3  A    between atoms: C_12  and  C_16
REMARK    4  A    between atoms: C_16  and  C_18
REMARK    5  A    between atoms: O_24  and  C_27
REMARK                            x       y       z     vdW  Elec       q    Type
REMARK                         _______ _______ _______ _____ _____    ______ ____
ROOT
ATOM      1  F   UNL     1      33.217 -11.966 -27.791  0.00  0.00    -0.201 F 
ATOM      2  C   UNL     1      33.946 -13.883 -24.787  0.00  0.00    +0.054 C 
ATOM      3  C   UNL     1      33.610 -11.227 -25.571  0.00  0.00    +0.173 C 
ATOM      4  C   UNL     1      33.660 -13.579 -26.118  0.00  0.00    +0.047 C 
ATOM      5  C   UNL     1      34.064 -12.858 -23.848  0.00  0.00    +0.018 C 
ATOM      6  C   UNL     1      33.492 -12.251 -26.510  0.00  0.00    +0.176 C 
ATOM      7  C   UNL     1      33.897 -11.530 -24.240  0.00  0.00    +0.041 C 
ENDROOT
BRANCH   2  10
ATOM      8  O   UNL     1      35.312 -17.523 -20.982  0.00  0.00    -0.274 OA
ATOM      9  O   UNL     1      34.846 -15.036 -22.164  0.00  0.00    -0.252 OA
ATOM     10  N   UNL     1      34.116 -15.230 -24.389  0.00  0.00    -0.268 N 
ATOM     11  N   UNL     1      34.578 -17.118 -23.159  0.00  0.00    -0.239 N 
ATOM     12  C   UNL     1      34.959 -17.929 -22.086  0.00  0.00    +0.234 C 
ATOM     13  C   UNL     1      34.541 -15.709 -23.146  0.00  0.00    +0.310 C 
ATOM     14  H   UNL     1      33.912 -15.911 -25.070  0.00  0.00    +0.156 HD
ATOM     15  H   UNL     1      34.315 -17.568 -23.995  0.00  0.00    +0.159 HD
BRANCH  12  16
ATOM     16  C   UNL     1      34.881 -19.399 -22.454  0.00  0.00    +0.112 C 
BRANCH  16  18
ATOM     17  F   UNL     1      33.719 -22.736 -18.065  0.00  0.00    -0.204 F 
ATOM     18  C   UNL     1      34.571 -20.291 -21.281  0.00  0.00    -0.013 C 
ATOM     19  C   UNL     1      33.250 -20.465 -20.869  0.00  0.00    -0.001 C 
ATOM     20  C   UNL     1      35.603 -20.943 -20.607  0.00  0.00    -0.001 C 
ATOM     21  C   UNL     1      32.962 -21.292 -19.782  0.00  0.00    +0.029 C 
ATOM     22  C   UNL     1      35.316 -21.768 -19.521  0.00  0.00    +0.029 C 
ATOM     23  C   UNL     1      33.995 -21.944 -19.108  0.00  0.00    +0.140 C 
ENDBRANCH  16  18
ENDBRANCH  12  16
ENDBRANCH   2  10
BRANCH   3  24
ATOM     24  O   UNL     1      33.449  -9.930 -25.953  0.00  0.00    -0.451 OA
BRANCH  24  27
ATOM     25  N   UNL     1      34.022  -6.967 -23.062  0.00  0.00    -0.229 NA
ATOM     26  N   UNL     1      31.706  -7.077 -22.512  0.00  0.00    -0.343 N 
ATOM     27  C   UNL     1      33.638  -8.948 -24.996  0.00  0.00    +0.150 C 
ATOM     28  C   UNL     1      32.567  -8.503 -24.230  0.00  0.00    +0.071 C 
ATOM     29  C   UNL     1      34.901  -8.404 -24.795  0.00  0.00    +0.058 C 
ATOM     30  C   UNL     1      32.809  -7.520 -23.285  0.00  0.00    +0.128 C 
ATOM     31  C   UNL     1      35.040  -7.425 -23.825  0.00  0.00    +0.103 C 
ATOM     32  H   UNL     1      31.832  -6.380 -21.829  0.00  0.00    +0.144 HD
ATOM     33  H   UNL     1      30.814  -7.467 -22.659  0.00  0.00    +0.144 HD
ENDBRANCH  24  27
ENDBRANCH   3  24
TORSDOF 5
ENDMDL
MODEL 8
REMARK VINA RESULT:     -11.4      2.607      3.785
REMARK  Name = 17748441
REMARK  5 active torsions:
REMARK  status: ('A' for Active; 'I' for Inactive)
REMARK    1  A    between atoms: C_2  and  N_10
REMARK    2  A    between atoms: C_3  and  O_24
REMARK    3  A    between atoms: C_12  and  C_16
REMARK    4  A    between atoms: C_16  and  C_18
REMARK    5  A    between atoms: O_24  and  C_27
REMARK                            x       y       z     vdW  Elec       q    Type
REMARK                         _______ _______ _______ _____ _____    ______ ____
ROOT
ATOM      1  F   UNL     1      32.189 -24.115 -16.871  0.00  0.00    -0.201 F 
ATOM      2  C   UNL     1      34.383 -22.022 -18.879  0.00  0.00    +0.054 C 
ATOM      3  C   UNL     1      34.456 -23.510 -16.521  0.00  0.00    +0.173 C 
ATOM      4  C   UNL     1      33.247 -22.710 -18.453  0.00  0.00    +0.047 C 
ATOM      5  C   UNL     1      35.555 -22.078 -18.124  0.00  0.00    +0.018 C 
ATOM      6  C   UNL     1      33.284 -23.455 -17.274  0.00  0.00    +0.176 C 
ATOM      7  C   UNL     1      35.591 -22.822 -16.945  0.00  0.00    +0.041 C 
ENDROOT
BRANCH   2  10
ATOM      8  O   UNL     1      36.785 -18.580 -22.340  0.00  0.00    -0.274 OA
ATOM      9  O   UNL     1      36.443 -20.207 -20.095  0.00  0.00    -0.252 OA
ATOM     10  N   UNL     1      34.347 -21.266 -20.074  0.00  0.00    -0.268 N 
ATOM     11  N   UNL     1      34.911 -19.862 -21.807  0.00  0.00    -0.239 N 
ATOM     12  C   UNL     1      35.653 -18.979 -22.596  0.00  0.00    +0.234 C 
ATOM     13  C   UNL     1      35.343 -20.433 -20.593  0.00  0.00    +0.310 C 
ATOM     14  H   UNL     1      33.519 -21.335 -20.604  0.00  0.00    +0.156 HD
ATOM     15  H   UNL     1      34.011 -20.105 -22.124  0.00  0.00    +0.159 HD
BRANCH  12  16
ATOM     16  C   UNL     1      34.877 -18.564 -23.832  0.00  0.00    +0.112 C 
BRANCH  16  18
ATOM     17  F   UNL     1      33.669 -13.062 -23.964  0.00  0.00    -0.204 F 
ATOM     18  C   UNL     1      34.555 -17.093 -23.868  0.00  0.00    -0.013 C 
ATOM     19  C   UNL     1      34.765 -16.306 -22.736  0.00  0.00    -0.001 C 
ATOM     20  C   UNL     1      34.045 -16.518 -25.032  0.00  0.00    -0.001 C 
ATOM     21  C   UNL     1      34.466 -14.944 -22.769  0.00  0.00    +0.029 C 
ATOM     22  C   UNL     1      33.745 -15.157 -25.064  0.00  0.00    +0.029 C 
ATOM     23  C   UNL     1      33.956 -14.369 -23.933  0.00  0.00    +0.140 C 
ENDBRANCH  16  18
ENDBRANCH  12  16
ENDBRANCH   2  10
BRANCH   3  24
ATOM     24  O   UNL     1      34.491 -24.235 -15.369  0.00  0.00    -0.451 OA
BRANCH  24  27
ATOM     25  N   UNL     1      38.126 -24.441 -13.315  0.00  0.00    -0.229 NA
ATOM     26  N   UNL     1      38.742 -26.333 -14.627  0.00  0.00    -0.343 N 
ATOM     27  C   UNL     1      35.695 -24.304 -14.688  0.00  0.00    +0.150 C 
ATOM     28  C   UNL     1      36.620 -25.293 -15.003  0.00  0.00    +0.071 C 
ATOM     29  C   UNL     1      35.985 -23.383 -13.688  0.00  0.00    +0.058 C 
ATOM     30  C   UNL     1      37.810 -25.319 -14.294  0.00  0.00    +0.128 C 
ATOM     31  C   UNL     1      37.203 -23.494 -13.037  0.00  0.00    +0.103 C 
ATOM     32  H   UNL     1      39.600 -26.389 -14.148  0.00  0.00    +0.144 HD
ATOM     33  H   UNL     1      38.530 -26.982 -15.336  0.00  0.00    +0.144 HD
ENDBRANCH  24  27
ENDBRANCH   3  24
TORSDOF 5
ENDMDL
MODEL 9
REMARK VINA RESULT:     -11.2      4.939      7.386
REMARK  Name = 17748441
REMARK  5 active torsions:
REMARK  status: ('A' for Active; 'I' for Inactive)
REMARK    1  A    between atoms: C_2  and  N_10
REMARK    2  A    between atoms: C_3  and  O_24
REMARK    3  A    between atoms: C_12  and  C_16
REMARK    4  A    between atoms: C_16  and  C_18
REMARK    5  A    between atoms: O_24  and  C_27
REMARK                            x       y       z     vdW  Elec       q    Type
REMARK                         _______ _______ _______ _____ _____    ______ ____
ROOT
ATOM      1  F   UNL     1      34.532 -17.092 -25.374  0.00  0.00    -0.201 F 
ATOM      2  C   UNL     1      33.846 -14.478 -22.939  0.00  0.00    +0.054 C 
ATOM      3  C   UNL     1      35.048 -16.993 -23.060  0.00  0.00    +0.173 C 
ATOM      4  C   UNL     1      33.890 -15.173 -24.148  0.00  0.00    +0.047 C 
ATOM      5  C   UNL     1      34.403 -15.042 -21.791  0.00  0.00    +0.018 C 
ATOM      6  C   UNL     1      34.491 -16.430 -24.208  0.00  0.00    +0.176 C 
ATOM      7  C   UNL     1      35.003 -16.299 -21.852  0.00  0.00    +0.041 C 
ENDROOT
BRANCH   2  10
ATOM      8  O   UNL     1      33.347  -9.408 -24.846  0.00  0.00    -0.274 OA
ATOM      9  O   UNL     1      34.284 -12.030 -24.622  0.00  0.00    -0.252 OA
ATOM     10  N   UNL     1      33.237 -13.203 -22.877  0.00  0.00    -0.268 N 
ATOM     11  N   UNL     1      32.665 -11.016 -23.301  0.00  0.00    -0.239 N 
ATOM     12  C   UNL     1      32.649  -9.752 -23.896  0.00  0.00    +0.234 C 
ATOM     13  C   UNL     1      33.483 -12.095 -23.693  0.00  0.00    +0.310 C 
ATOM     14  H   UNL     1      32.558 -13.083 -22.173  0.00  0.00    +0.156 HD
ATOM     15  H   UNL     1      32.053 -11.166 -22.543  0.00  0.00    +0.159 HD
BRANCH  12  16
ATOM     16  C   UNL     1      31.647  -8.837 -23.217  0.00  0.00    +0.112 C 
BRANCH  16  18
ATOM     17  F   UNL     1      32.236  -3.421 -24.659  0.00  0.00    -0.204 F 
ATOM     18  C   UNL     1      31.805  -7.390 -23.603  0.00  0.00    -0.013 C 
ATOM     19  C   UNL     1      32.699  -6.577 -22.908  0.00  0.00    -0.001 C 
ATOM     20  C   UNL     1      31.056  -6.862 -24.655  0.00  0.00    -0.001 C 
ATOM     21  C   UNL     1      32.845  -5.236 -23.264  0.00  0.00    +0.029 C 
ATOM     22  C   UNL     1      31.201  -5.521 -25.011  0.00  0.00    +0.029 C 
ATOM     23  C   UNL     1      32.096  -4.708 -24.316  0.00  0.00    +0.140 C 
ENDBRANCH  16  18
ENDBRANCH  12  16
ENDBRANCH   2  10
BRANCH   3  24
ATOM     24  O   UNL     1      35.633 -18.221 -23.119  0.00  0.00    -0.451 OA
BRANCH  24  27
ATOM     25  N   UNL     1      34.841 -20.900 -20.010  0.00  0.00    -0.229 NA
ATOM     26  N   UNL     1      32.525 -20.839 -20.566  0.00  0.00    -0.343 N 
ATOM     27  C   UNL     1      35.370 -19.108 -22.088  0.00  0.00    +0.150 C 
ATOM     28  C   UNL     1      34.068 -19.530 -21.844  0.00  0.00    +0.071 C 
ATOM     29  C   UNL     1      36.408 -19.582 -21.294  0.00  0.00    +0.058 C 
ATOM     30  C   UNL     1      33.858 -20.419 -20.802  0.00  0.00    +0.128 C 
ATOM     31  C   UNL     1      36.094 -20.469 -20.276  0.00  0.00    +0.103 C 
ATOM     32  H   UNL     1      32.330 -21.470 -19.836  0.00  0.00    +0.144 HD
ATOM     33  H   UNL     1      31.795 -20.499 -21.133  0.00  0.00    +0.144 HD
ENDBRANCH  24  27
ENDBRANCH   3  24
TORSDOF 5
ENDMDL
