MODEL 1
REMARK VINA RESULT:     -10.6      0.000      0.000
REMARK  Name = 24941254
REMARK  6 active torsions:
REMARK  status: ('A' for Active; 'I' for Inactive)
REMARK    1  A    between atoms: C_1  and  S_21
REMARK    2  A    between atoms: C_4  and  C_9
REMARK    3  A    between atoms: N_8  and  C_11
REMARK    4  A    between atoms: C_12  and  C_18
REMARK    5  A    between atoms: C_18  and  O_19
REMARK    6  A    between atoms: S_21  and  N_24
REMARK                            x       y       z     vdW  Elec       q    Type
REMARK                         _______ _______ _______ _____ _____    ______ ____
ROOT
ATOM      1  C   UNL     1      31.728  -9.179 -21.300  0.00  0.00    +0.122 C 
ATOM      2  C   UNL     1      31.980 -10.507 -21.642  0.00  0.00    +0.024 C 
ATOM      3  C   UNL     1      31.395  -8.849 -19.985  0.00  0.00    +0.020 C 
ATOM      4  C   UNL     1      31.899 -11.505 -20.671  0.00  0.00    +0.055 C 
ATOM      5  C   UNL     1      31.314  -9.847 -19.014  0.00  0.00    +0.002 C 
ATOM      6  C   UNL     1      31.567 -11.176 -19.358  0.00  0.00    +0.005 C 
ENDROOT
BRANCH   4   9
ATOM      7  O   UNL     1      31.249 -13.724 -20.925  0.00  0.00    -0.270 OA
ATOM      8  N   UNL     1      33.456 -13.167 -21.494  0.00  0.00    -0.280 N 
ATOM      9  C   UNL     1      32.163 -12.890 -21.028  0.00  0.00    +0.250 C 
ATOM     10  H   UNL     1      34.074 -12.402 -21.519  0.00  0.00    +0.155 HD
BRANCH   8  11
ATOM     11  C   UNL     1      33.989 -14.403 -21.933  0.00  0.00    +0.057 C 
ATOM     12  C   UNL     1      34.181 -14.661 -23.291  0.00  0.00    +0.089 C 
ATOM     13  C   UNL     1      34.324 -15.371 -20.986  0.00  0.00    +0.015 C 
ATOM     14  C   UNL     1      34.708 -15.886 -23.700  0.00  0.00    +0.008 C 
ATOM     15  C   UNL     1      34.850 -16.596 -21.396  0.00  0.00    +0.001 C 
ATOM     16  C   UNL     1      35.042 -16.853 -22.752  0.00  0.00    +0.000 C 
BRANCH  12  18
ATOM     17  O   UNL     1      33.139 -13.882 -25.298  0.00  0.00    -0.245 OA
ATOM     18  C   UNL     1      33.842 -13.672 -24.307  0.00  0.00    +0.339 C 
BRANCH  18  19
ATOM     19  O   UNL     1      34.394 -12.456 -24.050  0.00  0.00    -0.477 OA
ATOM     20  H   UNL     1      34.370 -12.106 -23.181  0.00  0.00    +0.295 HD
ENDBRANCH  18  19
ENDBRANCH  12  18
ENDBRANCH   8  11
ENDBRANCH   4   9
BRANCH   1  21
ATOM     21  S   UNL     1      31.828  -7.915 -22.528  0.00  0.00    +0.064 S 
ATOM     22  O   UNL     1      30.561  -7.877 -23.227  0.00  0.00    -0.153 OA
ATOM     23  O   UNL     1      32.368  -6.726 -21.901  0.00  0.00    -0.153 OA
BRANCH  21  24
ATOM     24  N   UNL     1      33.017  -8.590 -23.557  0.00  0.00    -0.151 NA
ATOM     25  C   UNL     1      34.193  -7.725 -23.846  0.00  0.00    +0.101 C 
ATOM     26  C   UNL     1      32.496  -9.254 -24.791  0.00  0.00    +0.122 C 
ATOM     27  C   UNL     1      35.338  -8.604 -24.339  0.00  0.00    +0.045 C 
ATOM     28  C   UNL     1      33.573  -9.825 -25.681  0.00  0.00    -0.008 C 
ATOM     29  C   UNL     1      34.925  -9.490 -25.487  0.00  0.00    -0.023 C 
ATOM     30  C   UNL     1      33.217 -10.670 -26.741  0.00  0.00    -0.003 C 
ATOM     31  C   UNL     1      35.900 -10.032 -26.335  0.00  0.00    -0.004 C 
ATOM     32  C   UNL     1      34.194 -11.195 -27.586  0.00  0.00    -0.000 C 
ATOM     33  C   UNL     1      35.535 -10.878 -27.381  0.00  0.00    -0.000 C 
ENDBRANCH  21  24
ENDBRANCH   1  21
TORSDOF 6
ENDMDL
MODEL 2
REMARK VINA RESULT:     -10.4      7.137     10.246
REMARK  Name = 24941254
REMARK  6 active torsions:
REMARK  status: ('A' for Active; 'I' for Inactive)
REMARK    1  A    between atoms: C_1  and  S_21
REMARK    2  A    between atoms: C_4  and  C_9
REMARK    3  A    between atoms: N_8  and  C_11
REMARK    4  A    between atoms: C_12  and  C_18
REMARK    5  A    between atoms: C_18  and  O_19
REMARK    6  A    between atoms: S_21  and  N_24
REMARK                            x       y       z     vdW  Elec       q    Type
REMARK                         _______ _______ _______ _____ _____    ______ ____
ROOT
ATOM      1  C   UNL     1      34.583 -19.933 -21.053  0.00  0.00    +0.122 C 
ATOM      2  C   UNL     1      34.807 -20.971 -20.149  0.00  0.00    +0.024 C 
ATOM      3  C   UNL     1      33.279 -19.611 -21.433  0.00  0.00    +0.020 C 
ATOM      4  C   UNL     1      33.730 -21.687 -19.626  0.00  0.00    +0.055 C 
ATOM      5  C   UNL     1      32.202 -20.327 -20.911  0.00  0.00    +0.002 C 
ATOM      6  C   UNL     1      32.429 -21.365 -20.007  0.00  0.00    +0.005 C 
ENDROOT
BRANCH   4   9
ATOM      7  O   UNL     1      33.723 -23.936 -19.031  0.00  0.00    -0.270 OA
ATOM      8  N   UNL     1      34.482 -22.393 -17.435  0.00  0.00    -0.280 N 
ATOM      9  C   UNL     1      33.965 -22.769 -18.683  0.00  0.00    +0.250 C 
ATOM     10  H   UNL     1      34.623 -21.427 -17.304  0.00  0.00    +0.155 HD
BRANCH   8  11
ATOM     11  C   UNL     1      34.831 -23.219 -16.339  0.00  0.00    +0.057 C 
ATOM     12  C   UNL     1      36.147 -23.289 -15.883  0.00  0.00    +0.089 C 
ATOM     13  C   UNL     1      33.835 -23.969 -15.715  0.00  0.00    +0.015 C 
ATOM     14  C   UNL     1      36.467 -24.111 -14.801  0.00  0.00    +0.008 C 
ATOM     15  C   UNL     1      34.155 -24.791 -14.634  0.00  0.00    +0.001 C 
ATOM     16  C   UNL     1      35.471 -24.861 -14.177  0.00  0.00    +0.000 C 
BRANCH  12  18
ATOM     17  O   UNL     1      37.069 -21.425 -17.063  0.00  0.00    -0.245 OA
ATOM     18  C   UNL     1      37.212 -22.518 -16.512  0.00  0.00    +0.339 C 
BRANCH  18  19
ATOM     19  O   UNL     1      38.419 -23.141 -16.430  0.00  0.00    -0.477 OA
ATOM     20  H   UNL     1      39.163 -22.678 -16.100  0.00  0.00    +0.295 HD
ENDBRANCH  18  19
ENDBRANCH  12  18
ENDBRANCH   8  11
ENDBRANCH   4   9
BRANCH   1  21
ATOM     21  S   UNL     1      35.945 -19.028 -21.717  0.00  0.00    +0.064 S 
ATOM     22  O   UNL     1      36.604 -18.352 -20.619  0.00  0.00    -0.153 OA
ATOM     23  O   UNL     1      36.681 -19.912 -22.596  0.00  0.00    -0.153 OA
BRANCH  21  24
ATOM     24  N   UNL     1      35.106 -17.874 -22.662  0.00  0.00    -0.151 NA
ATOM     25  C   UNL     1      35.288 -17.986 -24.135  0.00  0.00    +0.101 C 
ATOM     26  C   UNL     1      35.213 -16.459 -22.193  0.00  0.00    +0.122 C 
ATOM     27  C   UNL     1      34.144 -17.249 -24.827  0.00  0.00    +0.045 C 
ATOM     28  C   UNL     1      34.473 -15.468 -23.058  0.00  0.00    -0.008 C 
ATOM     29  C   UNL     1      33.992 -15.835 -24.328  0.00  0.00    -0.023 C 
ATOM     30  C   UNL     1      34.298 -14.153 -22.607  0.00  0.00    -0.003 C 
ATOM     31  C   UNL     1      33.314 -14.889 -25.109  0.00  0.00    -0.004 C 
ATOM     32  C   UNL     1      33.632 -13.217 -23.398  0.00  0.00    -0.000 C 
ATOM     33  C   UNL     1      33.139 -13.586 -24.647  0.00  0.00    -0.000 C 
ENDBRANCH  21  24
ENDBRANCH   1  21
TORSDOF 6
ENDMDL
MODEL 3
REMARK VINA RESULT:     -10.4      2.554      4.152
REMARK  Name = 24941254
REMARK  6 active torsions:
REMARK  status: ('A' for Active; 'I' for Inactive)
REMARK    1  A    between atoms: C_1  and  S_21
REMARK    2  A    between atoms: C_4  and  C_9
REMARK    3  A    between atoms: N_8  and  C_11
REMARK    4  A    between atoms: C_12  and  C_18
REMARK    5  A    between atoms: C_18  and  O_19
REMARK    6  A    between atoms: S_21  and  N_24
REMARK                            x       y       z     vdW  Elec       q    Type
REMARK                         _______ _______ _______ _____ _____    ______ ____
ROOT
ATOM      1  C   UNL     1      32.706 -10.653 -23.161  0.00  0.00    +0.122 C 
ATOM      2  C   UNL     1      32.828 -11.920 -22.590  0.00  0.00    +0.024 C 
ATOM      3  C   UNL     1      33.311 -10.382 -24.389  0.00  0.00    +0.020 C 
ATOM      4  C   UNL     1      33.554 -12.914 -23.245  0.00  0.00    +0.055 C 
ATOM      5  C   UNL     1      34.037 -11.377 -25.044  0.00  0.00    +0.002 C 
ATOM      6  C   UNL     1      34.158 -12.643 -24.471  0.00  0.00    +0.005 C 
ENDROOT
BRANCH   4   9
ATOM      7  O   UNL     1      33.147 -14.455 -21.549  0.00  0.00    -0.270 OA
ATOM      8  N   UNL     1      34.391 -15.181 -23.401  0.00  0.00    -0.280 N 
ATOM      9  C   UNL     1      33.680 -14.235 -22.649  0.00  0.00    +0.250 C 
ATOM     10  H   UNL     1      34.757 -14.859 -24.257  0.00  0.00    +0.155 HD
BRANCH   8  11
ATOM     11  C   UNL     1      34.652 -16.538 -23.093  0.00  0.00    +0.057 C 
ATOM     12  C   UNL     1      34.244 -17.561 -23.949  0.00  0.00    +0.089 C 
ATOM     13  C   UNL     1      35.327 -16.846 -21.911  0.00  0.00    +0.015 C 
ATOM     14  C   UNL     1      34.512 -18.891 -23.624  0.00  0.00    +0.008 C 
ATOM     15  C   UNL     1      35.593 -18.176 -21.586  0.00  0.00    +0.001 C 
ATOM     16  C   UNL     1      35.186 -19.198 -22.442  0.00  0.00    +0.000 C 
BRANCH  12  18
ATOM     17  O   UNL     1      33.679 -16.258 -25.874  0.00  0.00    -0.245 OA
ATOM     18  C   UNL     1      33.537 -17.275 -25.192  0.00  0.00    +0.339 C 
BRANCH  18  19
ATOM     19  O   UNL     1      32.676 -18.270 -25.537  0.00  0.00    -0.477 OA
ATOM     20  H   UNL     1      32.334 -18.843 -24.879  0.00  0.00    +0.295 HD
ENDBRANCH  18  19
ENDBRANCH  12  18
ENDBRANCH   8  11
ENDBRANCH   4   9
BRANCH   1  21
ATOM     21  S   UNL     1      31.789  -9.393 -22.332  0.00  0.00    +0.064 S 
ATOM     22  O   UNL     1      30.384  -9.623 -22.594  0.00  0.00    -0.153 OA
ATOM     23  O   UNL     1      32.288  -9.300 -20.975  0.00  0.00    -0.153 OA
BRANCH  21  24
ATOM     24  N   UNL     1      32.306  -8.018 -23.211  0.00  0.00    -0.151 NA
ATOM     25  C   UNL     1      33.611  -7.437 -22.798  0.00  0.00    +0.101 C 
ATOM     26  C   UNL     1      31.268  -6.965 -23.423  0.00  0.00    +0.122 C 
ATOM     27  C   UNL     1      34.146  -6.575 -23.938  0.00  0.00    +0.045 C 
ATOM     28  C   UNL     1      31.762  -5.762 -24.190  0.00  0.00    -0.008 C 
ATOM     29  C   UNL     1      33.136  -5.558 -24.407  0.00  0.00    -0.023 C 
ATOM     30  C   UNL     1      30.842  -4.814 -24.656  0.00  0.00    -0.003 C 
ATOM     31  C   UNL     1      33.563  -4.428 -25.117  0.00  0.00    -0.004 C 
ATOM     32  C   UNL     1      31.278  -3.686 -25.351  0.00  0.00    -0.000 C 
ATOM     33  C   UNL     1      32.638  -3.495 -25.583  0.00  0.00    -0.000 C 
ENDBRANCH  21  24
ENDBRANCH   1  21
TORSDOF 6
ENDMDL
MODEL 4
REMARK VINA RESULT:     -10.3      9.225     14.089
REMARK  Name = 24941254
REMARK  6 active torsions:
REMARK  status: ('A' for Active; 'I' for Inactive)
REMARK    1  A    between atoms: C_1  and  S_21
REMARK    2  A    between atoms: C_4  and  C_9
REMARK    3  A    between atoms: N_8  and  C_11
REMARK    4  A    between atoms: C_12  and  C_18
REMARK    5  A    between atoms: C_18  and  O_19
REMARK    6  A    between atoms: S_21  and  N_24
REMARK                            x       y       z     vdW  Elec       q    Type
REMARK                         _______ _______ _______ _____ _____    ______ ____
ROOT
ATOM      1  C   UNL     1      35.808 -23.298 -15.961  0.00  0.00    +0.122 C 
ATOM      2  C   UNL     1      35.312 -23.022 -17.235  0.00  0.00    +0.024 C 
ATOM      3  C   UNL     1      36.932 -22.619 -15.490  0.00  0.00    +0.020 C 
ATOM      4  C   UNL     1      35.939 -22.069 -18.037  0.00  0.00    +0.055 C 
ATOM      5  C   UNL     1      37.560 -21.665 -16.292  0.00  0.00    +0.002 C 
ATOM      6  C   UNL     1      37.062 -21.391 -17.566  0.00  0.00    +0.005 C 
ENDROOT
BRANCH   4   9
ATOM      7  O   UNL     1      34.822 -22.674 -19.986  0.00  0.00    -0.270 OA
ATOM      8  N   UNL     1      35.628 -20.476 -19.834  0.00  0.00    -0.280 N 
ATOM      9  C   UNL     1      35.421 -21.781 -19.366  0.00  0.00    +0.250 C 
ATOM     10  H   UNL     1      36.122 -19.877 -19.228  0.00  0.00    +0.155 HD
BRANCH   8  11
ATOM     11  C   UNL     1      35.218 -19.905 -21.064  0.00  0.00    +0.057 C 
ATOM     12  C   UNL     1      36.072 -19.075 -21.790  0.00  0.00    +0.089 C 
ATOM     13  C   UNL     1      33.940 -20.184 -21.546  0.00  0.00    +0.015 C 
ATOM     14  C   UNL     1      35.646 -18.524 -23.000  0.00  0.00    +0.008 C 
ATOM     15  C   UNL     1      33.514 -19.631 -22.754  0.00  0.00    +0.001 C 
ATOM     16  C   UNL     1      34.367 -18.802 -23.480  0.00  0.00    +0.000 C 
BRANCH  12  18
ATOM     17  O   UNL     1      37.740 -18.635 -20.134  0.00  0.00    -0.245 OA
ATOM     18  C   UNL     1      37.415 -18.764 -21.316  0.00  0.00    +0.339 C 
BRANCH  18  19
ATOM     19  O   UNL     1      38.304 -18.624 -22.336  0.00  0.00    -0.477 OA
ATOM     20  H   UNL     1      38.481 -17.775 -22.690  0.00  0.00    +0.295 HD
ENDBRANCH  18  19
ENDBRANCH  12  18
ENDBRANCH   8  11
ENDBRANCH   4   9
BRANCH   1  21
ATOM     21  S   UNL     1      35.017 -24.506 -14.946  0.00  0.00    +0.064 S 
ATOM     22  O   UNL     1      35.462 -25.812 -15.384  0.00  0.00    -0.153 OA
ATOM     23  O   UNL     1      35.165 -24.093 -13.566  0.00  0.00    -0.153 OA
BRANCH  21  24
ATOM     24  N   UNL     1      33.389 -24.278 -15.423  0.00  0.00    -0.151 NA
ATOM     25  C   UNL     1      32.982 -22.874 -15.696  0.00  0.00    +0.101 C 
ATOM     26  C   UNL     1      32.372 -25.004 -14.603  0.00  0.00    +0.122 C 
ATOM     27  C   UNL     1      31.718 -22.887 -16.550  0.00  0.00    +0.045 C 
ATOM     28  C   UNL     1      30.947 -24.770 -15.044  0.00  0.00    -0.008 C 
ATOM     29  C   UNL     1      30.631 -23.739 -15.946  0.00  0.00    -0.023 C 
ATOM     30  C   UNL     1      29.922 -25.564 -14.515  0.00  0.00    -0.003 C 
ATOM     31  C   UNL     1      29.297 -23.544 -16.331  0.00  0.00    -0.004 C 
ATOM     32  C   UNL     1      28.596 -25.354 -14.895  0.00  0.00    -0.000 C 
ATOM     33  C   UNL     1      28.285 -24.345 -15.804  0.00  0.00    -0.000 C 
ENDBRANCH  21  24
ENDBRANCH   1  21
TORSDOF 6
ENDMDL
MODEL 5
REMARK VINA RESULT:     -10.0      7.139     10.383
REMARK  Name = 24941254
REMARK  6 active torsions:
REMARK  status: ('A' for Active; 'I' for Inactive)
REMARK    1  A    between atoms: C_1  and  S_21
REMARK    2  A    between atoms: C_4  and  C_9
REMARK    3  A    between atoms: N_8  and  C_11
REMARK    4  A    between atoms: C_12  and  C_18
REMARK    5  A    between atoms: C_18  and  O_19
REMARK    6  A    between atoms: S_21  and  N_24
REMARK                            x       y       z     vdW  Elec       q    Type
REMARK                         _______ _______ _______ _____ _____    ______ ____
ROOT
ATOM      1  C   UNL     1      34.564 -19.969 -21.026  0.00  0.00    +0.122 C 
ATOM      2  C   UNL     1      34.781 -21.010 -20.123  0.00  0.00    +0.024 C 
ATOM      3  C   UNL     1      33.262 -19.628 -21.397  0.00  0.00    +0.020 C 
ATOM      4  C   UNL     1      33.698 -21.710 -19.593  0.00  0.00    +0.055 C 
ATOM      5  C   UNL     1      32.179 -20.329 -20.866  0.00  0.00    +0.002 C 
ATOM      6  C   UNL     1      32.398 -21.370 -19.964  0.00  0.00    +0.005 C 
ENDROOT
BRANCH   4   9
ATOM      7  O   UNL     1      33.712 -23.963 -19.014  0.00  0.00    -0.270 OA
ATOM      8  N   UNL     1      34.399 -22.419 -17.386  0.00  0.00    -0.280 N 
ATOM      9  C   UNL     1      33.924 -22.795 -18.651  0.00  0.00    +0.250 C 
ATOM     10  H   UNL     1      34.519 -21.453 -17.244  0.00  0.00    +0.155 HD
BRANCH   8  11
ATOM     11  C   UNL     1      34.730 -23.248 -16.287  0.00  0.00    +0.057 C 
ATOM     12  C   UNL     1      33.751 -23.683 -15.394  0.00  0.00    +0.089 C 
ATOM     13  C   UNL     1      36.060 -23.628 -16.103  0.00  0.00    +0.015 C 
ATOM     14  C   UNL     1      34.102 -24.499 -14.318  0.00  0.00    +0.008 C 
ATOM     15  C   UNL     1      36.411 -24.443 -15.027  0.00  0.00    +0.001 C 
ATOM     16  C   UNL     1      35.432 -24.878 -14.135  0.00  0.00    +0.000 C 
BRANCH  12  18
ATOM     17  O   UNL     1      31.610 -23.695 -16.460  0.00  0.00    -0.245 OA
ATOM     18  C   UNL     1      32.353 -23.305 -15.556  0.00  0.00    +0.339 C 
BRANCH  18  19
ATOM     19  O   UNL     1      31.931 -22.454 -14.583  0.00  0.00    -0.477 OA
ATOM     20  H   UNL     1      31.506 -22.790 -13.818  0.00  0.00    +0.295 HD
ENDBRANCH  18  19
ENDBRANCH  12  18
ENDBRANCH   8  11
ENDBRANCH   4   9
BRANCH   1  21
ATOM     21  S   UNL     1      35.934 -19.083 -21.700  0.00  0.00    +0.064 S 
ATOM     22  O   UNL     1      36.610 -18.416 -20.608  0.00  0.00    -0.153 OA
ATOM     23  O   UNL     1      36.651 -19.978 -22.585  0.00  0.00    -0.153 OA
BRANCH  21  24
ATOM     24  N   UNL     1      35.104 -17.918 -22.641  0.00  0.00    -0.151 NA
ATOM     25  C   UNL     1      35.294 -18.017 -24.113  0.00  0.00    +0.101 C 
ATOM     26  C   UNL     1      35.213 -16.508 -22.158  0.00  0.00    +0.122 C 
ATOM     27  C   UNL     1      34.157 -17.271 -24.805  0.00  0.00    +0.045 C 
ATOM     28  C   UNL     1      34.481 -15.506 -23.019  0.00  0.00    -0.008 C 
ATOM     29  C   UNL     1      34.007 -15.860 -24.295  0.00  0.00    -0.023 C 
ATOM     30  C   UNL     1      34.308 -14.195 -22.557  0.00  0.00    -0.003 C 
ATOM     31  C   UNL     1      33.337 -14.906 -25.071  0.00  0.00    -0.004 C 
ATOM     32  C   UNL     1      33.650 -13.249 -23.344  0.00  0.00    -0.000 C 
ATOM     33  C   UNL     1      33.163 -13.606 -24.599  0.00  0.00    -0.000 C 
ENDBRANCH  21  24
ENDBRANCH   1  21
TORSDOF 6
ENDMDL
MODEL 6
REMARK VINA RESULT:      -9.8      7.402     12.608
REMARK  Name = 24941254
REMARK  6 active torsions:
REMARK  status: ('A' for Active; 'I' for Inactive)
REMARK    1  A    between atoms: C_1  and  S_21
REMARK    2  A    between atoms: C_4  and  C_9
REMARK    3  A    between atoms: N_8  and  C_11
REMARK    4  A    between atoms: C_12  and  C_18
REMARK    5  A    between atoms: C_18  and  O_19
REMARK    6  A    between atoms: S_21  and  N_24
REMARK                            x       y       z     vdW  Elec       q    Type
REMARK                         _______ _______ _______ _____ _____    ______ ____
ROOT
ATOM      1  C   UNL     1      34.869 -21.737 -19.629  0.00  0.00    +0.122 C 
ATOM      2  C   UNL     1      34.934 -20.733 -20.595  0.00  0.00    +0.024 C 
ATOM      3  C   UNL     1      35.905 -21.883 -18.706  0.00  0.00    +0.020 C 
ATOM      4  C   UNL     1      36.034 -19.876 -20.638  0.00  0.00    +0.055 C 
ATOM      5  C   UNL     1      37.005 -21.027 -18.749  0.00  0.00    +0.002 C 
ATOM      6  C   UNL     1      37.069 -20.023 -19.716  0.00  0.00    +0.005 C 
ENDROOT
BRANCH   4   9
ATOM      7  O   UNL     1      37.192 -18.575 -22.180  0.00  0.00    -0.270 OA
ATOM      8  N   UNL     1      34.888 -18.195 -21.951  0.00  0.00    -0.280 N 
ATOM      9  C   UNL     1      36.101 -18.828 -21.645  0.00  0.00    +0.250 C 
ATOM     10  H   UNL     1      34.104 -18.504 -21.443  0.00  0.00    +0.155 HD
BRANCH   8  11
ATOM     11  C   UNL     1      34.643 -17.169 -22.896  0.00  0.00    +0.057 C 
ATOM     12  C   UNL     1      34.201 -17.470 -24.185  0.00  0.00    +0.089 C 
ATOM     13  C   UNL     1      34.850 -15.841 -22.522  0.00  0.00    +0.015 C 
ATOM     14  C   UNL     1      33.966 -16.442 -25.099  0.00  0.00    +0.008 C 
ATOM     15  C   UNL     1      34.616 -14.814 -23.437  0.00  0.00    +0.001 C 
ATOM     16  C   UNL     1      34.174 -15.115 -24.725  0.00  0.00    +0.000 C 
BRANCH  12  18
ATOM     17  O   UNL     1      34.780 -19.771 -24.484  0.00  0.00    -0.245 OA
ATOM     18  C   UNL     1      33.975 -18.846 -24.609  0.00  0.00    +0.339 C 
BRANCH  18  19
ATOM     19  O   UNL     1      32.750 -19.018 -25.173  0.00  0.00    -0.477 OA
ATOM     20  H   UNL     1      32.646 -18.935 -26.101  0.00  0.00    +0.295 HD
ENDBRANCH  18  19
ENDBRANCH  12  18
ENDBRANCH   8  11
ENDBRANCH   4   9
BRANCH   1  21
ATOM     21  S   UNL     1      33.479 -22.823 -19.575  0.00  0.00    +0.064 S 
ATOM     22  O   UNL     1      32.349 -22.125 -20.151  0.00  0.00    -0.153 OA
ATOM     23  O   UNL     1      33.899 -24.110 -20.088  0.00  0.00    -0.153 OA
BRANCH  21  24
ATOM     24  N   UNL     1      33.259 -22.944 -17.881  0.00  0.00    -0.151 NA
ATOM     25  C   UNL     1      34.216 -23.829 -17.164  0.00  0.00    +0.101 C 
ATOM     26  C   UNL     1      31.851 -23.165 -17.432  0.00  0.00    +0.122 C 
ATOM     27  C   UNL     1      34.209 -23.459 -15.684  0.00  0.00    +0.045 C 
ATOM     28  C   UNL     1      31.697 -23.280 -15.934  0.00  0.00    -0.008 C 
ATOM     29  C   UNL     1      32.818 -23.454 -15.104  0.00  0.00    -0.023 C 
ATOM     30  C   UNL     1      30.415 -23.255 -15.368  0.00  0.00    -0.003 C 
ATOM     31  C   UNL     1      32.640 -23.565 -13.718  0.00  0.00    -0.004 C 
ATOM     32  C   UNL     1      30.248 -23.377 -13.989  0.00  0.00    -0.000 C 
ATOM     33  C   UNL     1      31.361 -23.530 -13.164  0.00  0.00    -0.000 C 
ENDBRANCH  21  24
ENDBRANCH   1  21
TORSDOF 6
ENDMDL
MODEL 7
REMARK VINA RESULT:      -9.7      2.570      7.518
REMARK  Name = 24941254
REMARK  6 active torsions:
REMARK  status: ('A' for Active; 'I' for Inactive)
REMARK    1  A    between atoms: C_1  and  S_21
REMARK    2  A    between atoms: C_4  and  C_9
REMARK    3  A    between atoms: N_8  and  C_11
REMARK    4  A    between atoms: C_12  and  C_18
REMARK    5  A    between atoms: C_18  and  O_19
REMARK    6  A    between atoms: S_21  and  N_24
REMARK                            x       y       z     vdW  Elec       q    Type
REMARK                         _______ _______ _______ _____ _____    ______ ____
ROOT
ATOM      1  C   UNL     1      32.542 -12.287 -23.094  0.00  0.00    +0.122 C 
ATOM      2  C   UNL     1      32.494 -10.895 -23.162  0.00  0.00    +0.024 C 
ATOM      3  C   UNL     1      31.927 -12.954 -22.034  0.00  0.00    +0.020 C 
ATOM      4  C   UNL     1      31.832 -10.170 -22.171  0.00  0.00    +0.055 C 
ATOM      5  C   UNL     1      31.265 -12.230 -21.043  0.00  0.00    +0.002 C 
ATOM      6  C   UNL     1      31.218 -10.837 -21.112  0.00  0.00    +0.005 C 
ENDROOT
BRANCH   4   9
ATOM      7  O   UNL     1      31.576  -8.070 -21.204  0.00  0.00    -0.270 OA
ATOM      8  N   UNL     1      32.000  -8.159 -23.509  0.00  0.00    -0.280 N 
ATOM      9  C   UNL     1      31.782  -8.718 -22.242  0.00  0.00    +0.250 C 
ATOM     10  H   UNL     1      32.150  -8.802 -24.240  0.00  0.00    +0.155 HD
BRANCH   8  11
ATOM     11  C   UNL     1      32.036  -6.792 -23.876  0.00  0.00    +0.057 C 
ATOM     12  C   UNL     1      33.244  -6.157 -24.165  0.00  0.00    +0.089 C 
ATOM     13  C   UNL     1      30.839  -6.080 -23.946  0.00  0.00    +0.015 C 
ATOM     14  C   UNL     1      33.253  -4.808 -24.525  0.00  0.00    +0.008 C 
ATOM     15  C   UNL     1      30.849  -4.731 -24.304  0.00  0.00    +0.001 C 
ATOM     16  C   UNL     1      32.056  -4.096 -24.593  0.00  0.00    +0.000 C 
BRANCH  12  18
ATOM     17  O   UNL     1      34.963  -7.435 -23.103  0.00  0.00    -0.245 OA
ATOM     18  C   UNL     1      34.512  -6.871 -24.103  0.00  0.00    +0.339 C 
BRANCH  18  19
ATOM     19  O   UNL     1      35.173  -6.856 -25.291  0.00  0.00    -0.477 OA
ATOM     20  H   UNL     1      34.738  -6.558 -26.065  0.00  0.00    +0.295 HD
ENDBRANCH  18  19
ENDBRANCH  12  18
ENDBRANCH   8  11
ENDBRANCH   4   9
BRANCH   1  21
ATOM     21  S   UNL     1      33.382 -13.205 -24.346  0.00  0.00    +0.064 S 
ATOM     22  O   UNL     1      32.411 -13.561 -25.360  0.00  0.00    -0.153 OA
ATOM     23  O   UNL     1      34.589 -12.485 -24.692  0.00  0.00    -0.153 OA
BRANCH  21  24
ATOM     24  N   UNL     1      33.805 -14.606 -23.458  0.00  0.00    -0.151 NA
ATOM     25  C   UNL     1      34.689 -14.387 -22.283  0.00  0.00    +0.101 C 
ATOM     26  C   UNL     1      34.244 -15.776 -24.277  0.00  0.00    +0.122 C 
ATOM     27  C   UNL     1      34.573 -15.591 -21.351  0.00  0.00    +0.045 C 
ATOM     28  C   UNL     1      34.622 -16.989 -23.461  0.00  0.00    -0.008 C 
ATOM     29  C   UNL     1      34.811 -16.894 -22.071  0.00  0.00    -0.023 C 
ATOM     30  C   UNL     1      34.826 -18.217 -24.103  0.00  0.00    -0.003 C 
ATOM     31  C   UNL     1      35.168 -18.037 -21.343  0.00  0.00    -0.004 C 
ATOM     32  C   UNL     1      35.193 -19.346 -23.371  0.00  0.00    -0.000 C 
ATOM     33  C   UNL     1      35.361 -19.256 -21.991  0.00  0.00    -0.000 C 
ENDBRANCH  21  24
ENDBRANCH   1  21
TORSDOF 6
ENDMDL
MODEL 8
REMARK VINA RESULT:      -9.7      2.664      4.059
REMARK  Name = 24941254
REMARK  6 active torsions:
REMARK  status: ('A' for Active; 'I' for Inactive)
REMARK    1  A    between atoms: C_1  and  S_21
REMARK    2  A    between atoms: C_4  and  C_9
REMARK    3  A    between atoms: N_8  and  C_11
REMARK    4  A    between atoms: C_12  and  C_18
REMARK    5  A    between atoms: C_18  and  O_19
REMARK    6  A    between atoms: S_21  and  N_24
REMARK                            x       y       z     vdW  Elec       q    Type
REMARK                         _______ _______ _______ _____ _____    ______ ____
ROOT
ATOM      1  C   UNL     1      33.431 -11.108 -24.302  0.00  0.00    +0.122 C 
ATOM      2  C   UNL     1      33.799 -12.383 -23.872  0.00  0.00    +0.024 C 
ATOM      3  C   UNL     1      32.519 -10.358 -23.557  0.00  0.00    +0.020 C 
ATOM      4  C   UNL     1      33.255 -12.909 -22.701  0.00  0.00    +0.055 C 
ATOM      5  C   UNL     1      31.975 -10.884 -22.386  0.00  0.00    +0.002 C 
ATOM      6  C   UNL     1      32.344 -12.160 -21.958  0.00  0.00    +0.005 C 
ENDROOT
BRANCH   4   9
ATOM      7  O   UNL     1      33.469 -14.547 -21.063  0.00  0.00    -0.270 OA
ATOM      8  N   UNL     1      34.161 -15.089 -23.238  0.00  0.00    -0.280 N 
ATOM      9  C   UNL     1      33.639 -14.238 -22.253  0.00  0.00    +0.250 C 
ATOM     10  H   UNL     1      34.237 -14.703 -24.140  0.00  0.00    +0.155 HD
BRANCH   8  11
ATOM     11  C   UNL     1      34.591 -16.432 -23.106  0.00  0.00    +0.057 C 
ATOM     12  C   UNL     1      34.293 -17.381 -24.083  0.00  0.00    +0.089 C 
ATOM     13  C   UNL     1      35.323 -16.799 -21.977  0.00  0.00    +0.015 C 
ATOM     14  C   UNL     1      34.728 -18.699 -23.931  0.00  0.00    +0.008 C 
ATOM     15  C   UNL     1      35.757 -18.116 -21.824  0.00  0.00    +0.001 C 
ATOM     16  C   UNL     1      35.459 -19.065 -22.801  0.00  0.00    +0.000 C 
BRANCH  12  18
ATOM     17  O   UNL     1      33.674 -16.000 -25.935  0.00  0.00    -0.245 OA
ATOM     18  C   UNL     1      33.530 -17.032 -25.275  0.00  0.00    +0.339 C 
BRANCH  18  19
ATOM     19  O   UNL     1      32.615 -17.983 -25.601  0.00  0.00    -0.477 OA
ATOM     20  H   UNL     1      32.898 -18.845 -25.835  0.00  0.00    +0.295 HD
ENDBRANCH  18  19
ENDBRANCH  12  18
ENDBRANCH   8  11
ENDBRANCH   4   9
BRANCH   1  21
ATOM     21  S   UNL     1      34.118 -10.442 -25.785  0.00  0.00    +0.064 S 
ATOM     22  O   UNL     1      35.534 -10.741 -25.791  0.00  0.00    -0.153 OA
ATOM     23  O   UNL     1      33.268 -10.842 -26.887  0.00  0.00    -0.153 OA
BRANCH  21  24
ATOM     24  N   UNL     1      33.899  -8.769 -25.493  0.00  0.00    -0.151 NA
ATOM     25  C   UNL     1      34.840  -8.152 -24.520  0.00  0.00    +0.101 C 
ATOM     26  C   UNL     1      32.488  -8.339 -25.255  0.00  0.00    +0.122 C 
ATOM     27  C   UNL     1      34.844  -6.641 -24.733  0.00  0.00    +0.045 C 
ATOM     28  C   UNL     1      32.335  -6.861 -24.988  0.00  0.00    -0.008 C 
ATOM     29  C   UNL     1      33.454  -6.058 -24.706  0.00  0.00    -0.023 C 
ATOM     30  C   UNL     1      31.056  -6.290 -24.980  0.00  0.00    -0.003 C 
ATOM     31  C   UNL     1      33.277  -4.690 -24.455  0.00  0.00    -0.004 C 
ATOM     32  C   UNL     1      30.890  -4.930 -24.717  0.00  0.00    -0.000 C 
ATOM     33  C   UNL     1      32.001  -4.131 -24.458  0.00  0.00    -0.000 C 
ENDBRANCH  21  24
ENDBRANCH   1  21
TORSDOF 6
ENDMDL
MODEL 9
REMARK VINA RESULT:      -9.6      6.736     12.123
REMARK  Name = 24941254
REMARK  6 active torsions:
REMARK  status: ('A' for Active; 'I' for Inactive)
REMARK    1  A    between atoms: C_1  and  S_21
REMARK    2  A    between atoms: C_4  and  C_9
REMARK    3  A    between atoms: N_8  and  C_11
REMARK    4  A    between atoms: C_12  and  C_18
REMARK    5  A    between atoms: C_18  and  O_19
REMARK    6  A    between atoms: S_21  and  N_24
REMARK                            x       y       z     vdW  Elec       q    Type
REMARK                         _______ _______ _______ _____ _____    ______ ____
ROOT
ATOM      1  C   UNL     1      34.949 -20.998 -20.230  0.00  0.00    +0.122 C 
ATOM      2  C   UNL     1      34.374 -20.183 -21.205  0.00  0.00    +0.024 C 
ATOM      3  C   UNL     1      36.283 -20.813 -19.866  0.00  0.00    +0.020 C 
ATOM      4  C   UNL     1      35.132 -19.185 -21.816  0.00  0.00    +0.055 C 
ATOM      5  C   UNL     1      37.041 -19.815 -20.477  0.00  0.00    +0.002 C 
ATOM      6  C   UNL     1      36.465 -19.001 -21.453  0.00  0.00    +0.005 C 
ENDROOT
BRANCH   4   9
ATOM      7  O   UNL     1      33.830 -18.854 -23.716  0.00  0.00    -0.270 OA
ATOM      8  N   UNL     1      34.785 -16.962 -22.710  0.00  0.00    -0.280 N 
ATOM      9  C   UNL     1      34.532 -18.335 -22.833  0.00  0.00    +0.250 C 
ATOM     10  H   UNL     1      35.362 -16.699 -21.957  0.00  0.00    +0.155 HD
BRANCH   8  11
ATOM     11  C   UNL     1      34.319 -15.902 -23.526  0.00  0.00    +0.057 C 
ATOM     12  C   UNL     1      33.859 -14.711 -22.965  0.00  0.00    +0.089 C 
ATOM     13  C   UNL     1      34.325 -16.064 -24.912  0.00  0.00    +0.015 C 
ATOM     14  C   UNL     1      33.404 -13.681 -23.790  0.00  0.00    +0.008 C 
ATOM     15  C   UNL     1      33.869 -15.034 -25.736  0.00  0.00    +0.001 C 
ATOM     16  C   UNL     1      33.409 -13.844 -25.175  0.00  0.00    +0.000 C 
BRANCH  12  18
ATOM     17  O   UNL     1      34.630 -15.014 -20.721  0.00  0.00    -0.245 OA
ATOM     18  C   UNL     1      33.839 -14.509 -21.521  0.00  0.00    +0.339 C 
BRANCH  18  19
ATOM     19  O   UNL     1      32.832 -13.684 -21.128  0.00  0.00    -0.477 OA
ATOM     20  H   UNL     1      32.897 -12.761 -21.279  0.00  0.00    +0.295 HD
ENDBRANCH  18  19
ENDBRANCH  12  18
ENDBRANCH   8  11
ENDBRANCH   4   9
BRANCH   1  21
ATOM     21  S   UNL     1      33.991 -22.263 -19.457  0.00  0.00    +0.064 S 
ATOM     22  O   UNL     1      32.645 -21.758 -19.287  0.00  0.00    -0.153 OA
ATOM     23  O   UNL     1      34.237 -23.503 -20.165  0.00  0.00    -0.153 OA
BRANCH  21  24
ATOM     24  N   UNL     1      34.761 -22.332 -17.930  0.00  0.00    -0.151 NA
ATOM     25  C   UNL     1      36.243 -22.454 -17.956  0.00  0.00    +0.101 C 
ATOM     26  C   UNL     1      34.142 -23.265 -16.940  0.00  0.00    +0.122 C 
ATOM     27  C   UNL     1      36.794 -22.019 -16.600  0.00  0.00    +0.045 C 
ATOM     28  C   UNL     1      34.855 -23.310 -15.610  0.00  0.00    -0.008 C 
ATOM     29  C   UNL     1      36.133 -22.746 -15.457  0.00  0.00    -0.023 C 
ATOM     30  C   UNL     1      34.252 -23.960 -14.525  0.00  0.00    -0.003 C 
ATOM     31  C   UNL     1      36.771 -22.810 -14.210  0.00  0.00    -0.004 C 
ATOM     32  C   UNL     1      34.900 -24.028 -13.292  0.00  0.00    -0.000 C 
ATOM     33  C   UNL     1      36.159 -23.452 -13.135  0.00  0.00    -0.000 C 
ENDBRANCH  21  24
ENDBRANCH   1  21
TORSDOF 6
ENDMDL
