MODEL 1
REMARK VINA RESULT:     -11.6      0.000      0.000
REMARK  Name = 42628060
REMARK  6 active torsions:
REMARK  status: ('A' for Active; 'I' for Inactive)
REMARK    1  A    between atoms: N_2  and  C_6
REMARK    2  A    between atoms: C_3  and  C_19
REMARK    3  A    between atoms: C_9  and  N_13
REMARK    4  A    between atoms: C_19  and  N_20
REMARK    5  A    between atoms: C_21  and  N_27
REMARK    6  A    between atoms: C_28  and  C_32
REMARK                            x       y       z     vdW  Elec       q    Type
REMARK                         _______ _______ _______ _____ _____    ______ ____
ROOT
ATOM      1  O   UNL     1      32.518 -13.778 -23.870  0.00  0.00    -0.277 OA
ATOM      2  N   UNL     1      34.228 -14.983 -24.937  0.00  0.00    -0.284 N 
ATOM      3  C   UNL     1      33.313 -13.942 -24.790  0.00  0.00    +0.205 C 
ATOM      4  H   UNL     1      34.788 -14.959 -25.746  0.00  0.00    +0.155 HD
ENDROOT
BRANCH   2   6
ATOM      5  F   UNL     1      34.868 -14.583 -22.255  0.00  0.00    -0.203 F 
ATOM      6  C   UNL     1      34.446 -16.070 -24.058  0.00  0.00    +0.078 C 
ATOM      7  C   UNL     1      34.765 -15.836 -22.721  0.00  0.00    +0.155 C 
ATOM      8  C   UNL     1      34.343 -17.378 -24.531  0.00  0.00    +0.018 C 
ATOM      9  C   UNL     1      34.877 -18.217 -22.330  0.00  0.00    +0.061 C 
ATOM     10  C   UNL     1      34.980 -16.910 -21.856  0.00  0.00    +0.046 C 
ATOM     11  C   UNL     1      34.559 -18.452 -23.667  0.00  0.00    +0.017 C 
BRANCH   9  13
ATOM     12  O   UNL     1      37.437 -18.984 -21.225  0.00  0.00    -0.269 OA
ATOM     13  N   UNL     1      35.102 -19.334 -21.432  0.00  0.00    -0.233 N 
ATOM     14  C   UNL     1      36.417 -19.632 -20.990  0.00  0.00    +0.257 C 
ATOM     15  C   UNL     1      34.030 -20.108 -20.981  0.00  0.00    +0.072 C 
ATOM     16  C   UNL     1      36.566 -20.827 -20.103  0.00  0.00    +0.059 C 
ATOM     17  C   UNL     1      34.186 -21.152 -20.162  0.00  0.00    +0.017 C 
ATOM     18  C   UNL     1      35.495 -21.524 -19.716  0.00  0.00    +0.006 C 
ENDBRANCH   9  13
ENDBRANCH   2   6
BRANCH   3  19
ATOM     19  C   UNL     1      33.411 -12.987 -25.967  0.00  0.00    +0.010 C 
BRANCH  19  20
ATOM     20  N   UNL     1      34.319 -11.899 -25.633  0.00  0.00    +0.394 N 
ATOM     21  C   UNL     1      34.671  -9.680 -25.012  0.00  0.00    +0.049 C 
ATOM     22  C   UNL     1      35.468  -9.966 -26.288  0.00  0.00    -0.005 C 
ATOM     23  C   UNL     1      33.644 -10.805 -24.932  0.00  0.00    -0.057 C 
ATOM     24  C   UNL     1      34.906 -11.279 -26.820  0.00  0.00    -0.075 C 
ATOM     25  H   UNL     1      35.028 -12.340 -25.048  0.00  0.00    -0.079 HD
BRANCH  21  27
ATOM     26  O   UNL     1      35.444  -7.416 -23.426  0.00  0.00    -0.270 OA
ATOM     27  N   UNL     1      34.057  -8.381 -25.015  0.00  0.00    -0.304 N 
ATOM     28  C   UNL     1      34.500  -7.339 -24.210  0.00  0.00    +0.252 C 
ATOM     29  H   UNL     1      33.290  -8.223 -25.612  0.00  0.00    +0.150 HD
BRANCH  28  32
ATOM     30 CL   UNL     1      32.504  -2.505 -26.010  0.00  0.00    -0.075 Cl
ATOM     31  S   UNL     1      33.964  -5.070 -25.686  0.00  0.00    -0.071 S 
ATOM     32  C   UNL     1      33.742  -6.065 -24.311  0.00  0.00    +0.084 C 
ATOM     33  C   UNL     1      32.835  -5.527 -23.423  0.00  0.00    +0.012 C 
ATOM     34  C   UNL     1      32.317  -4.281 -23.880  0.00  0.00    +0.019 C 
ATOM     35  C   UNL     1      32.846  -3.914 -25.097  0.00  0.00    +0.087 C 
ENDBRANCH  28  32
ENDBRANCH  21  27
ENDBRANCH  19  20
ENDBRANCH   3  19
TORSDOF 6
ENDMDL
MODEL 2
REMARK VINA RESULT:     -11.2      1.109      1.479
REMARK  Name = 42628060
REMARK  6 active torsions:
REMARK  status: ('A' for Active; 'I' for Inactive)
REMARK    1  A    between atoms: N_2  and  C_6
REMARK    2  A    between atoms: C_3  and  C_19
REMARK    3  A    between atoms: C_9  and  N_13
REMARK    4  A    between atoms: C_19  and  N_20
REMARK    5  A    between atoms: C_21  and  N_27
REMARK    6  A    between atoms: C_28  and  C_32
REMARK                            x       y       z     vdW  Elec       q    Type
REMARK                         _______ _______ _______ _____ _____    ______ ____
ROOT
ATOM      1  O   UNL     1      32.492 -13.781 -23.762  0.00  0.00    -0.277 OA
ATOM      2  N   UNL     1      34.106 -15.032 -24.922  0.00  0.00    -0.284 N 
ATOM      3  C   UNL     1      33.220 -13.973 -24.731  0.00  0.00    +0.205 C 
ATOM      4  H   UNL     1      34.611 -15.029 -25.767  0.00  0.00    +0.155 HD
ENDROOT
BRANCH   2   6
ATOM      5  F   UNL     1      34.816 -14.608 -22.262  0.00  0.00    -0.203 F 
ATOM      6  C   UNL     1      34.362 -16.111 -24.044  0.00  0.00    +0.078 C 
ATOM      7  C   UNL     1      34.716 -15.865 -22.717  0.00  0.00    +0.155 C 
ATOM      8  C   UNL     1      34.263 -17.423 -24.506  0.00  0.00    +0.018 C 
ATOM      9  C   UNL     1      34.871 -18.242 -22.317  0.00  0.00    +0.061 C 
ATOM     10  C   UNL     1      34.970 -16.931 -21.853  0.00  0.00    +0.046 C 
ATOM     11  C   UNL     1      34.517 -18.489 -23.643  0.00  0.00    +0.017 C 
BRANCH   9  13
ATOM     12  O   UNL     1      32.886 -20.091 -21.313  0.00  0.00    -0.269 OA
ATOM     13  N   UNL     1      35.135 -19.350 -21.419  0.00  0.00    -0.233 N 
ATOM     14  C   UNL     1      34.065 -20.163 -20.966  0.00  0.00    +0.257 C 
ATOM     15  C   UNL     1      36.441 -19.638 -21.014  0.00  0.00    +0.072 C 
ATOM     16  C   UNL     1      34.419 -21.256 -20.007  0.00  0.00    +0.059 C 
ATOM     17  C   UNL     1      36.734 -20.641 -20.181  0.00  0.00    +0.017 C 
ATOM     18  C   UNL     1      35.689 -21.469 -19.658  0.00  0.00    +0.006 C 
ENDBRANCH   9  13
ENDBRANCH   2   6
BRANCH   3  19
ATOM     19  C   UNL     1      33.257 -13.036 -25.926  0.00  0.00    +0.010 C 
BRANCH  19  20
ATOM     20  N   UNL     1      34.237 -11.987 -25.688  0.00  0.00    +0.394 N 
ATOM     21  C   UNL     1      34.740  -9.756 -25.234  0.00  0.00    +0.049 C 
ATOM     22  C   UNL     1      35.486 -10.180 -26.502  0.00  0.00    -0.005 C 
ATOM     23  C   UNL     1      33.648 -10.806 -25.054  0.00  0.00    -0.057 C 
ATOM     24  C   UNL     1      34.833 -11.489 -26.928  0.00  0.00    -0.075 C 
ATOM     25  H   UNL     1      34.933 -12.429 -25.088  0.00  0.00    -0.079 HD
BRANCH  21  27
ATOM     26  O   UNL     1      35.381  -7.544 -23.520  0.00  0.00    -0.270 OA
ATOM     27  N   UNL     1      34.208  -8.425 -25.317  0.00  0.00    -0.304 N 
ATOM     28  C   UNL     1      34.577  -7.412 -24.441  0.00  0.00    +0.252 C 
ATOM     29  H   UNL     1      33.554  -8.221 -26.025  0.00  0.00    +0.150 HD
BRANCH  28  32
ATOM     30 CL   UNL     1      31.392  -2.938 -23.775  0.00  0.00    -0.075 Cl
ATOM     31  S   UNL     1      32.777  -5.549 -23.488  0.00  0.00    -0.071 S 
ATOM     32  C   UNL     1      33.915  -6.097 -24.644  0.00  0.00    +0.084 C 
ATOM     33  C   UNL     1      34.083  -5.195 -25.672  0.00  0.00    +0.012 C 
ATOM     34  C   UNL     1      33.266  -4.040 -25.508  0.00  0.00    +0.019 C 
ATOM     35  C   UNL     1      32.505  -4.102 -24.362  0.00  0.00    +0.087 C 
ENDBRANCH  28  32
ENDBRANCH  21  27
ENDBRANCH  19  20
ENDBRANCH   3  19
TORSDOF 6
ENDMDL
MODEL 3
REMARK VINA RESULT:     -10.9      7.529     14.117
REMARK  Name = 42628060
REMARK  6 active torsions:
REMARK  status: ('A' for Active; 'I' for Inactive)
REMARK    1  A    between atoms: N_2  and  C_6
REMARK    2  A    between atoms: C_3  and  C_19
REMARK    3  A    between atoms: C_9  and  N_13
REMARK    4  A    between atoms: C_19  and  N_20
REMARK    5  A    between atoms: C_21  and  N_27
REMARK    6  A    between atoms: C_28  and  C_32
REMARK                            x       y       z     vdW  Elec       q    Type
REMARK                         _______ _______ _______ _____ _____    ______ ____
ROOT
ATOM      1  O   UNL     1      33.332 -20.182 -20.887  0.00  0.00    -0.277 OA
ATOM      2  N   UNL     1      35.420 -19.396 -21.620  0.00  0.00    -0.284 N 
ATOM      3  C   UNL     1      34.549 -20.290 -20.999  0.00  0.00    +0.205 C 
ATOM      4  H   UNL     1      36.373 -19.642 -21.612  0.00  0.00    +0.155 HD
ENDROOT
BRANCH   2   6
ATOM      5  F   UNL     1      34.977 -19.265 -24.367  0.00  0.00    -0.203 F 
ATOM      6  C   UNL     1      35.094 -18.177 -22.259  0.00  0.00    +0.078 C 
ATOM      7  C   UNL     1      34.878 -18.145 -23.636  0.00  0.00    +0.155 C 
ATOM      8  C   UNL     1      34.990 -17.005 -21.509  0.00  0.00    +0.018 C 
ATOM      9  C   UNL     1      34.454 -15.770 -23.515  0.00  0.00    +0.061 C 
ATOM     10  C   UNL     1      34.558 -16.941 -24.265  0.00  0.00    +0.046 C 
ATOM     11  C   UNL     1      34.669 -15.801 -22.137  0.00  0.00    +0.017 C 
BRANCH   9  13
ATOM     12  O   UNL     1      33.513 -15.502 -26.237  0.00  0.00    -0.269 OA
ATOM     13  N   UNL     1      34.122 -14.518 -24.167  0.00  0.00    -0.233 N 
ATOM     14  C   UNL     1      33.708 -14.517 -25.524  0.00  0.00    +0.257 C 
ATOM     15  C   UNL     1      34.185 -13.313 -23.463  0.00  0.00    +0.072 C 
ATOM     16  C   UNL     1      33.429 -13.179 -26.134  0.00  0.00    +0.059 C 
ATOM     17  C   UNL     1      33.898 -12.133 -24.023  0.00  0.00    +0.017 C 
ATOM     18  C   UNL     1      33.515 -12.067 -25.401  0.00  0.00    +0.006 C 
ENDBRANCH   9  13
ENDBRANCH   2   6
BRANCH   3  19
ATOM     19  C   UNL     1      35.321 -21.474 -20.441  0.00  0.00    +0.010 C 
BRANCH  19  20
ATOM     20  N   UNL     1      34.972 -21.662 -19.041  0.00  0.00    +0.394 N 
ATOM     21  C   UNL     1      35.534 -22.389 -16.899  0.00  0.00    +0.049 C 
ATOM     22  C   UNL     1      34.234 -23.076 -17.325  0.00  0.00    -0.005 C 
ATOM     23  C   UNL     1      36.149 -21.875 -18.196  0.00  0.00    -0.057 C 
ATOM     24  C   UNL     1      34.139 -22.846 -18.829  0.00  0.00    -0.075 C 
ATOM     25  H   UNL     1      34.480 -20.805 -18.791  0.00  0.00    -0.079 HD
BRANCH  21  27
ATOM     26  O   UNL     1      35.381 -23.090 -14.119  0.00  0.00    -0.270 OA
ATOM     27  N   UNL     1      36.421 -23.266 -16.185  0.00  0.00    -0.304 N 
ATOM     28  C   UNL     1      36.270 -23.549 -14.833  0.00  0.00    +0.252 C 
ATOM     29  H   UNL     1      37.167 -23.683 -16.674  0.00  0.00    +0.150 HD
BRANCH  28  32
ATOM     30 CL   UNL     1      40.752 -26.705 -14.091  0.00  0.00    -0.075 Cl
ATOM     31  S   UNL     1      38.648 -24.909 -15.169  0.00  0.00    -0.071 S 
ATOM     32  C   UNL     1      37.287 -24.454 -14.236  0.00  0.00    +0.084 C 
ATOM     33  C   UNL     1      37.310 -25.016 -12.979  0.00  0.00    +0.012 C 
ATOM     34  C   UNL     1      38.462 -25.831 -12.779  0.00  0.00    +0.019 C 
ATOM     35  C   UNL     1      39.274 -25.861 -13.891  0.00  0.00    +0.087 C 
ENDBRANCH  28  32
ENDBRANCH  21  27
ENDBRANCH  19  20
ENDBRANCH   3  19
TORSDOF 6
ENDMDL
MODEL 4
REMARK VINA RESULT:     -10.9      2.829      5.288
REMARK  Name = 42628060
REMARK  6 active torsions:
REMARK  status: ('A' for Active; 'I' for Inactive)
REMARK    1  A    between atoms: N_2  and  C_6
REMARK    2  A    between atoms: C_3  and  C_19
REMARK    3  A    between atoms: C_9  and  N_13
REMARK    4  A    between atoms: C_19  and  N_20
REMARK    5  A    between atoms: C_21  and  N_27
REMARK    6  A    between atoms: C_28  and  C_32
REMARK                            x       y       z     vdW  Elec       q    Type
REMARK                         _______ _______ _______ _____ _____    ______ ____
ROOT
ATOM      1  O   UNL     1      36.626 -18.632 -22.631  0.00  0.00    -0.277 OA
ATOM      2  N   UNL     1      34.387 -19.306 -22.411  0.00  0.00    -0.284 N 
ATOM      3  C   UNL     1      35.455 -18.631 -22.999  0.00  0.00    +0.205 C 
ATOM      4  H   UNL     1      33.509 -19.186 -22.839  0.00  0.00    +0.155 HD
ENDROOT
BRANCH   2   6
ATOM      5  F   UNL     1      32.044 -20.227 -21.217  0.00  0.00    -0.203 F 
ATOM      6  C   UNL     1      34.417 -20.141 -21.270  0.00  0.00    +0.078 C 
ATOM      7  C   UNL     1      33.226 -20.586 -20.696  0.00  0.00    +0.155 C 
ATOM      8  C   UNL     1      35.641 -20.520 -20.718  0.00  0.00    +0.018 C 
ATOM      9  C   UNL     1      34.483 -21.787 -19.019  0.00  0.00    +0.061 C 
ATOM     10  C   UNL     1      33.259 -21.409 -19.570  0.00  0.00    +0.046 C 
ATOM     11  C   UNL     1      35.674 -21.343 -19.592  0.00  0.00    +0.017 C 
BRANCH   9  13
ATOM     12  O   UNL     1      36.690 -21.989 -17.161  0.00  0.00    -0.269 OA
ATOM     13  N   UNL     1      34.518 -22.642 -17.848  0.00  0.00    -0.233 N 
ATOM     14  C   UNL     1      35.680 -22.681 -17.035  0.00  0.00    +0.257 C 
ATOM     15  C   UNL     1      33.406 -23.414 -17.501  0.00  0.00    +0.072 C 
ATOM     16  C   UNL     1      35.649 -23.624 -15.873  0.00  0.00    +0.059 C 
ATOM     17  C   UNL     1      33.393 -24.225 -16.438  0.00  0.00    +0.017 C 
ATOM     18  C   UNL     1      34.552 -24.335 -15.605  0.00  0.00    +0.006 C 
ENDBRANCH   9  13
ENDBRANCH   2   6
BRANCH   3  19
ATOM     19  C   UNL     1      34.978 -17.845 -24.208  0.00  0.00    +0.010 C 
BRANCH  19  20
ATOM     20  N   UNL     1      34.227 -16.681 -23.763  0.00  0.00    +0.394 N 
ATOM     21  C   UNL     1      33.656 -14.433 -24.001  0.00  0.00    +0.049 C 
ATOM     22  C   UNL     1      34.163 -14.663 -22.575  0.00  0.00    -0.005 C 
ATOM     23  C   UNL     1      34.150 -15.641 -24.791  0.00  0.00    -0.057 C 
ATOM     24  C   UNL     1      34.846 -16.024 -22.612  0.00  0.00    -0.075 C 
ATOM     25  H   UNL     1      33.306 -17.053 -23.535  0.00  0.00    -0.079 HD
BRANCH  21  27
ATOM     26  O   UNL     1      32.789 -11.798 -23.261  0.00  0.00    -0.270 OA
ATOM     27  N   UNL     1      34.110 -13.191 -24.563  0.00  0.00    -0.304 N 
ATOM     28  C   UNL     1      33.633 -11.957 -24.141  0.00  0.00    +0.252 C 
ATOM     29  H   UNL     1      34.788 -13.216 -25.277  0.00  0.00    +0.150 HD
BRANCH  28  32
ATOM     30 CL   UNL     1      35.043  -6.766 -25.431  0.00  0.00    -0.075 Cl
ATOM     31  S   UNL     1      33.982  -9.219 -24.138  0.00  0.00    -0.071 S 
ATOM     32  C   UNL     1      34.184 -10.767 -24.840  0.00  0.00    +0.084 C 
ATOM     33  C   UNL     1      34.872 -10.708 -26.032  0.00  0.00    +0.012 C 
ATOM     34  C   UNL     1      35.239  -9.374 -26.372  0.00  0.00    +0.019 C 
ATOM     35  C   UNL     1      34.817  -8.465 -25.428  0.00  0.00    +0.087 C 
ENDBRANCH  28  32
ENDBRANCH  21  27
ENDBRANCH  19  20
ENDBRANCH   3  19
TORSDOF 6
ENDMDL
MODEL 5
REMARK VINA RESULT:     -10.7      5.182      8.536
REMARK  Name = 42628060
REMARK  6 active torsions:
REMARK  status: ('A' for Active; 'I' for Inactive)
REMARK    1  A    between atoms: N_2  and  C_6
REMARK    2  A    between atoms: C_3  and  C_19
REMARK    3  A    between atoms: C_9  and  N_13
REMARK    4  A    between atoms: C_19  and  N_20
REMARK    5  A    between atoms: C_21  and  N_27
REMARK    6  A    between atoms: C_28  and  C_32
REMARK                            x       y       z     vdW  Elec       q    Type
REMARK                         _______ _______ _______ _____ _____    ______ ____
ROOT
ATOM      1  O   UNL     1      36.453 -20.304 -20.098  0.00  0.00    -0.277 OA
ATOM      2  N   UNL     1      34.635 -21.605 -19.378  0.00  0.00    -0.284 N 
ATOM      3  C   UNL     1      35.308 -20.726 -20.225  0.00  0.00    +0.205 C 
ATOM      4  H   UNL     1      33.712 -21.833 -19.633  0.00  0.00    +0.155 HD
ENDROOT
BRANCH   2   6
ATOM      5  F   UNL     1      32.984 -23.126 -17.728  0.00  0.00    -0.203 F 
ATOM      6  C   UNL     1      35.124 -22.207 -18.195  0.00  0.00    +0.078 C 
ATOM      7  C   UNL     1      34.271 -22.963 -17.390  0.00  0.00    +0.155 C 
ATOM      8  C   UNL     1      36.461 -22.042 -17.832  0.00  0.00    +0.018 C 
ATOM      9  C   UNL     1      36.093 -23.390 -15.861  0.00  0.00    +0.061 C 
ATOM     10  C   UNL     1      34.756 -23.555 -16.223  0.00  0.00    +0.046 C 
ATOM     11  C   UNL     1      36.945 -22.634 -16.665  0.00  0.00    +0.017 C 
BRANCH   9  13
ATOM     12  O   UNL     1      36.809 -26.177 -15.572  0.00  0.00    -0.269 OA
ATOM     13  N   UNL     1      36.596 -24.004 -14.648  0.00  0.00    -0.233 N 
ATOM     14  C   UNL     1      36.874 -25.395 -14.623  0.00  0.00    +0.257 C 
ATOM     15  C   UNL     1      36.831 -23.232 -13.508  0.00  0.00    +0.072 C 
ATOM     16  C   UNL     1      37.347 -25.956 -13.319  0.00  0.00    +0.059 C 
ATOM     17  C   UNL     1      37.285 -23.753 -12.363  0.00  0.00    +0.017 C 
ATOM     18  C   UNL     1      37.544 -25.158 -12.267  0.00  0.00    +0.006 C 
ENDBRANCH   9  13
ENDBRANCH   2   6
BRANCH   3  19
ATOM     19  C   UNL     1      34.410 -20.321 -21.382  0.00  0.00    +0.010 C 
BRANCH  19  20
ATOM     20  N   UNL     1      35.076 -19.299 -22.176  0.00  0.00    +0.394 N 
ATOM     21  C   UNL     1      35.262 -17.081 -22.869  0.00  0.00    +0.049 C 
ATOM     22  C   UNL     1      35.135 -17.974 -24.107  0.00  0.00    -0.005 C 
ATOM     23  C   UNL     1      34.770 -17.944 -21.712  0.00  0.00    -0.057 C 
ATOM     24  C   UNL     1      34.656 -19.320 -23.577  0.00  0.00    -0.075 C 
ATOM     25  H   UNL     1      36.068 -19.516 -22.077  0.00  0.00    -0.079 HD
BRANCH  21  27
ATOM     26  O   UNL     1      34.486 -15.336 -20.727  0.00  0.00    -0.270 OA
ATOM     27  N   UNL     1      34.523 -15.855 -22.987  0.00  0.00    -0.304 N 
ATOM     28  C   UNL     1      34.190 -15.070 -21.890  0.00  0.00    +0.252 C 
ATOM     29  H   UNL     1      34.241 -15.558 -23.883  0.00  0.00    +0.150 HD
BRANCH  28  32
ATOM     30 CL   UNL     1      30.515 -10.950 -21.548  0.00  0.00    -0.075 Cl
ATOM     31  S   UNL     1      32.159 -13.380 -21.092  0.00  0.00    -0.071 S 
ATOM     32  C   UNL     1      33.400 -13.845 -22.176  0.00  0.00    +0.084 C 
ATOM     33  C   UNL     1      33.515 -12.972 -23.236  0.00  0.00    +0.012 C 
ATOM     34  C   UNL     1      32.571 -11.907 -23.156  0.00  0.00    +0.019 C 
ATOM     35  C   UNL     1      31.771 -12.007 -22.039  0.00  0.00    +0.087 C 
ENDBRANCH  28  32
ENDBRANCH  21  27
ENDBRANCH  19  20
ENDBRANCH   3  19
TORSDOF 6
ENDMDL
MODEL 6
REMARK VINA RESULT:     -10.2      5.281     11.817
REMARK  Name = 42628060
REMARK  6 active torsions:
REMARK  status: ('A' for Active; 'I' for Inactive)
REMARK    1  A    between atoms: N_2  and  C_6
REMARK    2  A    between atoms: C_3  and  C_19
REMARK    3  A    between atoms: C_9  and  N_13
REMARK    4  A    between atoms: C_19  and  N_20
REMARK    5  A    between atoms: C_21  and  N_27
REMARK    6  A    between atoms: C_28  and  C_32
REMARK                            x       y       z     vdW  Elec       q    Type
REMARK                         _______ _______ _______ _____ _____    ______ ____
ROOT
ATOM      1  O   UNL     1      32.279 -14.103 -25.853  0.00  0.00    -0.277 OA
ATOM      2  N   UNL     1      34.312 -13.164 -25.146  0.00  0.00    -0.284 N 
ATOM      3  C   UNL     1      33.451 -14.200 -25.501  0.00  0.00    +0.205 C 
ATOM      4  H   UNL     1      35.223 -13.427 -24.883  0.00  0.00    +0.155 HD
ENDROOT
BRANCH   2   6
ATOM      5  F   UNL     1      34.726 -11.548 -27.377  0.00  0.00    -0.203 F 
ATOM      6  C   UNL     1      34.029 -11.778 -25.119  0.00  0.00    +0.078 C 
ATOM      7  C   UNL     1      34.248 -10.997 -26.253  0.00  0.00    +0.155 C 
ATOM      8  C   UNL     1      33.532 -11.193 -23.954  0.00  0.00    +0.018 C 
ATOM      9  C   UNL     1      33.471  -9.045 -25.059  0.00  0.00    +0.061 C 
ATOM     10  C   UNL     1      33.968  -9.630 -26.223  0.00  0.00    +0.046 C 
ATOM     11  C   UNL     1      33.253  -9.826 -23.924  0.00  0.00    +0.017 C 
BRANCH   9  13
ATOM     12  O   UNL     1      35.351  -6.973 -24.326  0.00  0.00    -0.269 OA
ATOM     13  N   UNL     1      33.182  -7.625 -25.027  0.00  0.00    -0.233 N 
ATOM     14  C   UNL     1      34.182  -6.709 -24.610  0.00  0.00    +0.257 C 
ATOM     15  C   UNL     1      31.931  -7.147 -25.424  0.00  0.00    +0.072 C 
ATOM     16  C   UNL     1      33.786  -5.267 -24.562  0.00  0.00    +0.059 C 
ATOM     17  C   UNL     1      31.613  -5.849 -25.404  0.00  0.00    +0.017 C 
ATOM     18  C   UNL     1      32.569  -4.883 -24.953  0.00  0.00    +0.006 C 
ENDBRANCH   9  13
ENDBRANCH   2   6
BRANCH   3  19
ATOM     19  C   UNL     1      34.164 -15.537 -25.390  0.00  0.00    +0.010 C 
BRANCH  19  20
ATOM     20  N   UNL     1      34.776 -15.651 -24.075  0.00  0.00    +0.394 N 
ATOM     21  C   UNL     1      35.173 -16.874 -22.131  0.00  0.00    +0.049 C 
ATOM     22  C   UNL     1      34.575 -15.519 -21.745  0.00  0.00    -0.005 C 
ATOM     23  C   UNL     1      34.848 -17.038 -23.612  0.00  0.00    -0.057 C 
ATOM     24  C   UNL     1      34.014 -14.950 -23.042  0.00  0.00    -0.075 C 
ATOM     25  H   UNL     1      35.704 -15.247 -24.198  0.00  0.00    -0.079 HD
BRANCH  21  27
ATOM     26  O   UNL     1      35.359 -19.675 -22.730  0.00  0.00    -0.270 OA
ATOM     27  N   UNL     1      34.662 -17.957 -21.337  0.00  0.00    -0.304 N 
ATOM     28  C   UNL     1      34.799 -19.289 -21.707  0.00  0.00    +0.252 C 
ATOM     29  H   UNL     1      34.195 -17.746 -20.496  0.00  0.00    +0.150 HD
BRANCH  28  32
ATOM     30 CL   UNL     1      34.127 -23.365 -18.028  0.00  0.00    -0.075 Cl
ATOM     31  S   UNL     1      35.215 -21.330 -19.897  0.00  0.00    -0.071 S 
ATOM     32  C   UNL     1      34.192 -20.289 -20.791  0.00  0.00    +0.084 C 
ATOM     33  C   UNL     1      32.859 -20.525 -20.530  0.00  0.00    +0.012 C 
ATOM     34  C   UNL     1      32.678 -21.574 -19.583  0.00  0.00    +0.019 C 
ATOM     35  C   UNL     1      33.877 -22.100 -19.157  0.00  0.00    +0.087 C 
ENDBRANCH  28  32
ENDBRANCH  21  27
ENDBRANCH  19  20
ENDBRANCH   3  19
TORSDOF 6
ENDMDL
MODEL 7
REMARK VINA RESULT:     -10.0      3.976      6.508
REMARK  Name = 42628060
REMARK  6 active torsions:
REMARK  status: ('A' for Active; 'I' for Inactive)
REMARK    1  A    between atoms: N_2  and  C_6
REMARK    2  A    between atoms: C_3  and  C_19
REMARK    3  A    between atoms: C_9  and  N_13
REMARK    4  A    between atoms: C_19  and  N_20
REMARK    5  A    between atoms: C_21  and  N_27
REMARK    6  A    between atoms: C_28  and  C_32
REMARK                            x       y       z     vdW  Elec       q    Type
REMARK                         _______ _______ _______ _____ _____    ______ ____
ROOT
ATOM      1  O   UNL     1      35.129 -17.975 -21.074  0.00  0.00    -0.277 OA
ATOM      2  N   UNL     1      35.398 -20.240 -21.633  0.00  0.00    -0.284 N 
ATOM      3  C   UNL     1      35.542 -18.865 -21.810  0.00  0.00    +0.205 C 
ATOM      4  H   UNL     1      35.792 -20.811 -22.331  0.00  0.00    +0.155 HD
ENDROOT
BRANCH   2   6
ATOM      5  F   UNL     1      32.625 -20.202 -21.359  0.00  0.00    -0.203 F 
ATOM      6  C   UNL     1      34.750 -20.909 -20.568  0.00  0.00    +0.078 C 
ATOM      7  C   UNL     1      33.360 -20.870 -20.459  0.00  0.00    +0.155 C 
ATOM      8  C   UNL     1      35.505 -21.606 -19.624  0.00  0.00    +0.018 C 
ATOM      9  C   UNL     1      33.479 -22.227 -18.464  0.00  0.00    +0.061 C 
ATOM     10  C   UNL     1      32.725 -21.530 -19.407  0.00  0.00    +0.046 C 
ATOM     11  C   UNL     1      34.869 -22.266 -18.572  0.00  0.00    +0.017 C 
BRANCH   9  13
ATOM     12  O   UNL     1      34.817 -23.701 -16.365  0.00  0.00    -0.269 OA
ATOM     13  N   UNL     1      32.819 -22.912 -17.370  0.00  0.00    -0.233 N 
ATOM     14  C   UNL     1      33.588 -23.637 -16.423  0.00  0.00    +0.257 C 
ATOM     15  C   UNL     1      31.431 -22.848 -17.227  0.00  0.00    +0.072 C 
ATOM     16  C   UNL     1      32.826 -24.352 -15.352  0.00  0.00    +0.059 C 
ATOM     17  C   UNL     1      30.776 -23.470 -16.242  0.00  0.00    +0.017 C 
ATOM     18  C   UNL     1      31.497 -24.250 -15.281  0.00  0.00    +0.006 C 
ENDBRANCH   9  13
ENDBRANCH   2   6
BRANCH   3  19
ATOM     19  C   UNL     1      36.306 -18.578 -23.092  0.00  0.00    +0.010 C 
BRANCH  19  20
ATOM     20  N   UNL     1      35.538 -17.657 -23.917  0.00  0.00    +0.394 N 
ATOM     21  C   UNL     1      34.328 -15.677 -24.145  0.00  0.00    +0.049 C 
ATOM     22  C   UNL     1      33.457 -16.843 -24.619  0.00  0.00    -0.005 C 
ATOM     23  C   UNL     1      35.432 -16.326 -23.316  0.00  0.00    -0.057 C 
ATOM     24  C   UNL     1      34.155 -18.095 -24.103  0.00  0.00    -0.075 C 
ATOM     25  H   UNL     1      36.048 -17.631 -24.799  0.00  0.00    -0.079 HD
BRANCH  21  27
ATOM     26  O   UNL     1      33.841 -12.953 -24.909  0.00  0.00    -0.270 OA
ATOM     27  N   UNL     1      33.591 -14.695 -23.399  0.00  0.00    -0.304 N 
ATOM     28  C   UNL     1      33.405 -13.394 -23.848  0.00  0.00    +0.252 C 
ATOM     29  H   UNL     1      33.202 -14.956 -22.532  0.00  0.00    +0.150 HD
BRANCH  28  32
ATOM     30 CL   UNL     1      31.238  -8.894 -21.471  0.00  0.00    -0.075 Cl
ATOM     31  S   UNL     1      32.721 -10.801 -23.197  0.00  0.00    -0.071 S 
ATOM     32  C   UNL     1      32.642 -12.492 -22.947  0.00  0.00    +0.084 C 
ATOM     33  C   UNL     1      31.832 -12.820 -21.881  0.00  0.00    +0.012 C 
ATOM     34  C   UNL     1      31.270 -11.666 -21.263  0.00  0.00    +0.019 C 
ATOM     35  C   UNL     1      31.671 -10.502 -21.878  0.00  0.00    +0.087 C 
ENDBRANCH  28  32
ENDBRANCH  21  27
ENDBRANCH  19  20
ENDBRANCH   3  19
TORSDOF 6
ENDMDL
MODEL 8
REMARK VINA RESULT:      -9.4      5.148      9.045
REMARK  Name = 42628060
REMARK  6 active torsions:
REMARK  status: ('A' for Active; 'I' for Inactive)
REMARK    1  A    between atoms: N_2  and  C_6
REMARK    2  A    between atoms: C_3  and  C_19
REMARK    3  A    between atoms: C_9  and  N_13
REMARK    4  A    between atoms: C_19  and  N_20
REMARK    5  A    between atoms: C_21  and  N_27
REMARK    6  A    between atoms: C_28  and  C_32
REMARK                            x       y       z     vdW  Elec       q    Type
REMARK                         _______ _______ _______ _____ _____    ______ ____
ROOT
ATOM      1  O   UNL     1      35.965 -21.979 -20.512  0.00  0.00    -0.277 OA
ATOM      2  N   UNL     1      36.691 -20.777 -18.629  0.00  0.00    -0.284 N 
ATOM      3  C   UNL     1      36.338 -20.944 -19.967  0.00  0.00    +0.205 C 
ATOM      4  H   UNL     1      36.973 -19.873 -18.364  0.00  0.00    +0.155 HD
ENDROOT
BRANCH   2   6
ATOM      5  F   UNL     1      34.391 -22.210 -17.982  0.00  0.00    -0.203 F 
ATOM      6  C   UNL     1      36.692 -21.757 -17.609  0.00  0.00    +0.078 C 
ATOM      7  C   UNL     1      35.523 -22.457 -17.309  0.00  0.00    +0.155 C 
ATOM      8  C   UNL     1      37.865 -22.022 -16.900  0.00  0.00    +0.018 C 
ATOM      9  C   UNL     1      36.699 -23.686 -15.594  0.00  0.00    +0.061 C 
ATOM     10  C   UNL     1      35.527 -23.422 -16.301  0.00  0.00    +0.046 C 
ATOM     11  C   UNL     1      37.868 -22.987 -15.893  0.00  0.00    +0.017 C 
BRANCH   9  13
ATOM     12  O   UNL     1      36.119 -23.190 -12.804  0.00  0.00    -0.269 OA
ATOM     13  N   UNL     1      36.703 -24.688 -14.546  0.00  0.00    -0.233 N 
ATOM     14  C   UNL     1      36.441 -24.309 -13.204  0.00  0.00    +0.257 C 
ATOM     15  C   UNL     1      36.943 -26.031 -14.849  0.00  0.00    +0.072 C 
ATOM     16  C   UNL     1      36.509 -25.397 -12.179  0.00  0.00    +0.059 C 
ATOM     17  C   UNL     1      36.967 -26.989 -13.918  0.00  0.00    +0.017 C 
ATOM     18  C   UNL     1      36.749 -26.658 -12.542  0.00  0.00    +0.006 C 
ENDBRANCH   9  13
ENDBRANCH   2   6
BRANCH   3  19
ATOM     19  C   UNL     1      36.481 -19.630 -20.716  0.00  0.00    +0.010 C 
BRANCH  19  20
ATOM     20  N   UNL     1      35.700 -19.685 -21.943  0.00  0.00    +0.394 N 
ATOM     21  C   UNL     1      34.838 -18.635 -23.837  0.00  0.00    +0.049 C 
ATOM     22  C   UNL     1      33.683 -19.277 -23.063  0.00  0.00    -0.005 C 
ATOM     23  C   UNL     1      35.987 -18.561 -22.837  0.00  0.00    -0.057 C 
ATOM     24  C   UNL     1      34.261 -19.607 -21.692  0.00  0.00    -0.075 C 
ATOM     25  H   UNL     1      35.961 -20.576 -22.363  0.00  0.00    -0.079 HD
BRANCH  21  27
ATOM     26  O   UNL     1      34.779 -16.143 -22.414  0.00  0.00    -0.270 OA
ATOM     27  N   UNL     1      34.501 -17.347 -24.377  0.00  0.00    -0.304 N 
ATOM     28  C   UNL     1      34.499 -16.189 -23.610  0.00  0.00    +0.252 C 
ATOM     29  H   UNL     1      34.261 -17.282 -25.330  0.00  0.00    +0.150 HD
BRANCH  28  32
ATOM     30 CL   UNL     1      33.469 -10.880 -24.774  0.00  0.00    -0.075 Cl
ATOM     31  S   UNL     1      34.224 -13.445 -23.484  0.00  0.00    -0.071 S 
ATOM     32  C   UNL     1      34.102 -14.940 -24.310  0.00  0.00    +0.084 C 
ATOM     33  C   UNL     1      33.625 -14.784 -25.593  0.00  0.00    +0.012 C 
ATOM     34  C   UNL     1      33.357 -13.419 -25.901  0.00  0.00    +0.019 C 
ATOM     35  C   UNL     1      33.638 -12.584 -24.843  0.00  0.00    +0.087 C 
ENDBRANCH  28  32
ENDBRANCH  21  27
ENDBRANCH  19  20
ENDBRANCH   3  19
TORSDOF 6
ENDMDL
MODEL 9
REMARK VINA RESULT:      -9.4      8.477     14.353
REMARK  Name = 42628060
REMARK  6 active torsions:
REMARK  status: ('A' for Active; 'I' for Inactive)
REMARK    1  A    between atoms: N_2  and  C_6
REMARK    2  A    between atoms: C_3  and  C_19
REMARK    3  A    between atoms: C_9  and  N_13
REMARK    4  A    between atoms: C_19  and  N_20
REMARK    5  A    between atoms: C_21  and  N_27
REMARK    6  A    between atoms: C_28  and  C_32
REMARK                            x       y       z     vdW  Elec       q    Type
REMARK                         _______ _______ _______ _____ _____    ______ ____
ROOT
ATOM      1  O   UNL     1      36.051 -21.314 -16.102  0.00  0.00    -0.277 OA
ATOM      2  N   UNL     1      36.863 -22.406 -18.016  0.00  0.00    -0.284 N 
ATOM      3  C   UNL     1      36.662 -22.227 -16.648  0.00  0.00    +0.205 C 
ATOM      4  H   UNL     1      37.385 -23.198 -18.279  0.00  0.00    +0.155 HD
ENDROOT
BRANCH   2   6
ATOM      5  F   UNL     1      34.275 -22.632 -19.021  0.00  0.00    -0.203 F 
ATOM      6  C   UNL     1      36.404 -21.582 -19.070  0.00  0.00    +0.078 C 
ATOM      7  C   UNL     1      35.102 -21.721 -19.551  0.00  0.00    +0.155 C 
ATOM      8  C   UNL     1      37.257 -20.631 -19.631  0.00  0.00    +0.018 C 
ATOM      9  C   UNL     1      35.505 -19.956 -21.152  0.00  0.00    +0.061 C 
ATOM     10  C   UNL     1      34.652 -20.907 -20.591  0.00  0.00    +0.046 C 
ATOM     11  C   UNL     1      36.807 -19.817 -20.672  0.00  0.00    +0.017 C 
BRANCH   9  13
ATOM     12  O   UNL     1      35.271 -17.076 -21.041  0.00  0.00    -0.269 OA
ATOM     13  N   UNL     1      35.038 -19.112 -22.234  0.00  0.00    -0.233 N 
ATOM     14  C   UNL     1      34.931 -17.710 -22.040  0.00  0.00    +0.257 C 
ATOM     15  C   UNL     1      34.713 -19.664 -23.475  0.00  0.00    +0.072 C 
ATOM     16  C   UNL     1      34.397 -16.918 -23.192  0.00  0.00    +0.059 C 
ATOM     17  C   UNL     1      34.270 -18.929 -24.500  0.00  0.00    +0.017 C 
ATOM     18  C   UNL     1      34.101 -17.515 -24.348  0.00  0.00    +0.006 C 
ENDBRANCH   9  13
ENDBRANCH   2   6
BRANCH   3  19
ATOM     19  C   UNL     1      37.328 -23.348 -15.869  0.00  0.00    +0.010 C 
BRANCH  19  20
ATOM     20  N   UNL     1      36.335 -24.021 -15.046  0.00  0.00    +0.394 N 
ATOM     21  C   UNL     1      34.145 -24.749 -14.711  0.00  0.00    +0.049 C 
ATOM     22  C   UNL     1      34.565 -23.887 -13.517  0.00  0.00    -0.005 C 
ATOM     23  C   UNL     1      35.147 -24.409 -15.810  0.00  0.00    -0.057 C 
ATOM     24  C   UNL     1      35.827 -23.166 -13.973  0.00  0.00    -0.075 C 
ATOM     25  H   UNL     1      36.828 -24.835 -14.678  0.00  0.00    -0.079 HD
BRANCH  21  27
ATOM     26  O   UNL     1      31.773 -25.416 -13.239  0.00  0.00    -0.270 OA
ATOM     27  N   UNL     1      32.788 -24.515 -15.120  0.00  0.00    -0.304 N 
ATOM     28  C   UNL     1      31.696 -24.873 -14.339  0.00  0.00    +0.252 C 
ATOM     29  H   UNL     1      32.625 -24.083 -15.990  0.00  0.00    +0.150 HD
BRANCH  28  32
ATOM     30 CL   UNL     1      27.384 -22.316 -16.677  0.00  0.00    -0.075 Cl
ATOM     31  S   UNL     1      30.018 -23.013 -15.497  0.00  0.00    -0.071 S 
ATOM     32  C   UNL     1      30.356 -24.587 -14.915  0.00  0.00    +0.084 C 
ATOM     33  C   UNL     1      29.282 -25.436 -15.066  0.00  0.00    +0.012 C 
ATOM     34  C   UNL     1      28.167 -24.785 -15.667  0.00  0.00    +0.019 C 
ATOM     35  C   UNL     1      28.431 -23.464 -15.953  0.00  0.00    +0.087 C 
ENDBRANCH  28  32
ENDBRANCH  21  27
ENDBRANCH  19  20
ENDBRANCH   3  19
TORSDOF 6
ENDMDL
