MODEL 1
REMARK VINA RESULT:     -11.9      0.000      0.000
REMARK  Name = 448408
REMARK  8 active torsions:
REMARK  status: ('A' for Active; 'I' for Inactive)
REMARK    1  A    between atoms: N_2  and  C_25
REMARK    2  A    between atoms: C_3  and  C_6
REMARK    3  A    between atoms: C_5  and  N_12
REMARK    4  A    between atoms: C_25  and  C_26
REMARK    5  A    between atoms: C_27  and  S_32
REMARK    6  A    between atoms: S_32  and  C_33
REMARK    7  A    between atoms: C_34  and  C_39
REMARK    8  A    between atoms: C_39  and  O_40
REMARK                            x       y       z     vdW  Elec       q    Type
REMARK                         _______ _______ _______ _____ _____    ______ ____
ROOT
ATOM      1  O   UNL     1      37.460 -19.397 -19.937  0.00  0.00    -0.270 OA
ATOM      2  N   UNL     1      35.776 -20.987 -19.835  0.00  0.00    -0.297 N 
ATOM      3  C   UNL     1      36.393 -19.856 -20.382  0.00  0.00    +0.246 C 
ATOM      4  H   UNL     1      34.931 -21.296 -20.236  0.00  0.00    +0.150 HD
ENDROOT
BRANCH   3   6
ATOM      5  C   UNL     1      34.931 -17.178 -22.584  0.00  0.00    +0.090 C 
ATOM      6  C   UNL     1      35.716 -19.207 -21.494  0.00  0.00    +0.055 C 
ATOM      7  C   UNL     1      35.582 -17.819 -21.516  0.00  0.00    +0.023 C 
ATOM      8  C   UNL     1      34.417 -17.965 -23.628  0.00  0.00    +0.018 C 
ATOM      9  C   UNL     1      35.201 -19.975 -22.540  0.00  0.00    +0.005 C 
ATOM     10  C   UNL     1      34.552 -19.354 -23.606  0.00  0.00    +0.002 C 
BRANCH   5  12
ATOM     11  O   UNL     1      32.076 -13.240 -20.758  0.00  0.00    -0.207 OA
ATOM     12  N   UNL     1      34.798 -15.794 -22.606  0.00  0.00    -0.137 N 
ATOM     13  N   UNL     1      35.024 -15.011 -23.694  0.00  0.00    -0.215 N 
ATOM     14  N   UNL     1      33.884 -15.203 -21.736  0.00  0.00    -0.143 NA
ATOM     15  N   UNL     1      34.063 -12.818 -24.250  0.00  0.00    -0.309 NA
ATOM     16  N   UNL     1      32.500 -11.943 -22.632  0.00  0.00    -0.251 NA
ATOM     17  N   UNL     1      32.999 -10.735 -24.540  0.00  0.00    -0.283 N 
ATOM     18  C   UNL     1      34.274 -13.887 -23.577  0.00  0.00    +0.243 C 
ATOM     19  C   UNL     1      33.570 -14.078 -22.300  0.00  0.00    +0.241 C 
ATOM     20  C   UNL     1      32.643 -13.045 -21.822  0.00  0.00    +0.239 C 
ATOM     21  C   UNL     1      33.173 -11.857 -23.762  0.00  0.00    +0.208 C 
ATOM     22  H   UNL     1      35.630 -15.223 -24.440  0.00  0.00    +0.175 HD
ATOM     23  H   UNL     1      33.488 -10.643 -25.389  0.00  0.00    +0.156 HD
ATOM     24  H   UNL     1      32.384 -10.024 -24.247  0.00  0.00    +0.156 HD
ENDBRANCH   5  12
ENDBRANCH   3   6
BRANCH   2  25
ATOM     25  C   UNL     1      36.310 -21.726 -18.714  0.00  0.00    +0.117 C 
BRANCH  25  26
ATOM     26  C   UNL     1      35.229 -22.392 -17.914  0.00  0.00    +0.003 C 
ATOM     27  C   UNL     1      35.464 -22.891 -16.636  0.00  0.00    +0.027 C 
ATOM     28  C   UNL     1      33.967 -22.500 -18.491  0.00  0.00    -0.002 C 
ATOM     29  C   UNL     1      34.428 -23.503 -15.930  0.00  0.00    +0.006 C 
ATOM     30  C   UNL     1      32.932 -23.112 -17.785  0.00  0.00    -0.000 C 
ATOM     31  C   UNL     1      33.162 -23.613 -16.505  0.00  0.00    +0.000 C 
BRANCH  27  32
ATOM     32  S   UNL     1      37.068 -22.774 -15.856  0.00  0.00    -0.087 S 
BRANCH  32  33
ATOM     33  C   UNL     1      37.054 -24.231 -14.822  0.00  0.00    +0.028 C 
ATOM     34  C   UNL     1      36.972 -24.143 -13.430  0.00  0.00    +0.013 C 
ATOM     35  C   UNL     1      37.127 -25.482 -15.436  0.00  0.00    +0.006 C 
ATOM     36  C   UNL     1      36.963 -25.304 -12.657  0.00  0.00    -0.001 C 
ATOM     37  C   UNL     1      37.119 -26.642 -14.662  0.00  0.00    +0.000 C 
ATOM     38  C   UNL     1      37.037 -26.553 -13.273  0.00  0.00    -0.000 C 
BRANCH  34  39
ATOM     39  C   UNL     1      36.892 -22.828 -12.724  0.00  0.00    +0.164 C 
BRANCH  39  40
ATOM     40  O   UNL     1      38.118 -22.584 -12.047  0.00  0.00    -0.377 OA
ATOM     41  H   UNL     1      38.635 -21.931 -12.543  0.00  0.00    +0.211 HD
ENDBRANCH  39  40
ENDBRANCH  34  39
ENDBRANCH  32  33
ENDBRANCH  27  32
ENDBRANCH  25  26
ENDBRANCH   2  25
TORSDOF 8
ENDMDL
MODEL 2
REMARK VINA RESULT:     -11.7      2.173      3.144
REMARK  Name = 448408
REMARK  8 active torsions:
REMARK  status: ('A' for Active; 'I' for Inactive)
REMARK    1  A    between atoms: N_2  and  C_25
REMARK    2  A    between atoms: C_3  and  C_6
REMARK    3  A    between atoms: C_5  and  N_12
REMARK    4  A    between atoms: C_25  and  C_26
REMARK    5  A    between atoms: C_27  and  S_32
REMARK    6  A    between atoms: S_32  and  C_33
REMARK    7  A    between atoms: C_34  and  C_39
REMARK    8  A    between atoms: C_39  and  O_40
REMARK                            x       y       z     vdW  Elec       q    Type
REMARK                         _______ _______ _______ _____ _____    ______ ____
ROOT
ATOM      1  O   UNL     1      32.452 -21.517 -20.403  0.00  0.00    -0.270 OA
ATOM      2  N   UNL     1      33.712 -22.628 -18.805  0.00  0.00    -0.297 N 
ATOM      3  C   UNL     1      33.539 -21.682 -19.822  0.00  0.00    +0.246 C 
ATOM      4  H   UNL     1      34.601 -22.706 -18.388  0.00  0.00    +0.150 HD
ENDROOT
BRANCH   3   6
ATOM      5  C   UNL     1      35.671 -18.995 -21.369  0.00  0.00    +0.090 C 
ATOM      6  C   UNL     1      34.705 -20.899 -20.201  0.00  0.00    +0.055 C 
ATOM      7  C   UNL     1      34.554 -19.762 -20.994  0.00  0.00    +0.023 C 
ATOM      8  C   UNL     1      36.943 -19.400 -20.930  0.00  0.00    +0.018 C 
ATOM      9  C   UNL     1      35.975 -21.287 -19.772  0.00  0.00    +0.005 C 
ATOM     10  C   UNL     1      37.093 -20.538 -20.136  0.00  0.00    +0.002 C 
BRANCH   5  12
ATOM     11  O   UNL     1      34.043 -14.062 -21.302  0.00  0.00    -0.207 OA
ATOM     12  N   UNL     1      35.521 -17.861 -22.159  0.00  0.00    -0.137 N 
ATOM     13  N   UNL     1      35.160 -17.870 -23.470  0.00  0.00    -0.215 N 
ATOM     14  N   UNL     1      35.154 -16.668 -21.541  0.00  0.00    -0.143 NA
ATOM     15  N   UNL     1      34.012 -16.131 -24.773  0.00  0.00    -0.309 NA
ATOM     16  N   UNL     1      33.451 -14.131 -23.543  0.00  0.00    -0.251 NA
ATOM     17  N   UNL     1      32.909 -14.311 -25.784  0.00  0.00    -0.283 N 
ATOM     18  C   UNL     1      34.549 -16.694 -23.755  0.00  0.00    +0.243 C 
ATOM     19  C   UNL     1      34.581 -15.973 -22.473  0.00  0.00    +0.241 C 
ATOM     20  C   UNL     1      33.999 -14.629 -22.384  0.00  0.00    +0.239 C 
ATOM     21  C   UNL     1      33.467 -14.850 -24.648  0.00  0.00    +0.208 C 
ATOM     22  H   UNL     1      35.316 -18.607 -24.104  0.00  0.00    +0.175 HD
ATOM     23  H   UNL     1      32.907 -14.824 -26.624  0.00  0.00    +0.156 HD
ATOM     24  H   UNL     1      32.510 -13.411 -25.757  0.00  0.00    +0.156 HD
ENDBRANCH   5  12
ENDBRANCH   3   6
BRANCH   2  25
ATOM     25  C   UNL     1      32.658 -23.497 -18.334  0.00  0.00    +0.117 C 
BRANCH  25  26
ATOM     26  C   UNL     1      32.415 -23.337 -16.861  0.00  0.00    +0.003 C 
ATOM     27  C   UNL     1      33.451 -23.421 -15.934  0.00  0.00    +0.027 C 
ATOM     28  C   UNL     1      31.110 -23.101 -16.439  0.00  0.00    -0.002 C 
ATOM     29  C   UNL     1      33.178 -23.267 -14.575  0.00  0.00    +0.006 C 
ATOM     30  C   UNL     1      30.838 -22.948 -15.080  0.00  0.00    -0.000 C 
ATOM     31  C   UNL     1      31.871 -23.030 -14.148  0.00  0.00    +0.000 C 
BRANCH  27  32
ATOM     32  S   UNL     1      35.142 -23.722 -16.431  0.00  0.00    -0.087 S 
BRANCH  32  33
ATOM     33  C   UNL     1      35.900 -24.094 -14.857  0.00  0.00    +0.028 C 
ATOM     34  C   UNL     1      36.208 -25.403 -14.481  0.00  0.00    +0.013 C 
ATOM     35  C   UNL     1      36.186 -23.037 -13.992  0.00  0.00    +0.006 C 
ATOM     36  C   UNL     1      36.801 -25.653 -13.243  0.00  0.00    -0.001 C 
ATOM     37  C   UNL     1      36.778 -23.287 -12.754  0.00  0.00    +0.000 C 
ATOM     38  C   UNL     1      37.085 -24.595 -12.380  0.00  0.00    -0.000 C 
BRANCH  34  39
ATOM     39  C   UNL     1      35.923 -26.570 -15.371  0.00  0.00    +0.164 C 
BRANCH  39  40
ATOM     40  O   UNL     1      37.096 -26.896 -16.105  0.00  0.00    -0.377 OA
ATOM     41  H   UNL     1      37.242 -27.854 -16.072  0.00  0.00    +0.211 HD
ENDBRANCH  39  40
ENDBRANCH  34  39
ENDBRANCH  32  33
ENDBRANCH  27  32
ENDBRANCH  25  26
ENDBRANCH   2  25
TORSDOF 8
ENDMDL
MODEL 3
REMARK VINA RESULT:     -11.6      4.237     13.251
REMARK  Name = 448408
REMARK  8 active torsions:
REMARK  status: ('A' for Active; 'I' for Inactive)
REMARK    1  A    between atoms: N_2  and  C_25
REMARK    2  A    between atoms: C_3  and  C_6
REMARK    3  A    between atoms: C_5  and  N_12
REMARK    4  A    between atoms: C_25  and  C_26
REMARK    5  A    between atoms: C_27  and  S_32
REMARK    6  A    between atoms: S_32  and  C_33
REMARK    7  A    between atoms: C_34  and  C_39
REMARK    8  A    between atoms: C_39  and  O_40
REMARK                            x       y       z     vdW  Elec       q    Type
REMARK                         _______ _______ _______ _____ _____    ______ ____
ROOT
ATOM      1  O   UNL     1      34.606 -14.958 -21.628  0.00  0.00    -0.270 OA
ATOM      2  N   UNL     1      34.159 -14.376 -23.827  0.00  0.00    -0.297 N 
ATOM      3  C   UNL     1      34.433 -15.299 -22.812  0.00  0.00    +0.246 C 
ATOM      4  H   UNL     1      34.034 -14.715 -24.743  0.00  0.00    +0.150 HD
ENDROOT
BRANCH   3   6
ATOM      5  C   UNL     1      35.086 -19.001 -22.642  0.00  0.00    +0.090 C 
ATOM      6  C   UNL     1      34.535 -16.697 -23.200  0.00  0.00    +0.055 C 
ATOM      7  C   UNL     1      34.982 -17.646 -22.281  0.00  0.00    +0.023 C 
ATOM      8  C   UNL     1      34.731 -19.378 -23.947  0.00  0.00    +0.018 C 
ATOM      9  C   UNL     1      34.187 -17.088 -24.494  0.00  0.00    +0.005 C 
ATOM     10  C   UNL     1      34.285 -18.428 -24.867  0.00  0.00    +0.002 C 
BRANCH   5  12
ATOM     11  O   UNL     1      33.503 -22.860 -19.544  0.00  0.00    -0.207 OA
ATOM     12  N   UNL     1      35.530 -19.947 -21.725  0.00  0.00    -0.137 N 
ATOM     13  N   UNL     1      36.521 -19.742 -20.817  0.00  0.00    -0.215 N 
ATOM     14  N   UNL     1      34.630 -20.914 -21.284  0.00  0.00    -0.143 NA
ATOM     15  N   UNL     1      36.870 -20.820 -18.636  0.00  0.00    -0.309 NA
ATOM     16  N   UNL     1      35.217 -22.471 -18.032  0.00  0.00    -0.251 NA
ATOM     17  N   UNL     1      36.971 -22.002 -16.599  0.00  0.00    -0.283 N 
ATOM     18  C   UNL     1      36.308 -20.561 -19.757  0.00  0.00    +0.243 C 
ATOM     19  C   UNL     1      35.080 -21.283 -20.125  0.00  0.00    +0.241 C 
ATOM     20  C   UNL     1      34.525 -22.282 -19.205  0.00  0.00    +0.239 C 
ATOM     21  C   UNL     1      36.311 -21.778 -17.785  0.00  0.00    +0.208 C 
ATOM     22  H   UNL     1      37.266 -19.106 -20.913  0.00  0.00    +0.175 HD
ATOM     23  H   UNL     1      37.791 -21.499 -16.388  0.00  0.00    +0.156 HD
ATOM     24  H   UNL     1      36.623 -22.665 -15.960  0.00  0.00    +0.156 HD
ENDBRANCH   5  12
ENDBRANCH   3   6
BRANCH   2  25
ATOM     25  C   UNL     1      34.052 -12.951 -23.605  0.00  0.00    +0.117 C 
BRANCH  25  26
ATOM     26  C   UNL     1      33.821 -12.200 -24.884  0.00  0.00    +0.003 C 
ATOM     27  C   UNL     1      33.455 -10.857 -24.889  0.00  0.00    +0.027 C 
ATOM     28  C   UNL     1      33.985 -12.890 -26.081  0.00  0.00    -0.002 C 
ATOM     29  C   UNL     1      33.251 -10.199 -26.102  0.00  0.00    +0.006 C 
ATOM     30  C   UNL     1      33.781 -12.233 -27.294  0.00  0.00    -0.000 C 
ATOM     31  C   UNL     1      33.414 -10.887 -27.305  0.00  0.00    +0.000 C 
BRANCH  27  32
ATOM     32  S   UNL     1      33.233  -9.932 -23.375  0.00  0.00    -0.087 S 
BRANCH  32  33
ATOM     33  C   UNL     1      33.621  -8.277 -23.925  0.00  0.00    +0.028 C 
ATOM     34  C   UNL     1      32.628  -7.314 -24.115  0.00  0.00    +0.013 C 
ATOM     35  C   UNL     1      34.957  -7.954 -24.167  0.00  0.00    +0.006 C 
ATOM     36  C   UNL     1      32.971  -6.032 -24.545  0.00  0.00    -0.001 C 
ATOM     37  C   UNL     1      35.300  -6.672 -24.598  0.00  0.00    +0.000 C 
ATOM     38  C   UNL     1      34.306  -5.711 -24.787  0.00  0.00    -0.000 C 
BRANCH  34  39
ATOM     39  C   UNL     1      31.183  -7.609 -23.870  0.00  0.00    +0.164 C 
BRANCH  39  40
ATOM     40  O   UNL     1      30.880  -7.359 -22.504  0.00  0.00    -0.377 OA
ATOM     41  H   UNL     1      30.833  -6.402 -22.353  0.00  0.00    +0.211 HD
ENDBRANCH  39  40
ENDBRANCH  34  39
ENDBRANCH  32  33
ENDBRANCH  27  32
ENDBRANCH  25  26
ENDBRANCH   2  25
TORSDOF 8
ENDMDL
MODEL 4
REMARK VINA RESULT:     -11.5      2.214      3.003
REMARK  Name = 448408
REMARK  8 active torsions:
REMARK  status: ('A' for Active; 'I' for Inactive)
REMARK    1  A    between atoms: N_2  and  C_25
REMARK    2  A    between atoms: C_3  and  C_6
REMARK    3  A    between atoms: C_5  and  N_12
REMARK    4  A    between atoms: C_25  and  C_26
REMARK    5  A    between atoms: C_27  and  S_32
REMARK    6  A    between atoms: S_32  and  C_33
REMARK    7  A    between atoms: C_34  and  C_39
REMARK    8  A    between atoms: C_39  and  O_40
REMARK                            x       y       z     vdW  Elec       q    Type
REMARK                         _______ _______ _______ _____ _____    ______ ____
ROOT
ATOM      1  O   UNL     1      32.689 -21.827 -20.267  0.00  0.00    -0.270 OA
ATOM      2  N   UNL     1      34.458 -22.672 -19.030  0.00  0.00    -0.297 N 
ATOM      3  C   UNL     1      33.877 -21.749 -19.907  0.00  0.00    +0.246 C 
ATOM      4  H   UNL     1      35.405 -22.551 -18.787  0.00  0.00    +0.150 HD
ENDROOT
BRANCH   3   6
ATOM      5  C   UNL     1      34.984 -18.505 -21.460  0.00  0.00    +0.090 C 
ATOM      6  C   UNL     1      34.734 -20.688 -20.412  0.00  0.00    +0.055 C 
ATOM      7  C   UNL     1      34.169 -19.539 -20.967  0.00  0.00    +0.023 C 
ATOM      8  C   UNL     1      36.379 -18.654 -21.383  0.00  0.00    +0.018 C 
ATOM      9  C   UNL     1      36.121 -20.819 -20.343  0.00  0.00    +0.005 C 
ATOM     10  C   UNL     1      36.943 -19.803 -20.827  0.00  0.00    +0.002 C 
BRANCH   5  12
ATOM     11  O   UNL     1      33.618 -16.290 -25.956  0.00  0.00    -0.207 OA
ATOM     12  N   UNL     1      34.421 -17.360 -22.012  0.00  0.00    -0.137 N 
ATOM     13  N   UNL     1      34.624 -16.097 -21.552  0.00  0.00    -0.215 N 
ATOM     14  N   UNL     1      34.115 -17.362 -23.371  0.00  0.00    -0.143 NA
ATOM     15  N   UNL     1      34.516 -13.968 -22.775  0.00  0.00    -0.309 NA
ATOM     16  N   UNL     1      33.973 -14.158 -25.119  0.00  0.00    -0.251 NA
ATOM     17  N   UNL     1      34.348 -12.079 -24.175  0.00  0.00    -0.283 N 
ATOM     18  C   UNL     1      34.459 -15.233 -22.584  0.00  0.00    +0.243 C 
ATOM     19  C   UNL     1      34.135 -16.113 -23.717  0.00  0.00    +0.241 C 
ATOM     20  C   UNL     1      33.883 -15.527 -25.039  0.00  0.00    +0.239 C 
ATOM     21  C   UNL     1      34.270 -13.447 -24.049  0.00  0.00    +0.208 C 
ATOM     22  H   UNL     1      34.852 -15.852 -20.626  0.00  0.00    +0.175 HD
ATOM     23  H   UNL     1      34.567 -11.523 -23.393  0.00  0.00    +0.156 HD
ATOM     24  H   UNL     1      34.184 -11.656 -25.049  0.00  0.00    +0.156 HD
ENDBRANCH   5  12
ENDBRANCH   3   6
BRANCH   2  25
ATOM     25  C   UNL     1      33.745 -23.794 -18.463  0.00  0.00    +0.117 C 
BRANCH  25  26
ATOM     26  C   UNL     1      33.203 -23.482 -17.098  0.00  0.00    +0.003 C 
ATOM     27  C   UNL     1      34.041 -23.292 -16.002  0.00  0.00    +0.027 C 
ATOM     28  C   UNL     1      31.822 -23.388 -16.954  0.00  0.00    -0.002 C 
ATOM     29  C   UNL     1      33.492 -23.005 -14.753  0.00  0.00    +0.006 C 
ATOM     30  C   UNL     1      31.274 -23.101 -15.705  0.00  0.00    -0.000 C 
ATOM     31  C   UNL     1      32.108 -22.909 -14.604  0.00  0.00    +0.000 C 
BRANCH  27  32
ATOM     32  S   UNL     1      35.820 -23.404 -16.142  0.00  0.00    -0.087 S 
BRANCH  32  33
ATOM     33  C   UNL     1      36.254 -24.004 -14.516  0.00  0.00    +0.028 C 
ATOM     34  C   UNL     1      36.291 -25.369 -14.222  0.00  0.00    +0.013 C 
ATOM     35  C   UNL     1      36.560 -23.071 -13.524  0.00  0.00    +0.006 C 
ATOM     36  C   UNL     1      36.635 -25.798 -12.941  0.00  0.00    -0.001 C 
ATOM     37  C   UNL     1      36.903 -23.500 -12.243  0.00  0.00    +0.000 C 
ATOM     38  C   UNL     1      36.941 -24.864 -11.951  0.00  0.00    -0.000 C 
BRANCH  34  39
ATOM     39  C   UNL     1      35.972 -26.408 -15.248  0.00  0.00    +0.164 C 
BRANCH  39  40
ATOM     40  O   UNL     1      37.134 -26.673 -16.023  0.00  0.00    -0.377 OA
ATOM     41  H   UNL     1      36.879 -26.820 -16.948  0.00  0.00    +0.211 HD
ENDBRANCH  39  40
ENDBRANCH  34  39
ENDBRANCH  32  33
ENDBRANCH  27  32
ENDBRANCH  25  26
ENDBRANCH   2  25
TORSDOF 8
ENDMDL
MODEL 5
REMARK VINA RESULT:     -11.2      1.956      2.645
REMARK  Name = 448408
REMARK  8 active torsions:
REMARK  status: ('A' for Active; 'I' for Inactive)
REMARK    1  A    between atoms: N_2  and  C_25
REMARK    2  A    between atoms: C_3  and  C_6
REMARK    3  A    between atoms: C_5  and  N_12
REMARK    4  A    between atoms: C_25  and  C_26
REMARK    5  A    between atoms: C_27  and  S_32
REMARK    6  A    between atoms: S_32  and  C_33
REMARK    7  A    between atoms: C_34  and  C_39
REMARK    8  A    between atoms: C_39  and  O_40
REMARK                            x       y       z     vdW  Elec       q    Type
REMARK                         _______ _______ _______ _____ _____    ______ ____
ROOT
ATOM      1  O   UNL     1      32.790 -22.017 -20.252  0.00  0.00    -0.270 OA
ATOM      2  N   UNL     1      34.501 -22.724 -18.857  0.00  0.00    -0.297 N 
ATOM      3  C   UNL     1      33.948 -21.874 -19.821  0.00  0.00    +0.246 C 
ATOM      4  H   UNL     1      35.425 -22.554 -18.561  0.00  0.00    +0.150 HD
ENDROOT
BRANCH   3   6
ATOM      5  C   UNL     1      35.039 -18.634 -21.392  0.00  0.00    +0.090 C 
ATOM      6  C   UNL     1      34.800 -20.810 -20.330  0.00  0.00    +0.055 C 
ATOM      7  C   UNL     1      34.229 -19.670 -20.895  0.00  0.00    +0.023 C 
ATOM      8  C   UNL     1      36.434 -18.772 -21.308  0.00  0.00    +0.018 C 
ATOM      9  C   UNL     1      36.188 -20.932 -20.255  0.00  0.00    +0.005 C 
ATOM     10  C   UNL     1      37.004 -19.913 -20.743  0.00  0.00    +0.002 C 
BRANCH   5  12
ATOM     11  O   UNL     1      33.786 -16.407 -25.916  0.00  0.00    -0.207 OA
ATOM     12  N   UNL     1      34.470 -17.496 -21.954  0.00  0.00    -0.137 N 
ATOM     13  N   UNL     1      34.628 -16.233 -21.476  0.00  0.00    -0.215 N 
ATOM     14  N   UNL     1      34.214 -17.492 -23.323  0.00  0.00    -0.143 NA
ATOM     15  N   UNL     1      34.514 -14.095 -22.683  0.00  0.00    -0.309 NA
ATOM     16  N   UNL     1      34.061 -14.275 -25.047  0.00  0.00    -0.251 NA
ATOM     17  N   UNL     1      34.354 -12.198 -24.072  0.00  0.00    -0.283 N 
ATOM     18  C   UNL     1      34.480 -15.363 -22.506  0.00  0.00    +0.243 C 
ATOM     19  C   UNL     1      34.218 -16.239 -23.658  0.00  0.00    +0.241 C 
ATOM     20  C   UNL     1      34.000 -15.647 -24.983  0.00  0.00    +0.239 C 
ATOM     21  C   UNL     1      34.303 -13.568 -23.961  0.00  0.00    +0.208 C 
ATOM     22  H   UNL     1      34.816 -15.992 -20.540  0.00  0.00    +0.175 HD
ATOM     23  H   UNL     1      34.532 -11.645 -23.278  0.00  0.00    +0.156 HD
ATOM     24  H   UNL     1      34.212 -11.770 -24.948  0.00  0.00    +0.156 HD
ENDBRANCH   5  12
ENDBRANCH   3   6
BRANCH   2  25
ATOM     25  C   UNL     1      33.791 -23.840 -18.273  0.00  0.00    +0.117 C 
BRANCH  25  26
ATOM     26  C   UNL     1      33.260 -23.514 -16.907  0.00  0.00    +0.003 C 
ATOM     27  C   UNL     1      34.107 -23.230 -15.840  0.00  0.00    +0.027 C 
ATOM     28  C   UNL     1      31.880 -23.503 -16.733  0.00  0.00    -0.002 C 
ATOM     29  C   UNL     1      33.569 -22.934 -14.588  0.00  0.00    +0.006 C 
ATOM     30  C   UNL     1      31.341 -23.207 -15.481  0.00  0.00    -0.000 C 
ATOM     31  C   UNL     1      32.185 -22.922 -14.409  0.00  0.00    +0.000 C 
BRANCH  27  32
ATOM     32  S   UNL     1      35.886 -23.233 -16.018  0.00  0.00    -0.087 S 
BRANCH  32  33
ATOM     33  C   UNL     1      36.341 -24.548 -14.899  0.00  0.00    +0.028 C 
ATOM     34  C   UNL     1      36.770 -24.288 -13.596  0.00  0.00    +0.013 C 
ATOM     35  C   UNL     1      36.262 -25.865 -15.355  0.00  0.00    +0.006 C 
ATOM     36  C   UNL     1      37.116 -25.343 -12.751  0.00  0.00    -0.001 C 
ATOM     37  C   UNL     1      36.609 -26.919 -14.510  0.00  0.00    +0.000 C 
ATOM     38  C   UNL     1      37.036 -26.658 -13.208  0.00  0.00    -0.000 C 
BRANCH  34  39
ATOM     39  C   UNL     1      36.873 -22.897 -13.059  0.00  0.00    +0.164 C 
BRANCH  39  40
ATOM     40  O   UNL     1      37.931 -22.837 -12.112  0.00  0.00    -0.377 OA
ATOM     41  H   UNL     1      37.641 -23.240 -11.278  0.00  0.00    +0.211 HD
ENDBRANCH  39  40
ENDBRANCH  34  39
ENDBRANCH  32  33
ENDBRANCH  27  32
ENDBRANCH  25  26
ENDBRANCH   2  25
TORSDOF 8
ENDMDL
MODEL 6
REMARK VINA RESULT:     -11.2      3.624     11.571
REMARK  Name = 448408
REMARK  8 active torsions:
REMARK  status: ('A' for Active; 'I' for Inactive)
REMARK    1  A    between atoms: N_2  and  C_25
REMARK    2  A    between atoms: C_3  and  C_6
REMARK    3  A    between atoms: C_5  and  N_12
REMARK    4  A    between atoms: C_25  and  C_26
REMARK    5  A    between atoms: C_27  and  S_32
REMARK    6  A    between atoms: S_32  and  C_33
REMARK    7  A    between atoms: C_34  and  C_39
REMARK    8  A    between atoms: C_39  and  O_40
REMARK                            x       y       z     vdW  Elec       q    Type
REMARK                         _______ _______ _______ _____ _____    ______ ____
ROOT
ATOM      1  O   UNL     1      36.841 -20.680 -20.683  0.00  0.00    -0.270 OA
ATOM      2  N   UNL     1      34.998 -19.309 -20.999  0.00  0.00    -0.297 N 
ATOM      3  C   UNL     1      35.647 -20.421 -20.450  0.00  0.00    +0.246 C 
ATOM      4  H   UNL     1      34.050 -19.164 -20.772  0.00  0.00    +0.150 HD
ENDROOT
BRANCH   3   6
ATOM      5  C   UNL     1      34.692 -22.770 -17.670  0.00  0.00    +0.090 C 
ATOM      6  C   UNL     1      34.855 -21.294 -19.598  0.00  0.00    +0.055 C 
ATOM      7  C   UNL     1      35.445 -21.923 -18.502  0.00  0.00    +0.023 C 
ATOM      8  C   UNL     1      33.334 -22.971 -17.967  0.00  0.00    +0.018 C 
ATOM      9  C   UNL     1      33.504 -21.504 -19.880  0.00  0.00    +0.005 C 
ATOM     10  C   UNL     1      32.744 -22.342 -19.064  0.00  0.00    +0.002 C 
BRANCH   5  12
ATOM     11  O   UNL     1      33.752 -24.500 -12.862  0.00  0.00    -0.207 OA
ATOM     12  N   UNL     1      35.280 -23.396 -16.576  0.00  0.00    -0.137 N 
ATOM     13  N   UNL     1      36.556 -23.188 -16.158  0.00  0.00    -0.215 N 
ATOM     14  N   UNL     1      34.460 -23.797 -15.524  0.00  0.00    -0.143 NA
ATOM     15  N   UNL     1      37.506 -23.430 -13.904  0.00  0.00    -0.309 NA
ATOM     16  N   UNL     1      35.945 -24.134 -12.203  0.00  0.00    -0.251 NA
ATOM     17  N   UNL     1      38.158 -23.738 -11.660  0.00  0.00    -0.283 N 
ATOM     18  C   UNL     1      36.620 -23.445 -14.828  0.00  0.00    +0.243 C 
ATOM     19  C   UNL     1      35.240 -23.829 -14.489  0.00  0.00    +0.241 C 
ATOM     20  C   UNL     1      34.908 -24.188 -13.105  0.00  0.00    +0.239 C 
ATOM     21  C   UNL     1      37.151 -23.777 -12.597  0.00  0.00    +0.208 C 
ATOM     22  H   UNL     1      37.308 -22.900 -16.725  0.00  0.00    +0.175 HD
ATOM     23  H   UNL     1      39.069 -23.476 -11.925  0.00  0.00    +0.156 HD
ATOM     24  H   UNL     1      37.967 -23.973 -10.723  0.00  0.00    +0.156 HD
ENDBRANCH   5  12
ENDBRANCH   3   6
BRANCH   2  25
ATOM     25  C   UNL     1      35.642 -18.363 -21.882  0.00  0.00    +0.117 C 
BRANCH  25  26
ATOM     26  C   UNL     1      34.822 -18.094 -23.110  0.00  0.00    +0.003 C 
ATOM     27  C   UNL     1      34.653 -16.807 -23.612  0.00  0.00    +0.027 C 
ATOM     28  C   UNL     1      34.225 -19.181 -23.743  0.00  0.00    -0.002 C 
ATOM     29  C   UNL     1      33.881 -16.605 -24.756  0.00  0.00    +0.006 C 
ATOM     30  C   UNL     1      33.453 -18.978 -24.887  0.00  0.00    -0.000 C 
ATOM     31  C   UNL     1      33.282 -17.691 -25.394  0.00  0.00    +0.000 C 
BRANCH  27  32
ATOM     32  S   UNL     1      35.401 -15.383 -22.831  0.00  0.00    -0.087 S 
BRANCH  32  33
ATOM     33  C   UNL     1      33.955 -14.518 -22.238  0.00  0.00    +0.028 C 
ATOM     34  C   UNL     1      33.316 -13.542 -23.004  0.00  0.00    +0.013 C 
ATOM     35  C   UNL     1      33.463 -14.839 -20.971  0.00  0.00    +0.006 C 
ATOM     36  C   UNL     1      32.189 -12.889 -22.506  0.00  0.00    -0.001 C 
ATOM     37  C   UNL     1      32.337 -14.186 -20.472  0.00  0.00    +0.000 C 
ATOM     38  C   UNL     1      31.699 -13.211 -21.240  0.00  0.00    -0.000 C 
BRANCH  34  39
ATOM     39  C   UNL     1      33.802 -13.162 -24.366  0.00  0.00    +0.164 C 
BRANCH  39  40
ATOM     40  O   UNL     1      34.492 -11.922 -24.288  0.00  0.00    -0.377 OA
ATOM     41  H   UNL     1      35.377 -12.067 -23.918  0.00  0.00    +0.211 HD
ENDBRANCH  39  40
ENDBRANCH  34  39
ENDBRANCH  32  33
ENDBRANCH  27  32
ENDBRANCH  25  26
ENDBRANCH   2  25
TORSDOF 8
ENDMDL
MODEL 7
REMARK VINA RESULT:     -11.1      4.252     11.717
REMARK  Name = 448408
REMARK  8 active torsions:
REMARK  status: ('A' for Active; 'I' for Inactive)
REMARK    1  A    between atoms: N_2  and  C_25
REMARK    2  A    between atoms: C_3  and  C_6
REMARK    3  A    between atoms: C_5  and  N_12
REMARK    4  A    between atoms: C_25  and  C_26
REMARK    5  A    between atoms: C_27  and  S_32
REMARK    6  A    between atoms: S_32  and  C_33
REMARK    7  A    between atoms: C_34  and  C_39
REMARK    8  A    between atoms: C_39  and  O_40
REMARK                            x       y       z     vdW  Elec       q    Type
REMARK                         _______ _______ _______ _____ _____    ______ ____
ROOT
ATOM      1  O   UNL     1      33.761 -23.304 -20.218  0.00  0.00    -0.270 OA
ATOM      2  N   UNL     1      33.283 -21.107 -19.652  0.00  0.00    -0.297 N 
ATOM      3  C   UNL     1      33.409 -22.471 -19.364  0.00  0.00    +0.246 C 
ATOM      4  H   UNL     1      32.999 -20.503 -18.928  0.00  0.00    +0.150 HD
ENDROOT
BRANCH   3   6
ATOM      5  C   UNL     1      33.773 -23.862 -15.887  0.00  0.00    +0.090 C 
ATOM      6  C   UNL     1      33.084 -22.893 -18.011  0.00  0.00    +0.055 C 
ATOM      7  C   UNL     1      34.071 -23.449 -17.197  0.00  0.00    +0.023 C 
ATOM      8  C   UNL     1      32.459 -23.703 -15.415  0.00  0.00    +0.018 C 
ATOM      9  C   UNL     1      31.784 -22.741 -17.526  0.00  0.00    +0.005 C 
ATOM     10  C   UNL     1      31.472 -23.146 -16.229  0.00  0.00    +0.002 C 
BRANCH   5  12
ATOM     11  O   UNL     1      37.480 -22.684 -12.443  0.00  0.00    -0.207 OA
ATOM     12  N   UNL     1      34.757 -24.416 -15.076  0.00  0.00    -0.137 N 
ATOM     13  N   UNL     1      35.531 -25.481 -15.414  0.00  0.00    -0.215 N 
ATOM     14  N   UNL     1      35.403 -23.589 -14.161  0.00  0.00    -0.143 NA
ATOM     15  N   UNL     1      37.789 -26.063 -14.636  0.00  0.00    -0.309 NA
ATOM     16  N   UNL     1      38.757 -24.520 -13.053  0.00  0.00    -0.251 NA
ATOM     17  N   UNL     1      39.942 -26.386 -13.733  0.00  0.00    -0.283 N 
ATOM     18  C   UNL     1      36.703 -25.392 -14.737  0.00  0.00    +0.243 C 
ATOM     19  C   UNL     1      36.551 -24.155 -13.955  0.00  0.00    +0.241 C 
ATOM     20  C   UNL     1      37.642 -23.717 -13.077  0.00  0.00    +0.239 C 
ATOM     21  C   UNL     1      38.806 -25.612 -13.790  0.00  0.00    +0.208 C 
ATOM     22  H   UNL     1      35.283 -26.197 -16.043  0.00  0.00    +0.175 HD
ATOM     23  H   UNL     1      40.006 -27.208 -14.272  0.00  0.00    +0.156 HD
ATOM     24  H   UNL     1      40.692 -26.118 -13.154  0.00  0.00    +0.156 HD
ENDBRANCH   5  12
ENDBRANCH   3   6
BRANCH   2  25
ATOM     25  C   UNL     1      33.545 -20.537 -20.955  0.00  0.00    +0.117 C 
BRANCH  25  26
ATOM     26  C   UNL     1      34.954 -20.033 -21.073  0.00  0.00    +0.003 C 
ATOM     27  C   UNL     1      35.331 -19.137 -22.069  0.00  0.00    +0.027 C 
ATOM     28  C   UNL     1      35.888 -20.493 -20.148  0.00  0.00    -0.002 C 
ATOM     29  C   UNL     1      36.653 -18.697 -22.141  0.00  0.00    +0.006 C 
ATOM     30  C   UNL     1      37.209 -20.053 -20.220  0.00  0.00    -0.000 C 
ATOM     31  C   UNL     1      37.591 -19.154 -21.216  0.00  0.00    +0.000 C 
BRANCH  27  32
ATOM     32  S   UNL     1      34.166 -18.522 -23.277  0.00  0.00    -0.087 S 
BRANCH  32  33
ATOM     33  C   UNL     1      34.238 -16.765 -22.960  0.00  0.00    +0.028 C 
ATOM     34  C   UNL     1      34.061 -15.827 -23.978  0.00  0.00    +0.013 C 
ATOM     35  C   UNL     1      34.481 -16.336 -21.654  0.00  0.00    +0.006 C 
ATOM     36  C   UNL     1      34.125 -14.463 -23.691  0.00  0.00    -0.001 C 
ATOM     37  C   UNL     1      34.545 -14.973 -21.367  0.00  0.00    +0.000 C 
ATOM     38  C   UNL     1      34.367 -14.036 -22.385  0.00  0.00    -0.000 C 
BRANCH  34  39
ATOM     39  C   UNL     1      33.799 -16.234 -25.393  0.00  0.00    +0.164 C 
BRANCH  39  40
ATOM     40  O   UNL     1      33.728 -15.072 -26.209  0.00  0.00    -0.377 OA
ATOM     41  H   UNL     1      34.104 -14.317 -25.729  0.00  0.00    +0.211 HD
ENDBRANCH  39  40
ENDBRANCH  34  39
ENDBRANCH  32  33
ENDBRANCH  27  32
ENDBRANCH  25  26
ENDBRANCH   2  25
TORSDOF 8
ENDMDL
MODEL 8
REMARK VINA RESULT:     -11.1      1.833      2.310
REMARK  Name = 448408
REMARK  8 active torsions:
REMARK  status: ('A' for Active; 'I' for Inactive)
REMARK    1  A    between atoms: N_2  and  C_25
REMARK    2  A    between atoms: C_3  and  C_6
REMARK    3  A    between atoms: C_5  and  N_12
REMARK    4  A    between atoms: C_25  and  C_26
REMARK    5  A    between atoms: C_27  and  S_32
REMARK    6  A    between atoms: S_32  and  C_33
REMARK    7  A    between atoms: C_34  and  C_39
REMARK    8  A    between atoms: C_39  and  O_40
REMARK                            x       y       z     vdW  Elec       q    Type
REMARK                         _______ _______ _______ _____ _____    ______ ____
ROOT
ATOM      1  O   UNL     1      36.819 -18.682 -20.561  0.00  0.00    -0.270 OA
ATOM      2  N   UNL     1      35.721 -20.722 -20.634  0.00  0.00    -0.297 N 
ATOM      3  C   UNL     1      36.036 -19.456 -21.139  0.00  0.00    +0.246 C 
ATOM      4  H   UNL     1      35.093 -21.284 -21.144  0.00  0.00    +0.150 HD
ENDROOT
BRANCH   3   6
ATOM      5  C   UNL     1      34.307 -17.345 -23.730  0.00  0.00    +0.090 C 
ATOM      6  C   UNL     1      35.383 -19.057 -22.377  0.00  0.00    +0.055 C 
ATOM      7  C   UNL     1      34.940 -17.745 -22.540  0.00  0.00    +0.023 C 
ATOM      8  C   UNL     1      34.130 -18.295 -24.750  0.00  0.00    +0.018 C 
ATOM      9  C   UNL     1      35.200 -19.989 -23.400  0.00  0.00    +0.005 C 
ATOM     10  C   UNL     1      34.574 -19.607 -24.586  0.00  0.00    +0.002 C 
BRANCH   5  12
ATOM     11  O   UNL     1      33.404 -13.670 -27.290  0.00  0.00    -0.207 OA
ATOM     12  N   UNL     1      33.865 -16.037 -23.894  0.00  0.00    -0.137 N 
ATOM     13  N   UNL     1      34.127 -15.016 -23.035  0.00  0.00    -0.215 N 
ATOM     14  N   UNL     1      33.651 -15.568 -25.188  0.00  0.00    -0.143 NA
ATOM     15  N   UNL     1      34.253 -12.604 -23.487  0.00  0.00    -0.309 NA
ATOM     16  N   UNL     1      33.855 -11.969 -25.781  0.00  0.00    -0.251 NA
ATOM     17  N   UNL     1      34.314 -10.355 -24.189  0.00  0.00    -0.283 N 
ATOM     18  C   UNL     1      34.094 -13.852 -23.728  0.00  0.00    +0.243 C 
ATOM     19  C   UNL     1      33.783 -14.281 -25.100  0.00  0.00    +0.241 C 
ATOM     20  C   UNL     1      33.662 -13.276 -26.163  0.00  0.00    +0.239 C 
ATOM     21  C   UNL     1      34.130 -11.676 -24.525  0.00  0.00    +0.208 C 
ATOM     22  H   UNL     1      34.310 -15.108 -22.071  0.00  0.00    +0.175 HD
ATOM     23  H   UNL     1      34.520 -10.107 -23.259  0.00  0.00    +0.156 HD
ATOM     24  H   UNL     1      34.239  -9.657 -24.880  0.00  0.00    +0.156 HD
ENDBRANCH   5  12
ENDBRANCH   3   6
BRANCH   2  25
ATOM     25  C   UNL     1      36.268 -21.252 -19.405  0.00  0.00    +0.117 C 
BRANCH  25  26
ATOM     26  C   UNL     1      35.242 -22.014 -18.617  0.00  0.00    +0.003 C 
ATOM     27  C   UNL     1      35.504 -22.484 -17.334  0.00  0.00    +0.027 C 
ATOM     28  C   UNL     1      34.005 -22.243 -19.213  0.00  0.00    -0.002 C 
ATOM     29  C   UNL     1      34.521 -23.189 -16.640  0.00  0.00    +0.006 C 
ATOM     30  C   UNL     1      33.022 -22.948 -18.519  0.00  0.00    -0.000 C 
ATOM     31  C   UNL     1      33.280 -23.420 -17.232  0.00  0.00    +0.000 C 
BRANCH  27  32
ATOM     32  S   UNL     1      37.079 -22.213 -16.531  0.00  0.00    -0.087 S 
BRANCH  32  33
ATOM     33  C   UNL     1      36.926 -23.280 -15.107  0.00  0.00    +0.028 C 
ATOM     34  C   UNL     1      37.836 -24.310 -14.860  0.00  0.00    +0.013 C 
ATOM     35  C   UNL     1      35.863 -23.066 -14.228  0.00  0.00    +0.006 C 
ATOM     36  C   UNL     1      37.683 -25.122 -13.736  0.00  0.00    -0.001 C 
ATOM     37  C   UNL     1      35.710 -23.879 -13.105  0.00  0.00    +0.000 C 
ATOM     38  C   UNL     1      36.620 -24.907 -12.859  0.00  0.00    -0.000 C 
BRANCH  34  39
ATOM     39  C   UNL     1      38.991 -24.581 -15.769  0.00  0.00    +0.164 C 
BRANCH  39  40
ATOM     40  O   UNL     1      39.350 -25.953 -15.675  0.00  0.00    -0.377 OA
ATOM     41  H   UNL     1      39.893 -26.198 -16.440  0.00  0.00    +0.211 HD
ENDBRANCH  39  40
ENDBRANCH  34  39
ENDBRANCH  32  33
ENDBRANCH  27  32
ENDBRANCH  25  26
ENDBRANCH   2  25
TORSDOF 8
ENDMDL
MODEL 9
REMARK VINA RESULT:     -10.9      3.652     11.926
REMARK  Name = 448408
REMARK  8 active torsions:
REMARK  status: ('A' for Active; 'I' for Inactive)
REMARK    1  A    between atoms: N_2  and  C_25
REMARK    2  A    between atoms: C_3  and  C_6
REMARK    3  A    between atoms: C_5  and  N_12
REMARK    4  A    between atoms: C_25  and  C_26
REMARK    5  A    between atoms: C_27  and  S_32
REMARK    6  A    between atoms: S_32  and  C_33
REMARK    7  A    between atoms: C_34  and  C_39
REMARK    8  A    between atoms: C_39  and  O_40
REMARK                            x       y       z     vdW  Elec       q    Type
REMARK                         _______ _______ _______ _____ _____    ______ ____
ROOT
ATOM      1  O   UNL     1      37.133 -21.431 -20.564  0.00  0.00    -0.270 OA
ATOM      2  N   UNL     1      35.494 -19.791 -20.560  0.00  0.00    -0.297 N 
ATOM      3  C   UNL     1      36.041 -21.009 -20.142  0.00  0.00    +0.246 C 
ATOM      4  H   UNL     1      34.625 -19.518 -20.186  0.00  0.00    +0.150 HD
ENDROOT
BRANCH   3   6
ATOM      5  C   UNL     1      35.055 -22.872 -17.025  0.00  0.00    +0.090 C 
ATOM      6  C   UNL     1      35.262 -21.793 -19.197  0.00  0.00    +0.055 C 
ATOM      7  C   UNL     1      35.796 -22.115 -17.949  0.00  0.00    +0.023 C 
ATOM      8  C   UNL     1      33.766 -23.299 -17.386  0.00  0.00    +0.018 C 
ATOM      9  C   UNL     1      33.980 -22.225 -19.540  0.00  0.00    +0.005 C 
ATOM     10  C   UNL     1      33.232 -22.977 -18.635  0.00  0.00    +0.002 C 
BRANCH   5  12
ATOM     11  O   UNL     1      36.986 -26.783 -14.203  0.00  0.00    -0.207 OA
ATOM     12  N   UNL     1      35.586 -23.191 -15.781  0.00  0.00    -0.137 N 
ATOM     13  N   UNL     1      35.171 -22.660 -14.601  0.00  0.00    -0.215 N 
ATOM     14  N   UNL     1      36.136 -24.458 -15.602  0.00  0.00    -0.143 NA
ATOM     15  N   UNL     1      35.279 -23.627 -12.344  0.00  0.00    -0.309 NA
ATOM     16  N   UNL     1      36.261 -25.829 -12.218  0.00  0.00    -0.251 NA
ATOM     17  N   UNL     1      35.503 -24.780 -10.300  0.00  0.00    -0.283 N 
ATOM     18  C   UNL     1      35.431 -23.552 -13.613  0.00  0.00    +0.243 C 
ATOM     19  C   UNL     1      36.049 -24.680 -14.327  0.00  0.00    +0.241 C 
ATOM     20  C   UNL     1      36.478 -25.865 -13.575  0.00  0.00    +0.239 C 
ATOM     21  C   UNL     1      35.699 -24.773 -11.662  0.00  0.00    +0.208 C 
ATOM     22  H   UNL     1      34.752 -21.777 -14.483  0.00  0.00    +0.175 HD
ATOM     23  H   UNL     1      35.086 -24.006  -9.858  0.00  0.00    +0.156 HD
ATOM     24  H   UNL     1      35.780 -25.561  -9.768  0.00  0.00    +0.156 HD
ENDBRANCH   5  12
ENDBRANCH   3   6
BRANCH   2  25
ATOM     25  C   UNL     1      36.135 -18.912 -21.512  0.00  0.00    +0.117 C 
BRANCH  25  26
ATOM     26  C   UNL     1      35.281 -18.679 -22.724  0.00  0.00    +0.003 C 
ATOM     27  C   UNL     1      34.683 -17.447 -22.974  0.00  0.00    +0.027 C 
ATOM     28  C   UNL     1      35.100 -19.741 -23.605  0.00  0.00    -0.002 C 
ATOM     29  C   UNL     1      33.896 -17.277 -24.112  0.00  0.00    +0.006 C 
ATOM     30  C   UNL     1      34.313 -19.571 -24.744  0.00  0.00    -0.000 C 
ATOM     31  C   UNL     1      33.712 -18.339 -24.998  0.00  0.00    +0.000 C 
BRANCH  27  32
ATOM     32  S   UNL     1      34.889 -16.055 -21.870  0.00  0.00    -0.087 S 
BRANCH  32  33
ATOM     33  C   UNL     1      34.147 -14.744 -22.830  0.00  0.00    +0.028 C 
ATOM     34  C   UNL     1      33.215 -13.864 -22.275  0.00  0.00    +0.013 C 
ATOM     35  C   UNL     1      34.520 -14.609 -24.168  0.00  0.00    +0.006 C 
ATOM     36  C   UNL     1      32.659 -12.852 -23.057  0.00  0.00    -0.001 C 
ATOM     37  C   UNL     1      33.962 -13.597 -24.950  0.00  0.00    +0.000 C 
ATOM     38  C   UNL     1      33.032 -12.719 -24.395  0.00  0.00    -0.000 C 
BRANCH  34  39
ATOM     39  C   UNL     1      32.783 -13.966 -20.848  0.00  0.00    +0.164 C 
BRANCH  39  40
ATOM     40  O   UNL     1      31.387 -13.711 -20.762  0.00  0.00    -0.377 OA
ATOM     41  H   UNL     1      31.238 -12.758 -20.664  0.00  0.00    +0.211 HD
ENDBRANCH  39  40
ENDBRANCH  34  39
ENDBRANCH  32  33
ENDBRANCH  27  32
ENDBRANCH  25  26
ENDBRANCH   2  25
TORSDOF 8
ENDMDL
