MODEL 1
REMARK VINA RESULT:     -12.1      0.000      0.000
REMARK  Name = 45268539
REMARK  6 active torsions:
REMARK  status: ('A' for Active; 'I' for Inactive)
REMARK    1  A    between atoms: N_2  and  C_22
REMARK    2  A    between atoms: N_3  and  C_7
REMARK    3  A    between atoms: N_3  and  O_12
REMARK    4  A    between atoms: C_8  and  C_14
REMARK    5  A    between atoms: C_15  and  C_16
REMARK    6  A    between atoms: C_22  and  C_26
REMARK                            x       y       z     vdW  Elec       q    Type
REMARK                         _______ _______ _______ _____ _____    ______ ____
ROOT
ATOM      1  O   UNL     1      31.718 -23.797 -17.212  0.00  0.00    -0.273 OA
ATOM      2  N   UNL     1      33.896 -23.366 -16.364  0.00  0.00    -0.253 N 
ATOM      3  C   UNL     1      35.022 -22.709 -16.896  0.00  0.00    +0.052 C 
ATOM      4  C   UNL     1      34.750 -22.236 -18.180  0.00  0.00    +0.018 C 
ATOM      5  C   UNL     1      32.845 -23.354 -17.265  0.00  0.00    +0.252 C 
ATOM      6  C   UNL     1      33.381 -22.616 -18.469  0.00  0.00    +0.202 C 
ATOM      7  C   UNL     1      35.675 -21.552 -18.940  0.00  0.00    -0.001 C 
ATOM      8  C   UNL     1      36.263 -22.504 -16.321  0.00  0.00    +0.015 C 
ATOM      9  C   UNL     1      36.930 -21.341 -18.366  0.00  0.00    -0.000 C 
ATOM     10  C   UNL     1      37.221 -21.812 -17.071  0.00  0.00    +0.001 C 
ENDROOT
BRANCH   7  11
ATOM     11  C   UNL     1      35.398 -21.059 -20.277  0.00  0.00    -0.000 C 
ATOM     12  C   UNL     1      35.403 -19.754 -20.647  0.00  0.00    -0.000 C 
BRANCH  12  13
ATOM     13  C   UNL     1      35.138 -19.255 -22.008  0.00  0.00    -0.000 C 
ATOM     14  C   UNL     1      35.316 -17.903 -22.301  0.00  0.00    -0.000 C 
ATOM     15  C   UNL     1      34.713 -20.134 -23.003  0.00  0.00    -0.000 C 
ATOM     16  C   UNL     1      35.066 -17.430 -23.590  0.00  0.00    +0.000 C 
ATOM     17  C   UNL     1      34.463 -19.662 -24.291  0.00  0.00    +0.000 C 
ATOM     18  C   UNL     1      34.638 -18.309 -24.585  0.00  0.00    +0.000 C 
ENDBRANCH  12  13
ENDBRANCH   7  11
BRANCH   6  19
ATOM     19  N   UNL     1      32.694 -22.398 -19.534  0.00  0.00    -0.075 NA
BRANCH  19  20
ATOM     20  O   UNL     1      32.154 -21.111 -19.458  0.00  0.00    -0.294 OA
ATOM     21  H   UNL     1      31.605 -20.875 -18.735  0.00  0.00    +0.238 HD
ENDBRANCH  19  20
ENDBRANCH   6  19
BRANCH   2  22
ATOM     22  C   UNL     1      33.871 -23.962 -15.051  0.00  0.00    +0.128 C 
BRANCH  22  26
ATOM     23  F   UNL     1      36.758 -27.673 -16.292  0.00  0.00    -0.204 F 
ATOM     24  O   UNL     1      35.593 -23.513 -12.893  0.00  0.00    -0.448 OA
ATOM     25  O   UNL     1      37.234 -24.318 -11.336  0.00  0.00    -0.311 OA
ATOM     26  C   UNL     1      35.082 -24.812 -14.795  0.00  0.00    +0.034 C 
ATOM     27  C   UNL     1      35.924 -24.563 -13.712  0.00  0.00    +0.138 C 
ATOM     28  C   UNL     1      37.041 -25.376 -13.477  0.00  0.00    +0.043 C 
ATOM     29  C   UNL     1      35.365 -25.865 -15.665  0.00  0.00    +0.030 C 
ATOM     30  C   UNL     1      37.933 -25.095 -12.308  0.00  0.00    +0.176 C 
ATOM     31  C   UNL     1      37.324 -26.422 -14.361  0.00  0.00    +0.031 C 
ATOM     32  C   UNL     1      36.487 -26.667 -15.451  0.00  0.00    +0.140 C 
ATOM     33  C   UNL     1      36.623 -23.187 -11.954  0.00  0.00    +0.361 C 
ENDBRANCH  22  26
ENDBRANCH   2  22
TORSDOF 6
ENDMDL
MODEL 2
REMARK VINA RESULT:     -10.6      1.911      2.525
REMARK  Name = 45268539
REMARK  6 active torsions:
REMARK  status: ('A' for Active; 'I' for Inactive)
REMARK    1  A    between atoms: N_2  and  C_22
REMARK    2  A    between atoms: N_3  and  C_7
REMARK    3  A    between atoms: N_3  and  O_12
REMARK    4  A    between atoms: C_8  and  C_14
REMARK    5  A    between atoms: C_15  and  C_16
REMARK    6  A    between atoms: C_22  and  C_26
REMARK                            x       y       z     vdW  Elec       q    Type
REMARK                         _______ _______ _______ _____ _____    ______ ____
ROOT
ATOM      1  O   UNL     1      31.668 -24.175 -16.324  0.00  0.00    -0.273 OA
ATOM      2  N   UNL     1      33.950 -23.973 -15.689  0.00  0.00    -0.253 N 
ATOM      3  C   UNL     1      35.058 -23.332 -16.275  0.00  0.00    +0.052 C 
ATOM      4  C   UNL     1      34.686 -22.706 -17.465  0.00  0.00    +0.018 C 
ATOM      5  C   UNL     1      32.812 -23.798 -16.460  0.00  0.00    +0.252 C 
ATOM      6  C   UNL     1      33.270 -22.967 -17.635  0.00  0.00    +0.202 C 
ATOM      7  C   UNL     1      35.572 -22.001 -18.251  0.00  0.00    -0.001 C 
ATOM      8  C   UNL     1      36.364 -23.268 -15.827  0.00  0.00    +0.015 C 
ATOM      9  C   UNL     1      36.893 -21.931 -17.805  0.00  0.00    -0.000 C 
ATOM     10  C   UNL     1      37.285 -22.558 -16.606  0.00  0.00    +0.001 C 
ENDROOT
BRANCH   7  11
ATOM     11  C   UNL     1      35.191 -21.349 -19.491  0.00  0.00    -0.000 C 
ATOM     12  C   UNL     1      35.890 -20.360 -20.102  0.00  0.00    -0.000 C 
BRANCH  12  13
ATOM     13  C   UNL     1      35.513 -19.710 -21.370  0.00  0.00    -0.000 C 
ATOM     14  C   UNL     1      34.275 -19.983 -21.953  0.00  0.00    -0.000 C 
ATOM     15  C   UNL     1      36.393 -18.820 -21.986  0.00  0.00    -0.000 C 
ATOM     16  C   UNL     1      33.918 -19.367 -23.153  0.00  0.00    +0.000 C 
ATOM     17  C   UNL     1      36.036 -18.204 -23.185  0.00  0.00    +0.000 C 
ATOM     18  C   UNL     1      34.799 -18.478 -23.770  0.00  0.00    +0.000 C 
ENDBRANCH  12  13
ENDBRANCH   7  11
BRANCH   6  19
ATOM     19  N   UNL     1      32.491 -22.592 -18.587  0.00  0.00    -0.075 NA
BRANCH  19  20
ATOM     20  O   UNL     1      31.303 -22.115 -18.026  0.00  0.00    -0.294 OA
ATOM     21  H   UNL     1      31.325 -21.636 -17.221  0.00  0.00    +0.238 HD
ENDBRANCH  19  20
ENDBRANCH   6  19
BRANCH   2  22
ATOM     22  C   UNL     1      34.021 -24.707 -14.449  0.00  0.00    +0.128 C 
BRANCH  22  26
ATOM     23  F   UNL     1      36.813 -22.292 -11.284  0.00  0.00    -0.204 F 
ATOM     24  O   UNL     1      36.225 -26.358 -14.936  0.00  0.00    -0.448 OA
ATOM     25  O   UNL     1      38.598 -26.720 -14.924  0.00  0.00    -0.311 OA
ATOM     26  C   UNL     1      35.339 -24.515 -13.757  0.00  0.00    +0.034 C 
ATOM     27  C   UNL     1      36.421 -25.356 -14.018  0.00  0.00    +0.138 C 
ATOM     28  C   UNL     1      37.649 -25.155 -13.377  0.00  0.00    +0.043 C 
ATOM     29  C   UNL     1      35.475 -23.479 -12.833  0.00  0.00    +0.030 C 
ATOM     30  C   UNL     1      38.801 -26.066 -13.671  0.00  0.00    +0.176 C 
ATOM     31  C   UNL     1      37.773 -24.120 -12.443  0.00  0.00    +0.031 C 
ATOM     32  C   UNL     1      36.688 -23.284 -12.174  0.00  0.00    +0.140 C 
ATOM     33  C   UNL     1      37.299 -27.304 -14.972  0.00  0.00    +0.361 C 
ENDBRANCH  22  26
ENDBRANCH   2  22
TORSDOF 6
ENDMDL
MODEL 3
REMARK VINA RESULT:     -10.4      8.072     13.784
REMARK  Name = 45268539
REMARK  6 active torsions:
REMARK  status: ('A' for Active; 'I' for Inactive)
REMARK    1  A    between atoms: N_2  and  C_22
REMARK    2  A    between atoms: N_3  and  C_7
REMARK    3  A    between atoms: N_3  and  O_12
REMARK    4  A    between atoms: C_8  and  C_14
REMARK    5  A    between atoms: C_15  and  C_16
REMARK    6  A    between atoms: C_22  and  C_26
REMARK                            x       y       z     vdW  Elec       q    Type
REMARK                         _______ _______ _______ _____ _____    ______ ____
ROOT
ATOM      1  O   UNL     1      31.398 -11.947 -20.387  0.00  0.00    -0.273 OA
ATOM      2  N   UNL     1      32.156 -11.927 -22.640  0.00  0.00    -0.253 N 
ATOM      3  C   UNL     1      32.956 -12.809 -23.393  0.00  0.00    +0.052 C 
ATOM      4  C   UNL     1      33.356 -13.893 -22.611  0.00  0.00    +0.018 C 
ATOM      5  C   UNL     1      31.997 -12.389 -21.344  0.00  0.00    +0.252 C 
ATOM      6  C   UNL     1      32.777 -13.681 -21.298  0.00  0.00    +0.202 C 
ATOM      7  C   UNL     1      34.149 -14.913 -23.092  0.00  0.00    -0.001 C 
ATOM      8  C   UNL     1      33.349 -12.714 -24.715  0.00  0.00    +0.015 C 
ATOM      9  C   UNL     1      34.550 -14.825 -24.426  0.00  0.00    -0.000 C 
ATOM     10  C   UNL     1      34.155 -13.737 -25.229  0.00  0.00    +0.001 C 
ENDROOT
BRANCH   7  11
ATOM     11  C   UNL     1      34.570 -16.043 -22.283  0.00  0.00    -0.000 C 
ATOM     12  C   UNL     1      34.855 -17.281 -22.756  0.00  0.00    -0.000 C 
BRANCH  12  13
ATOM     13  C   UNL     1      35.299 -18.424 -21.937  0.00  0.00    -0.000 C 
ATOM     14  C   UNL     1      34.381 -19.396 -21.540  0.00  0.00    -0.000 C 
ATOM     15  C   UNL     1      36.638 -18.533 -21.560  0.00  0.00    -0.000 C 
ATOM     16  C   UNL     1      34.802 -20.477 -20.765  0.00  0.00    +0.000 C 
ATOM     17  C   UNL     1      37.058 -19.614 -20.786  0.00  0.00    +0.000 C 
ATOM     18  C   UNL     1      36.140 -20.586 -20.387  0.00  0.00    +0.000 C 
ENDBRANCH  12  13
ENDBRANCH   7  11
BRANCH   6  19
ATOM     19  N   UNL     1      32.874 -14.417 -20.249  0.00  0.00    -0.075 NA
BRANCH  19  20
ATOM     20  O   UNL     1      31.586 -14.770 -19.834  0.00  0.00    -0.294 OA
ATOM     21  H   UNL     1      31.354 -15.673 -19.745  0.00  0.00    +0.238 HD
ENDBRANCH  19  20
ENDBRANCH   6  19
BRANCH   2  22
ATOM     22  C   UNL     1      31.592 -10.713 -23.176  0.00  0.00    +0.128 C 
BRANCH  22  26
ATOM     23  F   UNL     1      32.742  -7.151 -20.072  0.00  0.00    -0.204 F 
ATOM     24  O   UNL     1      33.554  -9.685 -24.882  0.00  0.00    -0.448 OA
ATOM     25  O   UNL     1      34.915  -7.852 -25.625  0.00  0.00    -0.311 OA
ATOM     26  C   UNL     1      32.413  -9.507 -22.824  0.00  0.00    +0.034 C 
ATOM     27  C   UNL     1      33.387  -9.018 -23.695  0.00  0.00    +0.138 C 
ATOM     28  C   UNL     1      34.134  -7.881 -23.359  0.00  0.00    +0.043 C 
ATOM     29  C   UNL     1      32.196  -8.874 -21.601  0.00  0.00    +0.030 C 
ATOM     30  C   UNL     1      35.175  -7.369 -24.307  0.00  0.00    +0.176 C 
ATOM     31  C   UNL     1      33.918  -7.259 -22.126  0.00  0.00    +0.031 C 
ATOM     32  C   UNL     1      32.950  -7.754 -21.250  0.00  0.00    +0.140 C 
ATOM     33  C   UNL     1      34.717  -9.264 -25.604  0.00  0.00    +0.361 C 
ENDBRANCH  22  26
ENDBRANCH   2  22
TORSDOF 6
ENDMDL
MODEL 4
REMARK VINA RESULT:     -10.3      7.502     13.352
REMARK  Name = 45268539
REMARK  6 active torsions:
REMARK  status: ('A' for Active; 'I' for Inactive)
REMARK    1  A    between atoms: N_2  and  C_22
REMARK    2  A    between atoms: N_3  and  C_7
REMARK    3  A    between atoms: N_3  and  O_12
REMARK    4  A    between atoms: C_8  and  C_14
REMARK    5  A    between atoms: C_15  and  C_16
REMARK    6  A    between atoms: C_22  and  C_26
REMARK                            x       y       z     vdW  Elec       q    Type
REMARK                         _______ _______ _______ _____ _____    ______ ____
ROOT
ATOM      1  O   UNL     1      32.510 -12.308 -21.046  0.00  0.00    -0.273 OA
ATOM      2  N   UNL     1      32.848 -12.809 -23.345  0.00  0.00    -0.253 N 
ATOM      3  C   UNL     1      33.426 -13.904 -24.015  0.00  0.00    +0.052 C 
ATOM      4  C   UNL     1      33.875 -14.856 -23.098  0.00  0.00    +0.018 C 
ATOM      5  C   UNL     1      32.890 -12.992 -21.972  0.00  0.00    +0.252 C 
ATOM      6  C   UNL     1      33.561 -14.331 -21.784  0.00  0.00    +0.202 C 
ATOM      7  C   UNL     1      34.485 -16.033 -23.477  0.00  0.00    -0.001 C 
ATOM      8  C   UNL     1      33.581 -14.110 -25.373  0.00  0.00    +0.015 C 
ATOM      9  C   UNL     1      34.644 -16.249 -24.846  0.00  0.00    -0.000 C 
ATOM     10  C   UNL     1      34.197 -15.298 -25.785  0.00  0.00    +0.001 C 
ENDROOT
BRANCH   7  11
ATOM     11  C   UNL     1      34.954 -17.026 -22.528  0.00  0.00    -0.000 C 
ATOM     12  C   UNL     1      34.563 -18.324 -22.495  0.00  0.00    -0.000 C 
BRANCH  12  13
ATOM     13  C   UNL     1      35.053 -19.337 -21.543  0.00  0.00    -0.000 C 
ATOM     14  C   UNL     1      36.406 -19.380 -21.205  0.00  0.00    -0.000 C 
ATOM     15  C   UNL     1      34.163 -20.251 -20.978  0.00  0.00    -0.000 C 
ATOM     16  C   UNL     1      36.869 -20.339 -20.303  0.00  0.00    +0.000 C 
ATOM     17  C   UNL     1      34.627 -21.209 -20.077  0.00  0.00    +0.000 C 
ATOM     18  C   UNL     1      35.980 -21.254 -19.740  0.00  0.00    +0.000 C 
ENDBRANCH  12  13
ENDBRANCH   7  11
BRANCH   6  19
ATOM     19  N   UNL     1      33.787 -14.857 -20.633  0.00  0.00    -0.075 NA
BRANCH  19  20
ATOM     20  O   UNL     1      32.583 -14.913 -19.926  0.00  0.00    -0.294 OA
ATOM     21  H   UNL     1      32.227 -15.742 -19.671  0.00  0.00    +0.238 HD
ENDBRANCH  19  20
ENDBRANCH   6  19
BRANCH   2  22
ATOM     22  C   UNL     1      32.293 -11.665 -24.025  0.00  0.00    +0.128 C 
BRANCH  22  26
ATOM     23  F   UNL     1      36.419  -9.882 -25.881  0.00  0.00    -0.204 F 
ATOM     24  O   UNL     1      31.984  -9.220 -22.702  0.00  0.00    -0.448 OA
ATOM     25  O   UNL     1      32.932  -7.213 -21.787  0.00  0.00    -0.311 OA
ATOM     26  C   UNL     1      33.288 -10.548 -24.152  0.00  0.00    +0.034 C 
ATOM     27  C   UNL     1      33.107  -9.338 -23.482  0.00  0.00    +0.138 C 
ATOM     28  C   UNL     1      34.053  -8.312 -23.598  0.00  0.00    +0.043 C 
ATOM     29  C   UNL     1      34.410 -10.730 -24.961  0.00  0.00    +0.030 C 
ATOM     30  C   UNL     1      33.842  -7.020 -22.869  0.00  0.00    +0.176 C 
ATOM     31  C   UNL     1      35.168  -8.499 -24.421  0.00  0.00    +0.031 C 
ATOM     32  C   UNL     1      35.346  -9.706 -25.099  0.00  0.00    +0.140 C 
ATOM     33  C   UNL     1      31.758  -7.883 -22.242  0.00  0.00    +0.361 C 
ENDBRANCH  22  26
ENDBRANCH   2  22
TORSDOF 6
ENDMDL
MODEL 5
REMARK VINA RESULT:      -9.9      9.734     15.648
REMARK  Name = 45268539
REMARK  6 active torsions:
REMARK  status: ('A' for Active; 'I' for Inactive)
REMARK    1  A    between atoms: N_2  and  C_22
REMARK    2  A    between atoms: N_3  and  C_7
REMARK    3  A    between atoms: N_3  and  O_12
REMARK    4  A    between atoms: C_8  and  C_14
REMARK    5  A    between atoms: C_15  and  C_16
REMARK    6  A    between atoms: C_22  and  C_26
REMARK                            x       y       z     vdW  Elec       q    Type
REMARK                         _______ _______ _______ _____ _____    ______ ____
ROOT
ATOM      1  O   UNL     1      31.201 -10.595 -20.786  0.00  0.00    -0.273 OA
ATOM      2  N   UNL     1      31.927  -9.909 -22.943  0.00  0.00    -0.253 N 
ATOM      3  C   UNL     1      32.669 -10.547 -23.956  0.00  0.00    +0.052 C 
ATOM      4  C   UNL     1      33.024 -11.837 -23.561  0.00  0.00    +0.018 C 
ATOM      5  C   UNL     1      31.763 -10.744 -21.850  0.00  0.00    +0.252 C 
ATOM      6  C   UNL     1      32.476 -12.019 -22.231  0.00  0.00    +0.202 C 
ATOM      7  C   UNL     1      33.756 -12.691 -24.359  0.00  0.00    -0.001 C 
ATOM      8  C   UNL     1      33.048 -10.062 -25.194  0.00  0.00    +0.015 C 
ATOM      9  C   UNL     1      34.142 -12.209 -25.610  0.00  0.00    -0.000 C 
ATOM     10  C   UNL     1      33.792 -10.909 -26.024  0.00  0.00    +0.001 C 
ENDROOT
BRANCH   7  11
ATOM     11  C   UNL     1      34.130 -14.034 -23.953  0.00  0.00    -0.000 C 
ATOM     12  C   UNL     1      33.858 -15.166 -24.649  0.00  0.00    -0.000 C 
BRANCH  12  13
ATOM     13  C   UNL     1      34.252 -16.528 -24.246  0.00  0.00    -0.000 C 
ATOM     14  C   UNL     1      33.778 -17.630 -24.957  0.00  0.00    -0.000 C 
ATOM     15  C   UNL     1      35.101 -16.714 -23.155  0.00  0.00    -0.000 C 
ATOM     16  C   UNL     1      34.152 -18.920 -24.576  0.00  0.00    +0.000 C 
ATOM     17  C   UNL     1      35.474 -18.003 -22.774  0.00  0.00    +0.000 C 
ATOM     18  C   UNL     1      34.999 -19.106 -23.484  0.00  0.00    +0.000 C 
ENDBRANCH  12  13
ENDBRANCH   7  11
BRANCH   6  19
ATOM     19  N   UNL     1      32.549 -13.049 -21.465  0.00  0.00    -0.075 NA
BRANCH  19  20
ATOM     20  O   UNL     1      31.261 -13.373 -21.031  0.00  0.00    -0.294 OA
ATOM     21  H   UNL     1      31.138 -14.039 -20.384  0.00  0.00    +0.238 HD
ENDBRANCH  19  20
ENDBRANCH   6  19
BRANCH   2  22
ATOM     22  C   UNL     1      31.418  -8.565 -23.058  0.00  0.00    +0.128 C 
BRANCH  22  26
ATOM     23  F   UNL     1      36.102  -7.471 -23.770  0.00  0.00    -0.204 F 
ATOM     24  O   UNL     1      30.807  -6.021 -24.047  0.00  0.00    -0.448 OA
ATOM     25  O   UNL     1      31.447  -3.749 -24.484  0.00  0.00    -0.311 OA
ATOM     26  C   UNL     1      32.476  -7.598 -23.504  0.00  0.00    +0.034 C 
ATOM     27  C   UNL     1      32.142  -6.336 -23.996  0.00  0.00    +0.138 C 
ATOM     28  C   UNL     1      33.142  -5.440 -24.392  0.00  0.00    +0.043 C 
ATOM     29  C   UNL     1      33.816  -7.979 -23.428  0.00  0.00    +0.030 C 
ATOM     30  C   UNL     1      32.764  -4.088 -24.915  0.00  0.00    +0.176 C 
ATOM     31  C   UNL     1      34.482  -5.834 -24.323  0.00  0.00    +0.031 C 
ATOM     32  C   UNL     1      34.818  -7.100 -23.840  0.00  0.00    +0.140 C 
ATOM     33  C   UNL     1      30.544  -4.814 -24.771  0.00  0.00    +0.361 C 
ENDBRANCH  22  26
ENDBRANCH   2  22
TORSDOF 6
ENDMDL
MODEL 6
REMARK VINA RESULT:      -9.7     10.609     16.243
REMARK  Name = 45268539
REMARK  6 active torsions:
REMARK  status: ('A' for Active; 'I' for Inactive)
REMARK    1  A    between atoms: N_2  and  C_22
REMARK    2  A    between atoms: N_3  and  C_7
REMARK    3  A    between atoms: N_3  and  O_12
REMARK    4  A    between atoms: C_8  and  C_14
REMARK    5  A    between atoms: C_15  and  C_16
REMARK    6  A    between atoms: C_22  and  C_26
REMARK                            x       y       z     vdW  Elec       q    Type
REMARK                         _______ _______ _______ _____ _____    ______ ____
ROOT
ATOM      1  O   UNL     1      32.827  -9.265 -25.280  0.00  0.00    -0.273 OA
ATOM      2  N   UNL     1      31.971  -9.096 -23.069  0.00  0.00    -0.253 N 
ATOM      3  C   UNL     1      31.818 -10.027 -22.023  0.00  0.00    +0.052 C 
ATOM      4  C   UNL     1      32.275 -11.284 -22.419  0.00  0.00    +0.018 C 
ATOM      5  C   UNL     1      32.531  -9.694 -24.185  0.00  0.00    +0.252 C 
ATOM      6  C   UNL     1      32.741 -11.135 -23.784  0.00  0.00    +0.202 C 
ATOM      7  C   UNL     1      32.245 -12.387 -21.592  0.00  0.00    -0.001 C 
ATOM      8  C   UNL     1      31.303  -9.834 -20.755  0.00  0.00    +0.015 C 
ATOM      9  C   UNL     1      31.728 -12.201 -20.310  0.00  0.00    -0.000 C 
ATOM     10  C   UNL     1      31.261 -10.938 -19.895  0.00  0.00    +0.001 C 
ENDROOT
BRANCH   7  11
ATOM     11  C   UNL     1      32.718 -13.698 -21.999  0.00  0.00    -0.000 C 
ATOM     12  C   UNL     1      33.996 -14.138 -21.888  0.00  0.00    -0.000 C 
BRANCH  12  13
ATOM     13  C   UNL     1      34.474 -15.475 -22.284  0.00  0.00    -0.000 C 
ATOM     14  C   UNL     1      34.791 -16.420 -21.309  0.00  0.00    -0.000 C 
ATOM     15  C   UNL     1      34.607 -15.796 -23.635  0.00  0.00    -0.000 C 
ATOM     16  C   UNL     1      35.242 -17.686 -21.684  0.00  0.00    +0.000 C 
ATOM     17  C   UNL     1      35.058 -17.061 -24.010  0.00  0.00    +0.000 C 
ATOM     18  C   UNL     1      35.377 -18.006 -23.035  0.00  0.00    +0.000 C 
ENDBRANCH  12  13
ENDBRANCH   7  11
BRANCH   6  19
ATOM     19  N   UNL     1      33.246 -12.024 -24.563  0.00  0.00    -0.075 NA
BRANCH  19  20
ATOM     20  O   UNL     1      34.579 -11.687 -24.816  0.00  0.00    -0.294 OA
ATOM     21  H   UNL     1      34.921 -10.870 -24.509  0.00  0.00    +0.238 HD
ENDBRANCH  19  20
ENDBRANCH   6  19
BRANCH   2  22
ATOM     22  C   UNL     1      31.588  -7.709 -22.960  0.00  0.00    +0.128 C 
BRANCH  22  26
ATOM     23  F   UNL     1      36.065  -6.726 -24.585  0.00  0.00    -0.204 F 
ATOM     24  O   UNL     1      30.782  -5.286 -24.099  0.00  0.00    -0.448 OA
ATOM     25  O   UNL     1      31.306  -3.079 -24.885  0.00  0.00    -0.311 OA
ATOM     26  C   UNL     1      32.541  -6.804 -23.685  0.00  0.00    +0.034 C 
ATOM     27  C   UNL     1      32.110  -5.601 -24.245  0.00  0.00    +0.138 C 
ATOM     28  C   UNL     1      33.015  -4.759 -24.903  0.00  0.00    +0.043 C 
ATOM     29  C   UNL     1      33.878  -7.181 -23.800  0.00  0.00    +0.030 C 
ATOM     30  C   UNL     1      32.534  -3.470 -25.497  0.00  0.00    +0.176 C 
ATOM     31  C   UNL     1      34.352  -5.151 -25.024  0.00  0.00    +0.031 C 
ATOM     32  C   UNL     1      34.782  -6.358 -24.472  0.00  0.00    +0.140 C 
ATOM     33  C   UNL     1      30.381  -4.164 -24.894  0.00  0.00    +0.361 C 
ENDBRANCH  22  26
ENDBRANCH   2  22
TORSDOF 6
ENDMDL
MODEL 7
REMARK VINA RESULT:      -9.7      3.831      9.090
REMARK  Name = 45268539
REMARK  6 active torsions:
REMARK  status: ('A' for Active; 'I' for Inactive)
REMARK    1  A    between atoms: N_2  and  C_22
REMARK    2  A    between atoms: N_3  and  C_7
REMARK    3  A    between atoms: N_3  and  O_12
REMARK    4  A    between atoms: C_8  and  C_14
REMARK    5  A    between atoms: C_15  and  C_16
REMARK    6  A    between atoms: C_22  and  C_26
REMARK                            x       y       z     vdW  Elec       q    Type
REMARK                         _______ _______ _______ _____ _____    ______ ____
ROOT
ATOM      1  O   UNL     1      33.233 -20.370 -21.455  0.00  0.00    -0.273 OA
ATOM      2  N   UNL     1      35.304 -20.483 -20.294  0.00  0.00    -0.253 N 
ATOM      3  C   UNL     1      35.728 -21.186 -19.150  0.00  0.00    +0.052 C 
ATOM      4  C   UNL     1      34.684 -21.955 -18.635  0.00  0.00    +0.018 C 
ATOM      5  C   UNL     1      33.976 -20.756 -20.578  0.00  0.00    +0.252 C 
ATOM      6  C   UNL     1      33.544 -21.722 -19.501  0.00  0.00    +0.202 C 
ATOM      7  C   UNL     1      34.817 -22.747 -17.515  0.00  0.00    -0.001 C 
ATOM      8  C   UNL     1      36.969 -21.190 -18.541  0.00  0.00    +0.015 C 
ATOM      9  C   UNL     1      36.066 -22.756 -16.894  0.00  0.00    -0.000 C 
ATOM     10  C   UNL     1      37.131 -21.986 -17.401  0.00  0.00    +0.001 C 
ENDROOT
BRANCH   7  11
ATOM     11  C   UNL     1      33.734 -23.547 -16.973  0.00  0.00    -0.000 C 
ATOM     12  C   UNL     1      32.840 -23.129 -16.042  0.00  0.00    -0.000 C 
BRANCH  12  13
ATOM     13  C   UNL     1      31.730 -23.935 -15.505  0.00  0.00    -0.000 C 
ATOM     14  C   UNL     1      31.900 -24.657 -14.324  0.00  0.00    -0.000 C 
ATOM     15  C   UNL     1      30.508 -23.975 -16.177  0.00  0.00    -0.000 C 
ATOM     16  C   UNL     1      30.849 -25.420 -13.815  0.00  0.00    +0.000 C 
ATOM     17  C   UNL     1      29.458 -24.738 -15.669  0.00  0.00    +0.000 C 
ATOM     18  C   UNL     1      29.628 -25.461 -14.488  0.00  0.00    +0.000 C 
ENDBRANCH  12  13
ENDBRANCH   7  11
BRANCH   6  19
ATOM     19  N   UNL     1      32.359 -22.214 -19.421  0.00  0.00    -0.075 NA
BRANCH  19  20
ATOM     20  O   UNL     1      31.539 -21.290 -18.768  0.00  0.00    -0.294 OA
ATOM     21  H   UNL     1      30.789 -21.585 -18.289  0.00  0.00    +0.238 HD
ENDBRANCH  19  20
ENDBRANCH   6  19
BRANCH   2  22
ATOM     22  C   UNL     1      36.162 -19.603 -21.049  0.00  0.00    +0.128 C 
BRANCH  22  26
ATOM     23  F   UNL     1      34.597 -20.690 -25.523  0.00  0.00    -0.204 F 
ATOM     24  O   UNL     1      35.334 -16.977 -21.537  0.00  0.00    -0.448 OA
ATOM     25  O   UNL     1      34.810 -15.211 -23.077  0.00  0.00    -0.311 OA
ATOM     26  C   UNL     1      35.537 -19.184 -22.347  0.00  0.00    +0.034 C 
ATOM     27  C   UNL     1      35.131 -17.866 -22.562  0.00  0.00    +0.138 C 
ATOM     28  C   UNL     1      34.564 -17.487 -23.785  0.00  0.00    +0.043 C 
ATOM     29  C   UNL     1      35.356 -20.136 -23.350  0.00  0.00    +0.030 C 
ATOM     30  C   UNL     1      34.136 -16.068 -23.998  0.00  0.00    +0.176 C 
ATOM     31  C   UNL     1      34.377 -18.451 -24.781  0.00  0.00    +0.031 C 
ATOM     32  C   UNL     1      34.774 -19.771 -24.564  0.00  0.00    +0.140 C 
ATOM     33  C   UNL     1      34.686 -15.718 -21.750  0.00  0.00    +0.361 C 
ENDBRANCH  22  26
ENDBRANCH   2  22
TORSDOF 6
ENDMDL
MODEL 8
REMARK VINA RESULT:      -9.6      6.361     12.340
REMARK  Name = 45268539
REMARK  6 active torsions:
REMARK  status: ('A' for Active; 'I' for Inactive)
REMARK    1  A    between atoms: N_2  and  C_22
REMARK    2  A    between atoms: N_3  and  C_7
REMARK    3  A    between atoms: N_3  and  O_12
REMARK    4  A    between atoms: C_8  and  C_14
REMARK    5  A    between atoms: C_15  and  C_16
REMARK    6  A    between atoms: C_22  and  C_26
REMARK                            x       y       z     vdW  Elec       q    Type
REMARK                         _______ _______ _______ _____ _____    ______ ____
ROOT
ATOM      1  O   UNL     1      34.746 -13.796 -21.447  0.00  0.00    -0.273 OA
ATOM      2  N   UNL     1      34.274 -14.737 -23.578  0.00  0.00    -0.253 N 
ATOM      3  C   UNL     1      34.202 -16.063 -24.049  0.00  0.00    +0.052 C 
ATOM      4  C   UNL     1      34.470 -16.962 -23.017  0.00  0.00    +0.018 C 
ATOM      5  C   UNL     1      34.589 -14.709 -22.230  0.00  0.00    +0.252 C 
ATOM      6  C   UNL     1      34.723 -16.160 -21.836  0.00  0.00    +0.202 C 
ATOM      7  C   UNL     1      34.468 -18.330 -23.194  0.00  0.00    -0.001 C 
ATOM      8  C   UNL     1      33.916 -16.519 -25.322  0.00  0.00    +0.015 C 
ATOM      9  C   UNL     1      34.180 -18.799 -24.477  0.00  0.00    -0.000 C 
ATOM     10  C   UNL     1      33.908 -17.904 -25.530  0.00  0.00    +0.001 C 
ENDROOT
BRANCH   7  11
ATOM     11  C   UNL     1      34.747 -19.271 -22.125  0.00  0.00    -0.000 C 
ATOM     12  C   UNL     1      33.811 -19.929 -21.396  0.00  0.00    -0.000 C 
BRANCH  12  13
ATOM     13  C   UNL     1      34.095 -20.897 -20.322  0.00  0.00    -0.000 C 
ATOM     14  C   UNL     1      35.411 -21.130 -19.923  0.00  0.00    -0.000 C 
ATOM     15  C   UNL     1      33.047 -21.580 -19.704  0.00  0.00    -0.000 C 
ATOM     16  C   UNL     1      35.679 -22.047 -18.906  0.00  0.00    +0.000 C 
ATOM     17  C   UNL     1      33.315 -22.496 -18.688  0.00  0.00    +0.000 C 
ATOM     18  C   UNL     1      34.631 -22.730 -18.289  0.00  0.00    +0.000 C 
ENDBRANCH  12  13
ENDBRANCH   7  11
BRANCH   6  19
ATOM     19  N   UNL     1      35.015 -16.551 -20.646  0.00  0.00    -0.075 NA
BRANCH  19  20
ATOM     20  O   UNL     1      34.206 -15.858 -19.741  0.00  0.00    -0.294 OA
ATOM     21  H   UNL     1      33.473 -15.363 -20.052  0.00  0.00    +0.238 HD
ENDBRANCH  19  20
ENDBRANCH   6  19
BRANCH   2  22
ATOM     22  C   UNL     1      34.045 -13.584 -24.413  0.00  0.00    +0.128 C 
BRANCH  22  26
ATOM     23  F   UNL     1      30.687 -12.263 -21.153  0.00  0.00    -0.204 F 
ATOM     24  O   UNL     1      34.464 -10.861 -24.893  0.00  0.00    -0.448 OA
ATOM     25  O   UNL     1      33.677  -8.594 -24.846  0.00  0.00    -0.311 OA
ATOM     26  C   UNL     1      33.278 -12.512 -23.695  0.00  0.00    +0.034 C 
ATOM     27  C   UNL     1      33.510 -11.161 -23.953  0.00  0.00    +0.138 C 
ATOM     28  C   UNL     1      32.775 -10.173 -23.286  0.00  0.00    +0.043 C 
ATOM     29  C   UNL     1      32.322 -12.882 -22.749  0.00  0.00    +0.030 C 
ATOM     30  C   UNL     1      33.037  -8.727 -23.578  0.00  0.00    +0.176 C 
ATOM     31  C   UNL     1      31.827 -10.553 -22.331  0.00  0.00    +0.031 C 
ATOM     32  C   UNL     1      31.600 -11.904 -22.065  0.00  0.00    +0.140 C 
ATOM     33  C   UNL     1      34.799  -9.470 -24.928  0.00  0.00    +0.361 C 
ENDBRANCH  22  26
ENDBRANCH   2  22
TORSDOF 6
ENDMDL
MODEL 9
REMARK VINA RESULT:      -9.6      2.292      3.487
REMARK  Name = 45268539
REMARK  6 active torsions:
REMARK  status: ('A' for Active; 'I' for Inactive)
REMARK    1  A    between atoms: N_2  and  C_22
REMARK    2  A    between atoms: N_3  and  C_7
REMARK    3  A    between atoms: N_3  and  O_12
REMARK    4  A    between atoms: C_8  and  C_14
REMARK    5  A    between atoms: C_15  and  C_16
REMARK    6  A    between atoms: C_22  and  C_26
REMARK                            x       y       z     vdW  Elec       q    Type
REMARK                         _______ _______ _______ _____ _____    ______ ____
ROOT
ATOM      1  O   UNL     1      31.552 -22.379 -18.869  0.00  0.00    -0.273 OA
ATOM      2  N   UNL     1      33.916 -22.611 -18.937  0.00  0.00    -0.253 N 
ATOM      3  C   UNL     1      34.941 -21.849 -19.532  0.00  0.00    +0.052 C 
ATOM      4  C   UNL     1      34.404 -20.750 -20.202  0.00  0.00    +0.018 C 
ATOM      5  C   UNL     1      32.675 -22.051 -19.188  0.00  0.00    +0.252 C 
ATOM      6  C   UNL     1      32.967 -20.825 -20.019  0.00  0.00    +0.202 C 
ATOM      7  C   UNL     1      35.179 -19.830 -20.877  0.00  0.00    -0.001 C 
ATOM      8  C   UNL     1      36.306 -22.065 -19.518  0.00  0.00    +0.015 C 
ATOM      9  C   UNL     1      36.558 -20.041 -20.867  0.00  0.00    -0.000 C 
ATOM     10  C   UNL     1      37.116 -21.146 -20.195  0.00  0.00    +0.001 C 
ENDROOT
BRANCH   7  11
ATOM     11  C   UNL     1      34.626 -18.686 -21.578  0.00  0.00    -0.000 C 
ATOM     12  C   UNL     1      35.342 -17.793 -22.306  0.00  0.00    -0.000 C 
BRANCH  12  13
ATOM     13  C   UNL     1      34.778 -16.640 -23.032  0.00  0.00    -0.000 C 
ATOM     14  C   UNL     1      34.437 -16.764 -24.379  0.00  0.00    -0.000 C 
ATOM     15  C   UNL     1      34.585 -15.427 -22.372  0.00  0.00    -0.000 C 
ATOM     16  C   UNL     1      33.904 -15.672 -25.066  0.00  0.00    +0.000 C 
ATOM     17  C   UNL     1      34.052 -14.337 -23.058  0.00  0.00    +0.000 C 
ATOM     18  C   UNL     1      33.712 -14.459 -24.406  0.00  0.00    +0.000 C 
ENDBRANCH  12  13
ENDBRANCH   7  11
BRANCH   6  19
ATOM     19  N   UNL     1      32.058 -20.030 -20.458  0.00  0.00    -0.075 NA
BRANCH  19  20
ATOM     20  O   UNL     1      31.710 -20.424 -21.753  0.00  0.00    -0.294 OA
ATOM     21  H   UNL     1      31.176 -21.183 -21.884  0.00  0.00    +0.238 HD
ENDBRANCH  19  20
ENDBRANCH   6  19
BRANCH   2  22
ATOM     22  C   UNL     1      34.160 -23.810 -18.174  0.00  0.00    +0.128 C 
BRANCH  22  26
ATOM     23  F   UNL     1      31.146 -23.131 -14.419  0.00  0.00    -0.204 F 
ATOM     24  O   UNL     1      36.267 -23.692 -16.338  0.00  0.00    -0.448 OA
ATOM     25  O   UNL     1      37.144 -22.982 -14.219  0.00  0.00    -0.311 OA
ATOM     26  C   UNL     1      33.937 -23.597 -16.705  0.00  0.00    +0.034 C 
ATOM     27  C   UNL     1      35.008 -23.545 -15.811  0.00  0.00    +0.138 C 
ATOM     28  C   UNL     1      34.784 -23.329 -14.446  0.00  0.00    +0.043 C 
ATOM     29  C   UNL     1      32.633 -23.456 -16.231  0.00  0.00    +0.030 C 
ATOM     30  C   UNL     1      35.946 -23.274 -13.502  0.00  0.00    +0.176 C 
ATOM     31  C   UNL     1      33.472 -23.200 -13.979  0.00  0.00    +0.031 C 
ATOM     32  C   UNL     1      32.400 -23.261 -14.870  0.00  0.00    +0.140 C 
ATOM     33  C   UNL     1      37.277 -23.857 -15.337  0.00  0.00    +0.361 C 
ENDBRANCH  22  26
ENDBRANCH   2  22
TORSDOF 6
ENDMDL
