MODEL 1
REMARK VINA RESULT:     -12.0      0.000      0.000
REMARK  Name = 9823454
REMARK  7 active torsions:
REMARK  status: ('A' for Active; 'I' for Inactive)
REMARK    1  A    between atoms: C_1  and  C_4
REMARK    2  A    between atoms: C_1  and  N_8
REMARK    3  A    between atoms: C_1  and  C_23
REMARK    4  A    between atoms: N_3  and  O_6
REMARK    5  A    between atoms: N_8  and  S_10
REMARK    6  A    between atoms: S_10  and  C_13
REMARK    7  A    between atoms: C_23  and  C_24
REMARK                            x       y       z     vdW  Elec       q    Type
REMARK                         _______ _______ _______ _____ _____    ______ ____
ROOT
ATOM      1  C   UNL     1      34.429 -24.256 -13.603  0.00  0.00    +0.158 C 
ENDROOT
BRANCH   1   4
ATOM      2  O   UNL     1      34.994 -24.436 -11.260  0.00  0.00    -0.272 OA
ATOM      3  N   UNL     1      36.096 -25.783 -12.777  0.00  0.00    -0.196 N 
ATOM      4  C   UNL     1      35.186 -24.821 -12.412  0.00  0.00    +0.260 C 
ATOM      5  H   UNL     1      36.216 -26.061 -13.714  0.00  0.00    +0.182 HD
BRANCH   3   6
ATOM      6  O   UNL     1      36.843 -26.346 -11.733  0.00  0.00    -0.295 OA
ATOM      7  H   UNL     1      37.716 -26.606 -12.065  0.00  0.00    +0.241 HD
ENDBRANCH   3   6
ENDBRANCH   1   4
BRANCH   1   8
ATOM      8  N   UNL     1      35.347 -23.276 -14.230  0.00  0.00    -0.172 NA
ATOM      9  H   UNL     1      34.777 -22.482 -14.522  0.00  0.00    +0.149 HD
BRANCH   8  10
ATOM     10  S   UNL     1      36.281 -23.731 -15.573  0.00  0.00    +0.061 S 
ATOM     11  O   UNL     1      36.254 -25.175 -15.713  0.00  0.00    -0.153 OA
ATOM     12  O   UNL     1      37.548 -23.026 -15.521  0.00  0.00    -0.153 OA
BRANCH  10  13
ATOM     13  C   UNL     1      35.359 -23.037 -16.911  0.00  0.00    +0.122 C 
ATOM     14  C   UNL     1      36.012 -22.252 -17.846  0.00  0.00    +0.020 C 
ATOM     15  C   UNL     1      35.293 -21.693 -18.915  0.00  0.00    +0.001 C 
ATOM     16  C   UNL     1      34.004 -23.290 -16.999  0.00  0.00    +0.020 C 
ATOM     17  C   UNL     1      33.904 -21.942 -19.021  0.00  0.00    +0.000 C 
ATOM     18  C   UNL     1      33.275 -22.743 -18.055  0.00  0.00    +0.001 C 
ATOM     19  C   UNL     1      35.923 -20.891 -19.882  0.00  0.00    +0.000 C 
ATOM     20  C   UNL     1      33.185 -21.381 -20.089  0.00  0.00    +0.000 C 
ATOM     21  C   UNL     1      35.192 -20.343 -20.937  0.00  0.00    +0.000 C 
ATOM     22  C   UNL     1      33.827 -20.588 -21.041  0.00  0.00    +0.000 C 
ENDBRANCH  10  13
ENDBRANCH   8  10
ENDBRANCH   1   8
BRANCH   1  23
ATOM     23  C   UNL     1      33.138 -23.550 -13.157  0.00  0.00    +0.053 C 
BRANCH  23  24
ATOM     24  C   UNL     1      31.943 -23.941 -13.960  0.00  0.00    -0.020 C 
ATOM     25  C   UNL     1      31.264 -22.982 -14.713  0.00  0.00    -0.004 C 
ATOM     26  C   UNL     1      30.137 -23.334 -15.474  0.00  0.00    -0.000 C 
ATOM     27  C   UNL     1      31.506 -25.262 -13.958  0.00  0.00    -0.004 C 
ATOM     28  C   UNL     1      29.693 -24.678 -15.471  0.00  0.00    -0.000 C 
ATOM     29  C   UNL     1      30.389 -25.629 -14.708  0.00  0.00    -0.000 C 
ATOM     30  C   UNL     1      29.442 -22.382 -16.236  0.00  0.00    -0.000 C 
ATOM     31  C   UNL     1      28.566 -25.030 -16.232  0.00  0.00    -0.000 C 
ATOM     32  C   UNL     1      28.324 -22.750 -16.987  0.00  0.00    -0.000 C 
ATOM     33  C   UNL     1      27.887 -24.071 -16.984  0.00  0.00    -0.000 C 
ENDBRANCH  23  24
ENDBRANCH   1  23
TORSDOF 7
ENDMDL
MODEL 2
REMARK VINA RESULT:     -11.7      1.529      6.105
REMARK  Name = 9823454
REMARK  7 active torsions:
REMARK  status: ('A' for Active; 'I' for Inactive)
REMARK    1  A    between atoms: C_1  and  C_4
REMARK    2  A    between atoms: C_1  and  N_8
REMARK    3  A    between atoms: C_1  and  C_23
REMARK    4  A    between atoms: N_3  and  O_6
REMARK    5  A    between atoms: N_8  and  S_10
REMARK    6  A    between atoms: S_10  and  C_13
REMARK    7  A    between atoms: C_23  and  C_24
REMARK                            x       y       z     vdW  Elec       q    Type
REMARK                         _______ _______ _______ _____ _____    ______ ____
ROOT
ATOM      1  C   UNL     1      35.704 -22.569 -15.704  0.00  0.00    +0.158 C 
ENDROOT
BRANCH   1   4
ATOM      2  O   UNL     1      37.364 -22.845 -13.969  0.00  0.00    -0.272 OA
ATOM      3  N   UNL     1      37.729 -23.829 -16.025  0.00  0.00    -0.196 N 
ATOM      4  C   UNL     1      37.009 -23.086 -15.121  0.00  0.00    +0.260 C 
ATOM      5  H   UNL     1      37.405 -23.997 -16.940  0.00  0.00    +0.182 HD
BRANCH   3   6
ATOM      6  O   UNL     1      38.953 -24.334 -15.565  0.00  0.00    -0.295 OA
ATOM      7  H   UNL     1      39.569 -24.415 -16.309  0.00  0.00    +0.241 HD
ENDBRANCH   3   6
ENDBRANCH   1   4
BRANCH   1   8
ATOM      8  N   UNL     1      34.695 -22.735 -14.630  0.00  0.00    -0.172 NA
ATOM      9  H   UNL     1      35.032 -22.208 -13.825  0.00  0.00    +0.149 HD
BRANCH   8  10
ATOM     10  S   UNL     1      34.304 -24.290 -14.071  0.00  0.00    +0.061 S 
ATOM     11  O   UNL     1      34.431 -24.329 -12.626  0.00  0.00    -0.153 OA
ATOM     12  O   UNL     1      34.993 -25.268 -14.891  0.00  0.00    -0.153 OA
BRANCH  10  13
ATOM     13  C   UNL     1      32.587 -24.400 -14.470  0.00  0.00    +0.122 C 
ATOM     14  C   UNL     1      32.052 -23.528 -15.403  0.00  0.00    +0.020 C 
ATOM     15  C   UNL     1      30.689 -23.602 -15.731  0.00  0.00    +0.001 C 
ATOM     16  C   UNL     1      31.809 -25.354 -13.844  0.00  0.00    +0.020 C 
ATOM     17  C   UNL     1      29.877 -24.574 -15.099  0.00  0.00    +0.000 C 
ATOM     18  C   UNL     1      30.452 -25.442 -14.159  0.00  0.00    +0.001 C 
ATOM     19  C   UNL     1      30.113 -22.732 -16.672  0.00  0.00    +0.000 C 
ATOM     20  C   UNL     1      28.513 -24.647 -15.427  0.00  0.00    +0.000 C 
ATOM     21  C   UNL     1      28.756 -22.820 -16.986  0.00  0.00    +0.000 C 
ATOM     22  C   UNL     1      27.958 -23.775 -16.365  0.00  0.00    +0.000 C 
ENDBRANCH  10  13
ENDBRANCH   8  10
ENDBRANCH   1   8
BRANCH   1  23
ATOM     23  C   UNL     1      35.286 -23.381 -16.941  0.00  0.00    +0.053 C 
BRANCH  23  24
ATOM     24  C   UNL     1      34.891 -22.531 -18.101  0.00  0.00    -0.020 C 
ATOM     25  C   UNL     1      35.848 -21.754 -18.755  0.00  0.00    -0.004 C 
ATOM     26  C   UNL     1      35.492 -20.948 -19.849  0.00  0.00    -0.000 C 
ATOM     27  C   UNL     1      33.568 -22.514 -18.532  0.00  0.00    -0.004 C 
ATOM     28  C   UNL     1      34.146 -20.931 -20.286  0.00  0.00    -0.000 C 
ATOM     29  C   UNL     1      33.197 -21.720 -19.617  0.00  0.00    -0.000 C 
ATOM     30  C   UNL     1      36.442 -20.160 -20.518  0.00  0.00    -0.000 C 
ATOM     31  C   UNL     1      33.790 -20.126 -21.380  0.00  0.00    -0.000 C 
ATOM     32  C   UNL     1      36.070 -19.366 -21.604  0.00  0.00    -0.000 C 
ATOM     33  C   UNL     1      34.747 -19.348 -22.033  0.00  0.00    -0.000 C 
ENDBRANCH  23  24
ENDBRANCH   1  23
TORSDOF 7
ENDMDL
MODEL 3
REMARK VINA RESULT:     -11.3      0.792      1.553
REMARK  Name = 9823454
REMARK  7 active torsions:
REMARK  status: ('A' for Active; 'I' for Inactive)
REMARK    1  A    between atoms: C_1  and  C_4
REMARK    2  A    between atoms: C_1  and  N_8
REMARK    3  A    between atoms: C_1  and  C_23
REMARK    4  A    between atoms: N_3  and  O_6
REMARK    5  A    between atoms: N_8  and  S_10
REMARK    6  A    between atoms: S_10  and  C_13
REMARK    7  A    between atoms: C_23  and  C_24
REMARK                            x       y       z     vdW  Elec       q    Type
REMARK                         _______ _______ _______ _____ _____    ______ ____
ROOT
ATOM      1  C   UNL     1      34.375 -24.125 -13.470  0.00  0.00    +0.158 C 
ENDROOT
BRANCH   1   4
ATOM      2  O   UNL     1      35.460 -25.310 -11.664  0.00  0.00    -0.272 OA
ATOM      3  N   UNL     1      36.073 -23.125 -12.089  0.00  0.00    -0.196 N 
ATOM      4  C   UNL     1      35.352 -24.272 -12.315  0.00  0.00    +0.260 C 
ATOM      5  H   UNL     1      35.954 -22.315 -12.637  0.00  0.00    +0.182 HD
BRANCH   3   6
ATOM      6  O   UNL     1      36.991 -23.178 -11.031  0.00  0.00    -0.295 OA
ATOM      7  H   UNL     1      37.035 -22.311 -10.598  0.00  0.00    +0.241 HD
ENDBRANCH   3   6
ENDBRANCH   1   4
BRANCH   1   8
ATOM      8  N   UNL     1      35.017 -23.183 -14.418  0.00  0.00    -0.172 NA
ATOM      9  H   UNL     1      34.273 -22.794 -14.996  0.00  0.00    +0.149 HD
BRANCH   8  10
ATOM     10  S   UNL     1      36.223 -23.740 -15.476  0.00  0.00    +0.061 S 
ATOM     11  O   UNL     1      36.010 -25.148 -15.753  0.00  0.00    -0.153 OA
ATOM     12  O   UNL     1      37.513 -23.276 -14.999  0.00  0.00    -0.153 OA
BRANCH  10  13
ATOM     13  C   UNL     1      35.862 -22.834 -16.949  0.00  0.00    +0.122 C 
ATOM     14  C   UNL     1      34.560 -22.797 -17.418  0.00  0.00    +0.020 C 
ATOM     15  C   UNL     1      34.257 -22.081 -18.588  0.00  0.00    +0.001 C 
ATOM     16  C   UNL     1      36.885 -22.179 -17.605  0.00  0.00    +0.020 C 
ATOM     17  C   UNL     1      35.294 -21.405 -19.274  0.00  0.00    +0.000 C 
ATOM     18  C   UNL     1      36.602 -21.463 -18.769  0.00  0.00    +0.001 C 
ATOM     19  C   UNL     1      32.947 -22.023 -19.092  0.00  0.00    +0.000 C 
ATOM     20  C   UNL     1      34.990 -20.690 -20.444  0.00  0.00    +0.000 C 
ATOM     21  C   UNL     1      32.664 -21.308 -20.257  0.00  0.00    +0.000 C 
ATOM     22  C   UNL     1      33.683 -20.643 -20.930  0.00  0.00    +0.000 C 
ENDBRANCH  10  13
ENDBRANCH   8  10
ENDBRANCH   1   8
BRANCH   1  23
ATOM     23  C   UNL     1      33.032 -23.549 -12.992  0.00  0.00    +0.053 C 
BRANCH  23  24
ATOM     24  C   UNL     1      31.879 -23.947 -13.851  0.00  0.00    -0.020 C 
ATOM     25  C   UNL     1      31.227 -22.991 -14.631  0.00  0.00    -0.004 C 
ATOM     26  C   UNL     1      30.140 -23.351 -15.445  0.00  0.00    -0.000 C 
ATOM     27  C   UNL     1      31.453 -25.271 -13.872  0.00  0.00    -0.004 C 
ATOM     28  C   UNL     1      29.708 -24.698 -15.467  0.00  0.00    -0.000 C 
ATOM     29  C   UNL     1      30.375 -25.646 -14.675  0.00  0.00    -0.000 C 
ATOM     30  C   UNL     1      29.473 -22.402 -16.236  0.00  0.00    -0.000 C 
ATOM     31  C   UNL     1      28.621 -25.057 -16.280  0.00  0.00    -0.000 C 
ATOM     32  C   UNL     1      28.394 -22.776 -17.039  0.00  0.00    -0.000 C 
ATOM     33  C   UNL     1      27.969 -24.101 -17.060  0.00  0.00    -0.000 C 
ENDBRANCH  23  24
ENDBRANCH   1  23
TORSDOF 7
ENDMDL
MODEL 4
REMARK VINA RESULT:     -10.8     12.775     15.898
REMARK  Name = 9823454
REMARK  7 active torsions:
REMARK  status: ('A' for Active; 'I' for Inactive)
REMARK    1  A    between atoms: C_1  and  C_4
REMARK    2  A    between atoms: C_1  and  N_8
REMARK    3  A    between atoms: C_1  and  C_23
REMARK    4  A    between atoms: N_3  and  O_6
REMARK    5  A    between atoms: N_8  and  S_10
REMARK    6  A    between atoms: S_10  and  C_13
REMARK    7  A    between atoms: C_23  and  C_24
REMARK                            x       y       z     vdW  Elec       q    Type
REMARK                         _______ _______ _______ _____ _____    ______ ____
ROOT
ATOM      1  C   UNL     1      31.736  -8.853 -22.107  0.00  0.00    +0.158 C 
ENDROOT
BRANCH   1   4
ATOM      2  O   UNL     1      31.588  -8.690 -19.700  0.00  0.00    -0.272 OA
ATOM      3  N   UNL     1      33.161  -7.413 -20.807  0.00  0.00    -0.196 N 
ATOM      4  C   UNL     1      32.138  -8.328 -20.739  0.00  0.00    +0.260 C 
ATOM      5  H   UNL     1      33.573  -7.152 -21.663  0.00  0.00    +0.182 HD
BRANCH   3   6
ATOM      6  O   UNL     1      33.582  -6.874 -19.584  0.00  0.00    -0.295 OA
ATOM      7  H   UNL     1      32.808  -6.600 -19.068  0.00  0.00    +0.241 HD
ENDBRANCH   3   6
ENDBRANCH   1   4
BRANCH   1   8
ATOM      8  N   UNL     1      30.968  -7.757 -22.745  0.00  0.00    -0.172 NA
ATOM      9  H   UNL     1      30.189  -8.191 -23.238  0.00  0.00    +0.149 HD
BRANCH   8  10
ATOM     10  S   UNL     1      31.734  -6.720 -23.850  0.00  0.00    +0.061 S 
ATOM     11  O   UNL     1      32.467  -5.699 -23.126  0.00  0.00    -0.153 OA
ATOM     12  O   UNL     1      30.779  -6.343 -24.875  0.00  0.00    -0.153 OA
BRANCH  10  13
ATOM     13  C   UNL     1      32.908  -7.799 -24.610  0.00  0.00    +0.122 C 
ATOM     14  C   UNL     1      32.456  -8.825 -25.423  0.00  0.00    +0.020 C 
ATOM     15  C   UNL     1      33.376  -9.692 -26.034  0.00  0.00    +0.001 C 
ATOM     16  C   UNL     1      34.255  -7.599 -24.380  0.00  0.00    +0.020 C 
ATOM     17  C   UNL     1      34.761  -9.502 -25.808  0.00  0.00    +0.000 C 
ATOM     18  C   UNL     1      35.183  -8.451 -24.980  0.00  0.00    +0.001 C 
ATOM     19  C   UNL     1      32.953 -10.743 -26.863  0.00  0.00    +0.000 C 
ATOM     20  C   UNL     1      35.681 -10.369 -26.419  0.00  0.00    +0.000 C 
ATOM     21  C   UNL     1      33.882 -11.595 -27.462  0.00  0.00    +0.000 C 
ATOM     22  C   UNL     1      35.243 -11.408 -27.241  0.00  0.00    +0.000 C 
ENDBRANCH  10  13
ENDBRANCH   8  10
ENDBRANCH   1   8
BRANCH   1  23
ATOM     23  C   UNL     1      30.853 -10.106 -21.985  0.00  0.00    +0.053 C 
BRANCH  23  24
ATOM     24  C   UNL     1      31.632 -11.377 -21.948  0.00  0.00    -0.020 C 
ATOM     25  C   UNL     1      32.361 -11.783 -23.067  0.00  0.00    -0.004 C 
ATOM     26  C   UNL     1      33.099 -12.977 -23.048  0.00  0.00    -0.000 C 
ATOM     27  C   UNL     1      31.632 -12.159 -20.797  0.00  0.00    -0.004 C 
ATOM     28  C   UNL     1      33.099 -13.772 -21.877  0.00  0.00    -0.000 C 
ATOM     29  C   UNL     1      32.360 -13.348 -20.760  0.00  0.00    -0.000 C 
ATOM     30  C   UNL     1      33.837 -13.400 -24.165  0.00  0.00    -0.000 C 
ATOM     31  C   UNL     1      33.837 -14.966 -21.857  0.00  0.00    -0.000 C 
ATOM     32  C   UNL     1      34.566 -14.590 -24.128  0.00  0.00    -0.000 C 
ATOM     33  C   UNL     1      34.564 -15.371 -22.977  0.00  0.00    -0.000 C 
ENDBRANCH  23  24
ENDBRANCH   1  23
TORSDOF 7
ENDMDL
MODEL 5
REMARK VINA RESULT:     -10.5      1.982      3.268
REMARK  Name = 9823454
REMARK  7 active torsions:
REMARK  status: ('A' for Active; 'I' for Inactive)
REMARK    1  A    between atoms: C_1  and  C_4
REMARK    2  A    between atoms: C_1  and  N_8
REMARK    3  A    between atoms: C_1  and  C_23
REMARK    4  A    between atoms: N_3  and  O_6
REMARK    5  A    between atoms: N_8  and  S_10
REMARK    6  A    between atoms: S_10  and  C_13
REMARK    7  A    between atoms: C_23  and  C_24
REMARK                            x       y       z     vdW  Elec       q    Type
REMARK                         _______ _______ _______ _____ _____    ______ ____
ROOT
ATOM      1  C   UNL     1      34.321 -24.350 -16.085  0.00  0.00    +0.158 C 
ENDROOT
BRANCH   1   4
ATOM      2  O   UNL     1      36.510 -25.235 -15.570  0.00  0.00    -0.272 OA
ATOM      3  N   UNL     1      36.181 -22.952 -15.472  0.00  0.00    -0.196 N 
ATOM      4  C   UNL     1      35.784 -24.249 -15.688  0.00  0.00    +0.260 C 
ATOM      5  H   UNL     1      35.564 -22.192 -15.579  0.00  0.00    +0.182 HD
BRANCH   3   6
ATOM      6  O   UNL     1      37.518 -22.776 -15.091  0.00  0.00    -0.295 OA
ATOM      7  H   UNL     1      37.691 -23.278 -14.279  0.00  0.00    +0.241 HD
ENDBRANCH   3   6
ENDBRANCH   1   4
BRANCH   1   8
ATOM      8  N   UNL     1      33.998 -23.063 -16.747  0.00  0.00    -0.172 NA
ATOM      9  H   UNL     1      33.346 -22.572 -16.136  0.00  0.00    +0.149 HD
BRANCH   8  10
ATOM     10  S   UNL     1      33.312 -23.060 -18.300  0.00  0.00    +0.061 S 
ATOM     11  O   UNL     1      31.999 -22.445 -18.247  0.00  0.00    -0.153 OA
ATOM     12  O   UNL     1      33.479 -24.377 -18.887  0.00  0.00    -0.153 OA
BRANCH  10  13
ATOM     13  C   UNL     1      34.391 -21.967 -19.173  0.00  0.00    +0.122 C 
ATOM     14  C   UNL     1      33.874 -21.163 -20.174  0.00  0.00    +0.020 C 
ATOM     15  C   UNL     1      34.718 -20.289 -20.878  0.00  0.00    +0.001 C 
ATOM     16  C   UNL     1      35.731 -21.934 -18.840  0.00  0.00    +0.020 C 
ATOM     17  C   UNL     1      36.094 -20.243 -20.550  0.00  0.00    +0.000 C 
ATOM     18  C   UNL     1      36.585 -21.071 -19.529  0.00  0.00    +0.001 C 
ATOM     19  C   UNL     1      34.227 -19.460 -21.900  0.00  0.00    +0.000 C 
ATOM     20  C   UNL     1      36.939 -19.369 -21.254  0.00  0.00    +0.000 C 
ATOM     21  C   UNL     1      35.081 -18.597 -22.589  0.00  0.00    +0.000 C 
ATOM     22  C   UNL     1      36.433 -18.552 -22.266  0.00  0.00    +0.000 C 
ENDBRANCH  10  13
ENDBRANCH   8  10
ENDBRANCH   1   8
BRANCH   1  23
ATOM     23  C   UNL     1      33.421 -24.542 -14.853  0.00  0.00    +0.053 C 
BRANCH  23  24
ATOM     24  C   UNL     1      32.058 -23.959 -15.018  0.00  0.00    -0.020 C 
ATOM     25  C   UNL     1      31.124 -24.590 -15.841  0.00  0.00    -0.004 C 
ATOM     26  C   UNL     1      29.837 -24.053 -16.006  0.00  0.00    -0.000 C 
ATOM     27  C   UNL     1      31.719 -22.786 -14.351  0.00  0.00    -0.004 C 
ATOM     28  C   UNL     1      29.492 -22.860 -15.328  0.00  0.00    -0.000 C 
ATOM     29  C   UNL     1      30.445 -22.240 -14.504  0.00  0.00    -0.000 C 
ATOM     30  C   UNL     1      28.885 -24.675 -16.831  0.00  0.00    -0.000 C 
ATOM     31  C   UNL     1      28.205 -22.324 -15.493  0.00  0.00    -0.000 C 
ATOM     32  C   UNL     1      27.610 -24.128 -16.984  0.00  0.00    -0.000 C 
ATOM     33  C   UNL     1      27.272 -22.954 -16.317  0.00  0.00    -0.000 C 
ENDBRANCH  23  24
ENDBRANCH   1  23
TORSDOF 7
ENDMDL
MODEL 6
REMARK VINA RESULT:     -10.2     15.182     18.137
REMARK  Name = 9823454
REMARK  7 active torsions:
REMARK  status: ('A' for Active; 'I' for Inactive)
REMARK    1  A    between atoms: C_1  and  C_4
REMARK    2  A    between atoms: C_1  and  N_8
REMARK    3  A    between atoms: C_1  and  C_23
REMARK    4  A    between atoms: N_3  and  O_6
REMARK    5  A    between atoms: N_8  and  S_10
REMARK    6  A    between atoms: S_10  and  C_13
REMARK    7  A    between atoms: C_23  and  C_24
REMARK                            x       y       z     vdW  Elec       q    Type
REMARK                         _______ _______ _______ _____ _____    ______ ____
ROOT
ATOM      1  C   UNL     1      34.069  -6.426 -25.589  0.00  0.00    +0.158 C 
ENDROOT
BRANCH   1   4
ATOM      2  O   UNL     1      36.069  -5.515 -26.594  0.00  0.00    -0.272 OA
ATOM      3  N   UNL     1      34.205  -4.166 -26.405  0.00  0.00    -0.196 N 
ATOM      4  C   UNL     1      34.901  -5.340 -26.251  0.00  0.00    +0.260 C 
ATOM      5  H   UNL     1      33.268  -4.072 -26.115  0.00  0.00    +0.182 HD
BRANCH   3   6
ATOM      6  O   UNL     1      34.909  -3.111 -27.000  0.00  0.00    -0.295 OA
ATOM      7  H   UNL     1      35.296  -2.551 -26.310  0.00  0.00    +0.241 HD
ENDBRANCH   3   6
ENDBRANCH   1   4
BRANCH   1   8
ATOM      8  N   UNL     1      33.206  -5.724 -24.609  0.00  0.00    -0.172 NA
ATOM      9  H   UNL     1      33.675  -5.784 -23.706  0.00  0.00    +0.149 HD
BRANCH   8  10
ATOM     10  S   UNL     1      31.607  -6.244 -24.366  0.00  0.00    +0.061 S 
ATOM     11  O   UNL     1      31.183  -7.046 -25.498  0.00  0.00    -0.153 OA
ATOM     12  O   UNL     1      30.809  -5.112 -23.934  0.00  0.00    -0.153 OA
BRANCH  10  13
ATOM     13  C   UNL     1      31.779  -7.315 -22.973  0.00  0.00    +0.122 C 
ATOM     14  C   UNL     1      31.171  -8.559 -22.997  0.00  0.00    +0.020 C 
ATOM     15  C   UNL     1      31.297  -9.423 -21.897  0.00  0.00    +0.001 C 
ATOM     16  C   UNL     1      32.518  -6.894 -21.884  0.00  0.00    +0.020 C 
ATOM     17  C   UNL     1      32.050  -9.006 -20.773  0.00  0.00    +0.000 C 
ATOM     18  C   UNL     1      32.654  -7.739 -20.783  0.00  0.00    +0.001 C 
ATOM     19  C   UNL     1      30.693 -10.690 -21.887  0.00  0.00    +0.000 C 
ATOM     20  C   UNL     1      32.176  -9.870 -19.672  0.00  0.00    +0.000 C 
ATOM     21  C   UNL     1      30.829 -11.535 -20.785  0.00  0.00    +0.000 C 
ATOM     22  C   UNL     1      31.569 -11.126 -19.681  0.00  0.00    +0.000 C 
ENDBRANCH  10  13
ENDBRANCH   8  10
ENDBRANCH   1   8
BRANCH   1  23
ATOM     23  C   UNL     1      34.961  -7.445 -24.861  0.00  0.00    +0.053 C 
BRANCH  23  24
ATOM     24  C   UNL     1      34.664  -8.860 -25.228  0.00  0.00    -0.020 C 
ATOM     25  C   UNL     1      34.198  -9.749 -24.259  0.00  0.00    -0.004 C 
ATOM     26  C   UNL     1      33.913 -11.084 -24.588  0.00  0.00    -0.000 C 
ATOM     27  C   UNL     1      34.851  -9.293 -26.537  0.00  0.00    -0.004 C 
ATOM     28  C   UNL     1      34.104 -11.524 -25.920  0.00  0.00    -0.000 C 
ATOM     29  C   UNL     1      34.573 -10.615 -26.882  0.00  0.00    -0.000 C 
ATOM     30  C   UNL     1      33.444 -11.992 -23.625  0.00  0.00    -0.000 C 
ATOM     31  C   UNL     1      33.819 -12.859 -26.250  0.00  0.00    -0.000 C 
ATOM     32  C   UNL     1      33.166 -13.316 -23.971  0.00  0.00    -0.000 C 
ATOM     33  C   UNL     1      33.354 -13.748 -25.280  0.00  0.00    -0.000 C 
ENDBRANCH  23  24
ENDBRANCH   1  23
TORSDOF 7
ENDMDL
MODEL 7
REMARK VINA RESULT:     -10.2      2.187      3.444
REMARK  Name = 9823454
REMARK  7 active torsions:
REMARK  status: ('A' for Active; 'I' for Inactive)
REMARK    1  A    between atoms: C_1  and  C_4
REMARK    2  A    between atoms: C_1  and  N_8
REMARK    3  A    between atoms: C_1  and  C_23
REMARK    4  A    between atoms: N_3  and  O_6
REMARK    5  A    between atoms: N_8  and  S_10
REMARK    6  A    between atoms: S_10  and  C_13
REMARK    7  A    between atoms: C_23  and  C_24
REMARK                            x       y       z     vdW  Elec       q    Type
REMARK                         _______ _______ _______ _____ _____    ______ ____
ROOT
ATOM      1  C   UNL     1      34.996 -23.254 -16.483  0.00  0.00    +0.158 C 
ENDROOT
BRANCH   1   4
ATOM      2  O   UNL     1      37.048 -22.107 -17.046  0.00  0.00    -0.272 OA
ATOM      3  N   UNL     1      37.157 -24.007 -15.739  0.00  0.00    -0.196 N 
ATOM      4  C   UNL     1      36.501 -23.042 -16.463  0.00  0.00    +0.260 C 
ATOM      5  H   UNL     1      36.677 -24.739 -15.288  0.00  0.00    +0.182 HD
BRANCH   3   6
ATOM      6  O   UNL     1      38.553 -23.886 -15.682  0.00  0.00    -0.295 OA
ATOM      7  H   UNL     1      38.821 -23.047 -16.087  0.00  0.00    +0.241 HD
ENDBRANCH   3   6
ENDBRANCH   1   4
BRANCH   1   8
ATOM      8  N   UNL     1      34.459 -22.211 -17.390  0.00  0.00    -0.172 NA
ATOM      9  H   UNL     1      33.900 -21.581 -16.817  0.00  0.00    +0.149 HD
BRANCH   8  10
ATOM     10  S   UNL     1      33.494 -22.658 -18.714  0.00  0.00    +0.061 S 
ATOM     11  O   UNL     1      32.094 -22.514 -18.361  0.00  0.00    -0.153 OA
ATOM     12  O   UNL     1      33.987 -23.914 -19.248  0.00  0.00    -0.153 OA
BRANCH  10  13
ATOM     13  C   UNL     1      33.891 -21.405 -19.894  0.00  0.00    +0.122 C 
ATOM     14  C   UNL     1      35.213 -21.035 -20.069  0.00  0.00    +0.020 C 
ATOM     15  C   UNL     1      35.545 -20.040 -21.003  0.00  0.00    +0.001 C 
ATOM     16  C   UNL     1      32.874 -20.817 -20.621  0.00  0.00    +0.020 C 
ATOM     17  C   UNL     1      34.515 -19.427 -21.756  0.00  0.00    +0.000 C 
ATOM     18  C   UNL     1      33.186 -19.827 -21.554  0.00  0.00    +0.001 C 
ATOM     19  C   UNL     1      36.876 -19.640 -21.205  0.00  0.00    +0.000 C 
ATOM     20  C   UNL     1      34.847 -18.431 -22.689  0.00  0.00    +0.000 C 
ATOM     21  C   UNL     1      37.187 -18.649 -22.137  0.00  0.00    +0.000 C 
ATOM     22  C   UNL     1      36.175 -18.046 -22.878  0.00  0.00    +0.000 C 
ENDBRANCH  10  13
ENDBRANCH   8  10
ENDBRANCH   1   8
BRANCH   1  23
ATOM     23  C   UNL     1      34.392 -23.085 -15.079  0.00  0.00    +0.053 C 
BRANCH  23  24
ATOM     24  C   UNL     1      33.046 -23.712 -14.935  0.00  0.00    -0.020 C 
ATOM     25  C   UNL     1      31.948 -23.172 -15.607  0.00  0.00    -0.004 C 
ATOM     26  C   UNL     1      30.675 -23.751 -15.481  0.00  0.00    -0.000 C 
ATOM     27  C   UNL     1      32.886 -24.836 -14.131  0.00  0.00    -0.004 C 
ATOM     28  C   UNL     1      30.513 -24.894 -14.663  0.00  0.00    -0.000 C 
ATOM     29  C   UNL     1      31.628 -25.425 -13.996  0.00  0.00    -0.000 C 
ATOM     30  C   UNL     1      29.560 -23.219 -16.149  0.00  0.00    -0.000 C 
ATOM     31  C   UNL     1      29.240 -25.473 -14.538  0.00  0.00    -0.000 C 
ATOM     32  C   UNL     1      28.302 -23.808 -16.013  0.00  0.00    -0.000 C 
ATOM     33  C   UNL     1      28.143 -24.932 -15.209  0.00  0.00    -0.000 C 
ENDBRANCH  23  24
ENDBRANCH   1  23
TORSDOF 7
ENDMDL
MODEL 8
REMARK VINA RESULT:     -10.0     14.340     17.408
REMARK  Name = 9823454
REMARK  7 active torsions:
REMARK  status: ('A' for Active; 'I' for Inactive)
REMARK    1  A    between atoms: C_1  and  C_4
REMARK    2  A    between atoms: C_1  and  N_8
REMARK    3  A    between atoms: C_1  and  C_23
REMARK    4  A    between atoms: N_3  and  O_6
REMARK    5  A    between atoms: N_8  and  S_10
REMARK    6  A    between atoms: S_10  and  C_13
REMARK    7  A    between atoms: C_23  and  C_24
REMARK                            x       y       z     vdW  Elec       q    Type
REMARK                         _______ _______ _______ _____ _____    ______ ____
ROOT
ATOM      1  C   UNL     1      33.058  -5.941 -24.618  0.00  0.00    +0.158 C 
ENDROOT
BRANCH   1   4
ATOM      2  O   UNL     1      33.801  -4.585 -26.476  0.00  0.00    -0.272 OA
ATOM      3  N   UNL     1      31.647  -4.314 -25.691  0.00  0.00    -0.196 N 
ATOM      4  C   UNL     1      32.896  -4.884 -25.699  0.00  0.00    +0.260 C 
ATOM      5  H   UNL     1      30.951  -4.586 -25.049  0.00  0.00    +0.182 HD
BRANCH   3   6
ATOM      6  O   UNL     1      31.422  -3.320 -26.654  0.00  0.00    -0.295 OA
ATOM      7  H   UNL     1      30.960  -2.572 -26.244  0.00  0.00    +0.241 HD
ENDBRANCH   3   6
ENDBRANCH   1   4
BRANCH   1   8
ATOM      8  N   UNL     1      33.331  -7.208 -25.338  0.00  0.00    -0.172 NA
ATOM      9  H   UNL     1      32.620  -7.876 -25.040  0.00  0.00    +0.149 HD
BRANCH   8  10
ATOM     10  S   UNL     1      34.834  -7.976 -25.156  0.00  0.00    +0.061 S 
ATOM     11  O   UNL     1      35.298  -7.813 -23.791  0.00  0.00    -0.153 OA
ATOM     12  O   UNL     1      35.688  -7.600 -26.267  0.00  0.00    -0.153 OA
BRANCH  10  13
ATOM     13  C   UNL     1      34.406  -9.675 -25.388  0.00  0.00    +0.122 C 
ATOM     14  C   UNL     1      34.130 -10.459 -24.281  0.00  0.00    +0.020 C 
ATOM     15  C   UNL     1      33.789 -11.811 -24.448  0.00  0.00    +0.001 C 
ATOM     16  C   UNL     1      34.355 -10.189 -26.668  0.00  0.00    +0.020 C 
ATOM     17  C   UNL     1      33.732 -12.354 -25.754  0.00  0.00    +0.000 C 
ATOM     18  C   UNL     1      34.017 -11.530 -26.853  0.00  0.00    +0.001 C 
ATOM     19  C   UNL     1      33.503 -12.636 -23.347  0.00  0.00    +0.000 C 
ATOM     20  C   UNL     1      33.391 -13.707 -25.921  0.00  0.00    +0.000 C 
ATOM     21  C   UNL     1      33.166 -13.978 -23.532  0.00  0.00    +0.000 C 
ATOM     22  C   UNL     1      33.110 -14.511 -24.815  0.00  0.00    +0.000 C 
ENDBRANCH  10  13
ENDBRANCH   8  10
ENDBRANCH   1   8
BRANCH   1  23
ATOM     23  C   UNL     1      31.776  -6.083 -23.782  0.00  0.00    +0.053 C 
BRANCH  23  24
ATOM     24  C   UNL     1      31.882  -7.109 -22.704  0.00  0.00    -0.020 C 
ATOM     25  C   UNL     1      31.271  -8.353 -22.862  0.00  0.00    -0.004 C 
ATOM     26  C   UNL     1      31.363  -9.330 -21.857  0.00  0.00    -0.000 C 
ATOM     27  C   UNL     1      32.592  -6.824 -21.542  0.00  0.00    -0.004 C 
ATOM     28  C   UNL     1      32.085  -9.040 -20.674  0.00  0.00    -0.000 C 
ATOM     29  C   UNL     1      32.694  -7.783 -20.533  0.00  0.00    -0.000 C 
ATOM     30  C   UNL     1      30.753 -10.586 -21.999  0.00  0.00    -0.000 C 
ATOM     31  C   UNL     1      32.177 -10.016 -19.669  0.00  0.00    -0.000 C 
ATOM     32  C   UNL     1      30.855 -11.545 -20.990  0.00  0.00    -0.000 C 
ATOM     33  C   UNL     1      31.564 -11.260 -19.828  0.00  0.00    -0.000 C 
ENDBRANCH  23  24
ENDBRANCH   1  23
TORSDOF 7
ENDMDL
MODEL 9
REMARK VINA RESULT:     -10.0      3.131      6.037
REMARK  Name = 9823454
REMARK  7 active torsions:
REMARK  status: ('A' for Active; 'I' for Inactive)
REMARK    1  A    between atoms: C_1  and  C_4
REMARK    2  A    between atoms: C_1  and  N_8
REMARK    3  A    between atoms: C_1  and  C_23
REMARK    4  A    between atoms: N_3  and  O_6
REMARK    5  A    between atoms: N_8  and  S_10
REMARK    6  A    between atoms: S_10  and  C_13
REMARK    7  A    between atoms: C_23  and  C_24
REMARK                            x       y       z     vdW  Elec       q    Type
REMARK                         _______ _______ _______ _____ _____    ______ ____
ROOT
ATOM      1  C   UNL     1      33.859 -23.137 -15.831  0.00  0.00    +0.158 C 
ENDROOT
BRANCH   1   4
ATOM      2  O   UNL     1      34.027 -25.485 -15.284  0.00  0.00    -0.272 OA
ATOM      3  N   UNL     1      32.529 -24.174 -14.115  0.00  0.00    -0.196 N 
ATOM      4  C   UNL     1      33.500 -24.397 -15.060  0.00  0.00    +0.260 C 
ATOM      5  H   UNL     1      32.134 -23.284 -13.970  0.00  0.00    +0.182 HD
BRANCH   3   6
ATOM      6  O   UNL     1      32.135 -25.293 -13.368  0.00  0.00    -0.295 OA
ATOM      7  H   UNL     1      31.985 -25.030 -12.447  0.00  0.00    +0.241 HD
ENDBRANCH   3   6
ENDBRANCH   1   4
BRANCH   1   8
ATOM      8  N   UNL     1      34.344 -23.602 -17.152  0.00  0.00    -0.172 NA
ATOM      9  H   UNL     1      35.270 -23.199 -17.286  0.00  0.00    +0.149 HD
BRANCH   8  10
ATOM     10  S   UNL     1      33.448 -23.252 -18.552  0.00  0.00    +0.061 S 
ATOM     11  O   UNL     1      32.200 -22.613 -18.179  0.00  0.00    -0.153 OA
ATOM     12  O   UNL     1      33.440 -24.425 -19.407  0.00  0.00    -0.153 OA
BRANCH  10  13
ATOM     13  C   UNL     1      34.465 -22.044 -19.343  0.00  0.00    +0.122 C 
ATOM     14  C   UNL     1      33.918 -21.242 -20.330  0.00  0.00    +0.020 C 
ATOM     15  C   UNL     1      34.713 -20.277 -20.970  0.00  0.00    +0.001 C 
ATOM     16  C   UNL     1      35.786 -21.921 -18.962  0.00  0.00    +0.020 C 
ATOM     17  C   UNL     1      36.070 -20.137 -20.592  0.00  0.00    +0.000 C 
ATOM     18  C   UNL     1      36.591 -20.966 -19.586  0.00  0.00    +0.001 C 
ATOM     19  C   UNL     1      34.191 -19.447 -21.976  0.00  0.00    +0.000 C 
ATOM     20  C   UNL     1      36.865 -19.173 -21.231  0.00  0.00    +0.000 C 
ATOM     21  C   UNL     1      34.996 -18.493 -22.600  0.00  0.00    +0.000 C 
ATOM     22  C   UNL     1      36.330 -18.356 -22.229  0.00  0.00    +0.000 C 
ENDBRANCH  10  13
ENDBRANCH   8  10
ENDBRANCH   1   8
BRANCH   1  23
ATOM     23  C   UNL     1      34.969 -22.347 -15.118  0.00  0.00    +0.053 C 
BRANCH  23  24
ATOM     24  C   UNL     1      36.067 -23.210 -14.594  0.00  0.00    -0.020 C 
ATOM     25  C   UNL     1      37.084 -23.641 -15.446  0.00  0.00    -0.004 C 
ATOM     26  C   UNL     1      38.125 -24.454 -14.968  0.00  0.00    -0.000 C 
ATOM     27  C   UNL     1      36.077 -23.585 -13.254  0.00  0.00    -0.004 C 
ATOM     28  C   UNL     1      38.134 -24.835 -13.605  0.00  0.00    -0.000 C 
ATOM     29  C   UNL     1      37.103 -24.392 -12.761  0.00  0.00    -0.000 C 
ATOM     30  C   UNL     1      39.155 -24.897 -15.812  0.00  0.00    -0.000 C 
ATOM     31  C   UNL     1      39.174 -25.648 -13.126  0.00  0.00    -0.000 C 
ATOM     32  C   UNL     1      40.182 -25.705 -15.320  0.00  0.00    -0.000 C 
ATOM     33  C   UNL     1      40.190 -26.080 -13.980  0.00  0.00    -0.000 C 
ENDBRANCH  23  24
ENDBRANCH   1  23
TORSDOF 7
ENDMDL
