MODEL 1
REMARK VINA RESULT:     -11.4      0.000      0.000
REMARK  Name = 24755471
REMARK  13 active torsions:
REMARK  status: ('A' for Active; 'I' for Inactive)
REMARK    1  A    between atoms: C_1  and  S_11
REMARK    2  A    between atoms: C_9  and  O_27
REMARK    3  A    between atoms: S_11  and  N_14
REMARK    4  A    between atoms: N_14  and  C_16
REMARK    5  A    between atoms: C_16  and  C_18
REMARK    6  A    between atoms: C_16  and  C_21
REMARK    7  A    between atoms: C_18  and  O_19
REMARK    8  A    between atoms: C_21  and  C_22
REMARK    9  A    between atoms: C_22  and  C_24
REMARK   10  A    between atoms: C_24  and  O_25
REMARK   11  A    between atoms: O_27  and  C_28
REMARK   12  A    between atoms: C_28  and  C_29
REMARK   13  A    between atoms: C_34  and  C_36
REMARK                            x       y       z     vdW  Elec       q    Type
REMARK                         _______ _______ _______ _____ _____    ______ ____
ROOT
ATOM      1  C   UNL     1      33.053 -23.786 -15.588  0.00  0.00    +0.122 C 
ATOM      2  C   UNL     1      34.384 -22.754 -17.344  0.00  0.00    +0.002 C 
ATOM      3  C   UNL     1      34.290 -23.375 -16.088  0.00  0.00    +0.020 C 
ATOM      4  C   UNL     1      33.209 -22.547 -18.104  0.00  0.00    +0.003 C 
ATOM      5  C   UNL     1      31.897 -23.581 -16.336  0.00  0.00    +0.020 C 
ATOM      6  C   UNL     1      31.973 -22.966 -17.586  0.00  0.00    +0.001 C 
ATOM      7  C   UNL     1      33.304 -21.926 -19.360  0.00  0.00    +0.037 C 
ATOM      8  C   UNL     1      35.621 -22.334 -17.863  0.00  0.00    +0.003 C 
ATOM      9  C   UNL     1      34.540 -21.516 -19.860  0.00  0.00    +0.139 C 
ATOM     10  C   UNL     1      35.696 -21.719 -19.113  0.00  0.00    +0.037 C 
ENDROOT
BRANCH   1  11
ATOM     11  S   UNL     1      32.956 -24.565 -14.004  0.00  0.00    +0.061 S 
ATOM     12  O   UNL     1      32.649 -23.544 -13.022  0.00  0.00    -0.153 OA
ATOM     13  O   UNL     1      32.090 -25.719 -14.154  0.00  0.00    -0.153 OA
BRANCH  11  14
ATOM     14  N   UNL     1      34.554 -25.102 -13.780  0.00  0.00    -0.170 NA
ATOM     15  H   UNL     1      34.993 -25.109 -14.700  0.00  0.00    +0.149 HD
BRANCH  14  16
ATOM     16  C   UNL     1      35.461 -24.360 -12.878  0.00  0.00    +0.174 C 
BRANCH  16  18
ATOM     17  O   UNL     1      35.158 -24.849 -10.515  0.00  0.00    -0.249 OA
ATOM     18  C   UNL     1      35.616 -25.161 -11.607  0.00  0.00    +0.330 C 
BRANCH  18  19
ATOM     19  O   UNL     1      36.316 -26.307 -11.807  0.00  0.00    -0.479 OA
ATOM     20  H   UNL     1      36.944 -26.358 -12.500  0.00  0.00    +0.295 HD
ENDBRANCH  18  19
ENDBRANCH  16  18
BRANCH  16  21
ATOM     21  C   UNL     1      36.779 -24.036 -13.592  0.00  0.00    +0.040 C 
BRANCH  21  22
ATOM     22  C   UNL     1      37.152 -24.936 -14.774  0.00  0.00    +0.111 C 
BRANCH  22  24
ATOM     23  O   UNL     1      38.749 -26.224 -13.499  0.00  0.00    -0.250 OA
ATOM     24  C   UNL     1      38.422 -25.721 -14.567  0.00  0.00    +0.314 C 
BRANCH  24  25
ATOM     25  O   UNL     1      39.180 -25.801 -15.690  0.00  0.00    -0.480 OA
ATOM     26  H   UNL     1      38.817 -26.163 -16.474  0.00  0.00    +0.295 HD
ENDBRANCH  24  25
ENDBRANCH  22  24
ENDBRANCH  21  22
ENDBRANCH  16  21
ENDBRANCH  14  16
ENDBRANCH  11  14
ENDBRANCH   1  11
BRANCH   9  27
ATOM     27  O   UNL     1      34.616 -20.917 -21.080  0.00  0.00    -0.471 OA
BRANCH  27  28
ATOM     28  C   UNL     1      35.664 -19.970 -21.275  0.00  0.00    +0.232 C 
BRANCH  28  29
ATOM     29  C   UNL     1      35.226 -18.954 -22.289  0.00  0.00    +0.021 C 
ATOM     30  C   UNL     1      35.361 -17.593 -22.015  0.00  0.00    -0.000 C 
ATOM     31  C   UNL     1      34.681 -19.371 -23.503  0.00  0.00    -0.000 C 
ATOM     32  C   UNL     1      34.953 -16.650 -22.957  0.00  0.00    +0.010 C 
ATOM     33  C   UNL     1      34.273 -18.427 -24.445  0.00  0.00    +0.010 C 
ATOM     34  C   UNL     1      34.408 -17.066 -24.171  0.00  0.00    +0.068 C 
BRANCH  34  36
ATOM     35  N   UNL     1      33.651 -15.312 -25.920  0.00  0.00    -0.191 NA
ATOM     36  C   UNL     1      33.990 -16.098 -25.137  0.00  0.00    +0.100 C 
ENDBRANCH  34  36
ENDBRANCH  28  29
ENDBRANCH  27  28
ENDBRANCH   9  27
TORSDOF 13
ENDMDL
MODEL 2
REMARK VINA RESULT:     -11.4      1.333      2.715
REMARK  Name = 24755471
REMARK  13 active torsions:
REMARK  status: ('A' for Active; 'I' for Inactive)
REMARK    1  A    between atoms: C_1  and  S_11
REMARK    2  A    between atoms: C_9  and  O_27
REMARK    3  A    between atoms: S_11  and  N_14
REMARK    4  A    between atoms: N_14  and  C_16
REMARK    5  A    between atoms: C_16  and  C_18
REMARK    6  A    between atoms: C_16  and  C_21
REMARK    7  A    between atoms: C_18  and  O_19
REMARK    8  A    between atoms: C_21  and  C_22
REMARK    9  A    between atoms: C_22  and  C_24
REMARK   10  A    between atoms: C_24  and  O_25
REMARK   11  A    between atoms: O_27  and  C_28
REMARK   12  A    between atoms: C_28  and  C_29
REMARK   13  A    between atoms: C_34  and  C_36
REMARK                            x       y       z     vdW  Elec       q    Type
REMARK                         _______ _______ _______ _____ _____    ______ ____
ROOT
ATOM      1  C   UNL     1      34.521 -23.598 -16.682  0.00  0.00    +0.122 C 
ATOM      2  C   UNL     1      35.299 -22.124 -18.454  0.00  0.00    +0.002 C 
ATOM      3  C   UNL     1      35.554 -22.908 -17.318  0.00  0.00    +0.020 C 
ATOM      4  C   UNL     1      33.978 -22.039 -18.955  0.00  0.00    +0.003 C 
ATOM      5  C   UNL     1      33.222 -23.514 -17.173  0.00  0.00    +0.020 C 
ATOM      6  C   UNL     1      32.951 -22.740 -18.302  0.00  0.00    +0.001 C 
ATOM      7  C   UNL     1      33.723 -21.256 -20.092  0.00  0.00    +0.037 C 
ATOM      8  C   UNL     1      36.327 -21.422 -19.107  0.00  0.00    +0.003 C 
ATOM      9  C   UNL     1      34.756 -20.566 -20.727  0.00  0.00    +0.139 C 
ATOM     10  C   UNL     1      36.056 -20.649 -20.235  0.00  0.00    +0.037 C 
ENDROOT
BRANCH   1  11
ATOM     11  S   UNL     1      34.864 -24.579 -15.251  0.00  0.00    +0.061 S 
ATOM     12  O   UNL     1      33.867 -24.266 -14.247  0.00  0.00    -0.153 OA
ATOM     13  O   UNL     1      35.038 -25.944 -15.708  0.00  0.00    -0.153 OA
BRANCH  11  14
ATOM     14  N   UNL     1      36.372 -23.966 -14.761  0.00  0.00    -0.170 NA
ATOM     15  H   UNL     1      36.187 -23.098 -14.258  0.00  0.00    +0.149 HD
BRANCH  14  16
ATOM     16  C   UNL     1      37.254 -24.781 -13.897  0.00  0.00    +0.174 C 
BRANCH  16  18
ATOM     17  O   UNL     1      39.587 -24.684 -14.579  0.00  0.00    -0.249 OA
ATOM     18  C   UNL     1      38.469 -25.170 -14.705  0.00  0.00    +0.330 C 
BRANCH  18  19
ATOM     19  O   UNL     1      38.196 -26.156 -15.598  0.00  0.00    -0.479 OA
ATOM     20  H   UNL     1      37.327 -26.495 -15.670  0.00  0.00    +0.295 HD
ENDBRANCH  18  19
ENDBRANCH  16  18
BRANCH  16  21
ATOM     21  C   UNL     1      37.566 -24.035 -12.595  0.00  0.00    +0.040 C 
BRANCH  21  22
ATOM     22  C   UNL     1      36.375 -23.396 -11.874  0.00  0.00    +0.111 C 
BRANCH  22  24
ATOM     23  O   UNL     1      35.761 -24.380  -9.755  0.00  0.00    -0.250 OA
ATOM     24  C   UNL     1      35.627 -24.345 -10.971  0.00  0.00    +0.314 C 
BRANCH  24  25
ATOM     25  O   UNL     1      34.797 -25.175 -11.653  0.00  0.00    -0.480 OA
ATOM     26  H   UNL     1      35.084 -26.035 -11.886  0.00  0.00    +0.295 HD
ENDBRANCH  24  25
ENDBRANCH  22  24
ENDBRANCH  21  22
ENDBRANCH  16  21
ENDBRANCH  14  16
ENDBRANCH  11  14
ENDBRANCH   1  11
BRANCH   9  27
ATOM     27  O   UNL     1      34.493 -19.812 -21.829  0.00  0.00    -0.471 OA
BRANCH  27  28
ATOM     28  C   UNL     1      35.572 -19.048 -22.366  0.00  0.00    +0.232 C 
BRANCH  28  29
ATOM     29  C   UNL     1      35.014 -17.906 -23.163  0.00  0.00    +0.021 C 
ATOM     30  C   UNL     1      35.132 -16.600 -22.686  0.00  0.00    -0.000 C 
ATOM     31  C   UNL     1      34.377 -18.149 -24.380  0.00  0.00    -0.000 C 
ATOM     32  C   UNL     1      34.613 -15.538 -23.426  0.00  0.00    +0.010 C 
ATOM     33  C   UNL     1      33.859 -17.087 -25.120  0.00  0.00    +0.010 C 
ATOM     34  C   UNL     1      33.976 -15.782 -24.643  0.00  0.00    +0.068 C 
BRANCH  34  36
ATOM     35  N   UNL     1      33.015 -13.808 -26.017  0.00  0.00    -0.191 NA
ATOM     36  C   UNL     1      33.445 -14.693 -25.402  0.00  0.00    +0.100 C 
ENDBRANCH  34  36
ENDBRANCH  28  29
ENDBRANCH  27  28
ENDBRANCH   9  27
TORSDOF 13
ENDMDL
MODEL 3
REMARK VINA RESULT:     -11.3      1.426      2.099
REMARK  Name = 24755471
REMARK  13 active torsions:
REMARK  status: ('A' for Active; 'I' for Inactive)
REMARK    1  A    between atoms: C_1  and  S_11
REMARK    2  A    between atoms: C_9  and  O_27
REMARK    3  A    between atoms: S_11  and  N_14
REMARK    4  A    between atoms: N_14  and  C_16
REMARK    5  A    between atoms: C_16  and  C_18
REMARK    6  A    between atoms: C_16  and  C_21
REMARK    7  A    between atoms: C_18  and  O_19
REMARK    8  A    between atoms: C_21  and  C_22
REMARK    9  A    between atoms: C_22  and  C_24
REMARK   10  A    between atoms: C_24  and  O_25
REMARK   11  A    between atoms: O_27  and  C_28
REMARK   12  A    between atoms: C_28  and  C_29
REMARK   13  A    between atoms: C_34  and  C_36
REMARK                            x       y       z     vdW  Elec       q    Type
REMARK                         _______ _______ _______ _____ _____    ______ ____
ROOT
ATOM      1  C   UNL     1      35.658 -23.363 -15.718  0.00  0.00    +0.122 C 
ATOM      2  C   UNL     1      34.659 -22.567 -17.790  0.00  0.00    +0.002 C 
ATOM      3  C   UNL     1      34.558 -23.258 -16.571  0.00  0.00    +0.020 C 
ATOM      4  C   UNL     1      35.893 -21.974 -18.148  0.00  0.00    +0.003 C 
ATOM      5  C   UNL     1      36.870 -22.779 -16.071  0.00  0.00    +0.020 C 
ATOM      6  C   UNL     1      36.989 -22.089 -17.278  0.00  0.00    +0.001 C 
ATOM      7  C   UNL     1      35.994 -21.283 -19.367  0.00  0.00    +0.037 C 
ATOM      8  C   UNL     1      33.562 -22.453 -18.661  0.00  0.00    +0.003 C 
ATOM      9  C   UNL     1      34.894 -21.179 -20.219  0.00  0.00    +0.139 C 
ATOM     10  C   UNL     1      33.681 -21.763 -19.867  0.00  0.00    +0.037 C 
ENDROOT
BRANCH   1  11
ATOM     11  S   UNL     1      35.509 -24.237 -14.189  0.00  0.00    +0.061 S 
ATOM     12  O   UNL     1      34.204 -23.939 -13.630  0.00  0.00    -0.153 OA
ATOM     13  O   UNL     1      35.896 -25.610 -14.448  0.00  0.00    -0.153 OA
BRANCH  11  14
ATOM     14  N   UNL     1      36.711 -23.494 -13.243  0.00  0.00    -0.170 NA
ATOM     15  H   UNL     1      36.286 -22.668 -12.823  0.00  0.00    +0.149 HD
BRANCH  14  16
ATOM     16  C   UNL     1      37.358 -24.248 -12.147  0.00  0.00    +0.174 C 
BRANCH  16  18
ATOM     17  O   UNL     1      36.008 -24.010 -10.138  0.00  0.00    -0.249 OA
ATOM     18  C   UNL     1      36.290 -24.636 -11.152  0.00  0.00    +0.330 C 
BRANCH  18  19
ATOM     19  O   UNL     1      35.641 -25.772 -11.516  0.00  0.00    -0.479 OA
ATOM     20  H   UNL     1      36.126 -26.507 -11.835  0.00  0.00    +0.295 HD
ENDBRANCH  18  19
ENDBRANCH  16  18
BRANCH  16  21
ATOM     21  C   UNL     1      38.164 -25.424 -12.710  0.00  0.00    +0.040 C 
BRANCH  21  22
ATOM     22  C   UNL     1      39.330 -25.070 -13.637  0.00  0.00    +0.111 C 
BRANCH  22  24
ATOM     23  O   UNL     1      40.591 -26.616 -14.999  0.00  0.00    -0.250 OA
ATOM     24  C   UNL     1      39.532 -26.048 -14.767  0.00  0.00    +0.314 C 
BRANCH  24  25
ATOM     25  O   UNL     1      38.414 -26.224 -15.515  0.00  0.00    -0.480 OA
ATOM     26  H   UNL     1      37.642 -25.726 -15.328  0.00  0.00    +0.295 HD
ENDBRANCH  24  25
ENDBRANCH  22  24
ENDBRANCH  21  22
ENDBRANCH  16  21
ENDBRANCH  14  16
ENDBRANCH  11  14
ENDBRANCH   1  11
BRANCH   9  27
ATOM     27  O   UNL     1      35.008 -20.504 -21.396  0.00  0.00    -0.471 OA
BRANCH  27  28
ATOM     28  C   UNL     1      35.858 -19.359 -21.409  0.00  0.00    +0.232 C 
BRANCH  28  29
ATOM     29  C   UNL     1      35.336 -18.371 -22.410  0.00  0.00    +0.021 C 
ATOM     30  C   UNL     1      35.305 -17.012 -22.097  0.00  0.00    -0.000 C 
ATOM     31  C   UNL     1      34.880 -18.812 -23.652  0.00  0.00    -0.000 C 
ATOM     32  C   UNL     1      34.818 -16.094 -23.027  0.00  0.00    +0.010 C 
ATOM     33  C   UNL     1      34.394 -17.894 -24.582  0.00  0.00    +0.010 C 
ATOM     34  C   UNL     1      34.362 -16.535 -24.270  0.00  0.00    +0.068 C 
BRANCH  34  36
ATOM     35  N   UNL     1      33.460 -14.829 -25.997  0.00  0.00    -0.191 NA
ATOM     36  C   UNL     1      33.865 -15.593 -25.223  0.00  0.00    +0.100 C 
ENDBRANCH  34  36
ENDBRANCH  28  29
ENDBRANCH  27  28
ENDBRANCH   9  27
TORSDOF 13
ENDMDL
MODEL 4
REMARK VINA RESULT:     -11.0      3.150      5.590
REMARK  Name = 24755471
REMARK  13 active torsions:
REMARK  status: ('A' for Active; 'I' for Inactive)
REMARK    1  A    between atoms: C_1  and  S_11
REMARK    2  A    between atoms: C_9  and  O_27
REMARK    3  A    between atoms: S_11  and  N_14
REMARK    4  A    between atoms: N_14  and  C_16
REMARK    5  A    between atoms: C_16  and  C_18
REMARK    6  A    between atoms: C_16  and  C_21
REMARK    7  A    between atoms: C_18  and  O_19
REMARK    8  A    between atoms: C_21  and  C_22
REMARK    9  A    between atoms: C_22  and  C_24
REMARK   10  A    between atoms: C_24  and  O_25
REMARK   11  A    between atoms: O_27  and  C_28
REMARK   12  A    between atoms: C_28  and  C_29
REMARK   13  A    between atoms: C_34  and  C_36
REMARK                            x       y       z     vdW  Elec       q    Type
REMARK                         _______ _______ _______ _____ _____    ______ ____
ROOT
ATOM      1  C   UNL     1      33.880 -22.184 -19.036  0.00  0.00    +0.122 C 
ATOM      2  C   UNL     1      35.293 -20.689 -20.335  0.00  0.00    +0.002 C 
ATOM      3  C   UNL     1      35.146 -21.709 -19.381  0.00  0.00    +0.020 C 
ATOM      4  C   UNL     1      34.141 -20.142 -20.947  0.00  0.00    +0.003 C 
ATOM      5  C   UNL     1      32.747 -21.646 -19.638  0.00  0.00    +0.020 C 
ATOM      6  C   UNL     1      32.874 -20.631 -20.587  0.00  0.00    +0.001 C 
ATOM      7  C   UNL     1      34.288 -19.121 -21.900  0.00  0.00    +0.037 C 
ATOM      8  C   UNL     1      36.561 -20.199 -20.694  0.00  0.00    +0.003 C 
ATOM      9  C   UNL     1      35.554 -18.647 -22.245  0.00  0.00    +0.139 C 
ATOM     10  C   UNL     1      36.688 -19.184 -21.643  0.00  0.00    +0.037 C 
ENDROOT
BRANCH   1  11
ATOM     11  S   UNL     1      33.717 -23.470 -17.833  0.00  0.00    +0.061 S 
ATOM     12  O   UNL     1      33.351 -24.688 -18.530  0.00  0.00    -0.153 OA
ATOM     13  O   UNL     1      34.908 -23.429 -17.008  0.00  0.00    -0.153 OA
BRANCH  11  14
ATOM     14  N   UNL     1      32.393 -22.924 -16.917  0.00  0.00    -0.170 NA
ATOM     15  H   UNL     1      31.724 -22.525 -17.575  0.00  0.00    +0.149 HD
BRANCH  14  16
ATOM     16  C   UNL     1      31.642 -23.875 -16.067  0.00  0.00    +0.174 C 
BRANCH  16  18
ATOM     17  O   UNL     1      33.195 -23.317 -14.281  0.00  0.00    -0.249 OA
ATOM     18  C   UNL     1      32.454 -24.130 -14.820  0.00  0.00    +0.330 C 
BRANCH  18  19
ATOM     19  O   UNL     1      32.261 -25.381 -14.330  0.00  0.00    -0.479 OA
ATOM     20  H   UNL     1      32.474 -26.128 -14.854  0.00  0.00    +0.295 HD
ENDBRANCH  18  19
ENDBRANCH  16  18
BRANCH  16  21
ATOM     21  C   UNL     1      30.223 -23.355 -15.809  0.00  0.00    +0.040 C 
BRANCH  21  22
ATOM     22  C   UNL     1      29.074 -24.225 -16.329  0.00  0.00    +0.111 C 
BRANCH  22  24
ATOM     23  O   UNL     1      27.170 -24.014 -17.800  0.00  0.00    -0.250 OA
ATOM     24  C   UNL     1      28.082 -23.478 -17.184  0.00  0.00    +0.314 C 
BRANCH  24  25
ATOM     25  O   UNL     1      28.316 -22.142 -17.215  0.00  0.00    -0.480 OA
ATOM     26  H   UNL     1      28.063 -21.640 -17.964  0.00  0.00    +0.295 HD
ENDBRANCH  24  25
ENDBRANCH  22  24
ENDBRANCH  21  22
ENDBRANCH  16  21
ENDBRANCH  14  16
ENDBRANCH  11  14
ENDBRANCH   1  11
BRANCH   9  27
ATOM     27  O   UNL     1      35.681 -17.658 -23.172  0.00  0.00    -0.471 OA
BRANCH  27  28
ATOM     28  C   UNL     1      34.556 -17.409 -24.013  0.00  0.00    +0.232 C 
BRANCH  28  29
ATOM     29  C   UNL     1      34.292 -15.933 -24.055  0.00  0.00    +0.021 C 
ATOM     30  C   UNL     1      33.770 -15.351 -25.210  0.00  0.00    -0.000 C 
ATOM     31  C   UNL     1      34.569 -15.143 -22.940  0.00  0.00    -0.000 C 
ATOM     32  C   UNL     1      33.526 -13.979 -25.250  0.00  0.00    +0.010 C 
ATOM     33  C   UNL     1      34.325 -13.771 -22.979  0.00  0.00    +0.010 C 
ATOM     34  C   UNL     1      33.803 -13.188 -24.135  0.00  0.00    +0.068 C 
BRANCH  34  36
ATOM     35  N   UNL     1      33.347 -10.640 -24.207  0.00  0.00    -0.191 NA
ATOM     36  C   UNL     1      33.552 -11.782 -24.175  0.00  0.00    +0.100 C 
ENDBRANCH  34  36
ENDBRANCH  28  29
ENDBRANCH  27  28
ENDBRANCH   9  27
TORSDOF 13
ENDMDL
MODEL 5
REMARK VINA RESULT:     -11.0      2.554      3.899
REMARK  Name = 24755471
REMARK  13 active torsions:
REMARK  status: ('A' for Active; 'I' for Inactive)
REMARK    1  A    between atoms: C_1  and  S_11
REMARK    2  A    between atoms: C_9  and  O_27
REMARK    3  A    between atoms: S_11  and  N_14
REMARK    4  A    between atoms: N_14  and  C_16
REMARK    5  A    between atoms: C_16  and  C_18
REMARK    6  A    between atoms: C_16  and  C_21
REMARK    7  A    between atoms: C_18  and  O_19
REMARK    8  A    between atoms: C_21  and  C_22
REMARK    9  A    between atoms: C_22  and  C_24
REMARK   10  A    between atoms: C_24  and  O_25
REMARK   11  A    between atoms: O_27  and  C_28
REMARK   12  A    between atoms: C_28  and  C_29
REMARK   13  A    between atoms: C_34  and  C_36
REMARK                            x       y       z     vdW  Elec       q    Type
REMARK                         _______ _______ _______ _____ _____    ______ ____
ROOT
ATOM      1  C   UNL     1      33.734 -22.123 -19.058  0.00  0.00    +0.122 C 
ATOM      2  C   UNL     1      35.207 -20.688 -20.360  0.00  0.00    +0.002 C 
ATOM      3  C   UNL     1      35.017 -21.687 -19.391  0.00  0.00    +0.020 C 
ATOM      4  C   UNL     1      34.078 -20.123 -21.001  0.00  0.00    +0.003 C 
ATOM      5  C   UNL     1      32.625 -21.567 -19.688  0.00  0.00    +0.020 C 
ATOM      6  C   UNL     1      32.794 -20.573 -20.653  0.00  0.00    +0.001 C 
ATOM      7  C   UNL     1      34.268 -19.124 -21.969  0.00  0.00    +0.037 C 
ATOM      8  C   UNL     1      36.491 -20.237 -20.707  0.00  0.00    +0.003 C 
ATOM      9  C   UNL     1      35.551 -18.689 -22.302  0.00  0.00    +0.139 C 
ATOM     10  C   UNL     1      36.660 -19.244 -21.672  0.00  0.00    +0.037 C 
ENDROOT
BRANCH   1  11
ATOM     11  S   UNL     1      33.518 -23.382 -17.836  0.00  0.00    +0.061 S 
ATOM     12  O   UNL     1      32.479 -22.944 -16.924  0.00  0.00    -0.153 OA
ATOM     13  O   UNL     1      33.386 -24.640 -18.544  0.00  0.00    -0.153 OA
BRANCH  11  14
ATOM     14  N   UNL     1      35.019 -23.354 -17.037  0.00  0.00    -0.170 NA
ATOM     15  H   UNL     1      35.469 -22.474 -17.287  0.00  0.00    +0.149 HD
BRANCH  14  16
ATOM     16  C   UNL     1      35.072 -23.459 -15.563  0.00  0.00    +0.174 C 
BRANCH  16  18
ATOM     17  O   UNL     1      35.376 -25.863 -15.783  0.00  0.00    -0.249 OA
ATOM     18  C   UNL     1      34.883 -24.911 -15.190  0.00  0.00    +0.330 C 
BRANCH  18  19
ATOM     19  O   UNL     1      34.105 -25.059 -14.088  0.00  0.00    -0.479 OA
ATOM     20  H   UNL     1      33.659 -25.868 -13.934  0.00  0.00    +0.295 HD
ENDBRANCH  18  19
ENDBRANCH  16  18
BRANCH  16  21
ATOM     21  C   UNL     1      36.362 -22.826 -15.027  0.00  0.00    +0.040 C 
BRANCH  21  22
ATOM     22  C   UNL     1      37.161 -23.656 -14.019  0.00  0.00    +0.111 C 
BRANCH  22  24
ATOM     23  O   UNL     1      37.886 -22.496 -12.028  0.00  0.00    -0.250 OA
ATOM     24  C   UNL     1      37.037 -23.172 -12.596  0.00  0.00    +0.314 C 
BRANCH  24  25
ATOM     25  O   UNL     1      35.888 -23.579 -12.000  0.00  0.00    -0.480 OA
ATOM     26  H   UNL     1      35.286 -24.123 -12.469  0.00  0.00    +0.295 HD
ENDBRANCH  24  25
ENDBRANCH  22  24
ENDBRANCH  21  22
ENDBRANCH  16  21
ENDBRANCH  14  16
ENDBRANCH  11  14
ENDBRANCH   1  11
BRANCH   9  27
ATOM     27  O   UNL     1      35.717 -17.721 -23.244  0.00  0.00    -0.471 OA
BRANCH  27  28
ATOM     28  C   UNL     1      34.611 -17.455 -24.105  0.00  0.00    +0.232 C 
BRANCH  28  29
ATOM     29  C   UNL     1      34.332 -15.981 -24.102  0.00  0.00    +0.021 C 
ATOM     30  C   UNL     1      34.604 -15.221 -22.965  0.00  0.00    -0.000 C 
ATOM     31  C   UNL     1      33.798 -15.370 -25.237  0.00  0.00    -0.000 C 
ATOM     32  C   UNL     1      34.344 -13.852 -22.962  0.00  0.00    +0.010 C 
ATOM     33  C   UNL     1      33.538 -14.000 -25.235  0.00  0.00    +0.010 C 
ATOM     34  C   UNL     1      33.811 -13.241 -24.097  0.00  0.00    +0.068 C 
BRANCH  34  36
ATOM     35  N   UNL     1      33.328 -10.696 -24.093  0.00  0.00    -0.191 NA
ATOM     36  C   UNL     1      33.545 -11.836 -24.094  0.00  0.00    +0.100 C 
ENDBRANCH  34  36
ENDBRANCH  28  29
ENDBRANCH  27  28
ENDBRANCH   9  27
TORSDOF 13
ENDMDL
MODEL 6
REMARK VINA RESULT:     -10.5      2.198      4.403
REMARK  Name = 24755471
REMARK  13 active torsions:
REMARK  status: ('A' for Active; 'I' for Inactive)
REMARK    1  A    between atoms: C_1  and  S_11
REMARK    2  A    between atoms: C_9  and  O_27
REMARK    3  A    between atoms: S_11  and  N_14
REMARK    4  A    between atoms: N_14  and  C_16
REMARK    5  A    between atoms: C_16  and  C_18
REMARK    6  A    between atoms: C_16  and  C_21
REMARK    7  A    between atoms: C_18  and  O_19
REMARK    8  A    between atoms: C_21  and  C_22
REMARK    9  A    between atoms: C_22  and  C_24
REMARK   10  A    between atoms: C_24  and  O_25
REMARK   11  A    between atoms: O_27  and  C_28
REMARK   12  A    between atoms: C_28  and  C_29
REMARK   13  A    between atoms: C_34  and  C_36
REMARK                            x       y       z     vdW  Elec       q    Type
REMARK                         _______ _______ _______ _____ _____    ______ ____
ROOT
ATOM      1  C   UNL     1      35.649 -22.715 -17.142  0.00  0.00    +0.122 C 
ATOM      2  C   UNL     1      34.277 -21.814 -18.939  0.00  0.00    +0.002 C 
ATOM      3  C   UNL     1      34.404 -22.554 -17.752  0.00  0.00    +0.020 C 
ATOM      4  C   UNL     1      35.429 -21.228 -19.516  0.00  0.00    +0.003 C 
ATOM      5  C   UNL     1      36.781 -22.139 -17.710  0.00  0.00    +0.020 C 
ATOM      6  C   UNL     1      36.674 -21.401 -18.889  0.00  0.00    +0.001 C 
ATOM      7  C   UNL     1      35.302 -20.489 -20.703  0.00  0.00    +0.037 C 
ATOM      8  C   UNL     1      33.031 -21.642 -19.566  0.00  0.00    +0.003 C 
ATOM      9  C   UNL     1      34.057 -20.328 -21.311  0.00  0.00    +0.139 C 
ATOM     10  C   UNL     1      32.924 -20.904 -20.745  0.00  0.00    +0.037 C 
ENDROOT
BRANCH   1  11
ATOM     11  S   UNL     1      35.786 -23.650 -15.648  0.00  0.00    +0.061 S 
ATOM     12  O   UNL     1      35.589 -25.048 -15.977  0.00  0.00    -0.153 OA
ATOM     13  O   UNL     1      37.005 -23.219 -14.991  0.00  0.00    -0.153 OA
BRANCH  11  14
ATOM     14  N   UNL     1      34.452 -23.086 -14.759  0.00  0.00    -0.170 NA
ATOM     15  H   UNL     1      34.206 -22.174 -15.144  0.00  0.00    +0.149 HD
BRANCH  14  16
ATOM     16  C   UNL     1      33.206 -23.882 -14.713  0.00  0.00    +0.174 C 
BRANCH  16  18
ATOM     17  O   UNL     1      34.078 -24.631 -12.569  0.00  0.00    -0.249 OA
ATOM     18  C   UNL     1      33.202 -24.670 -13.425  0.00  0.00    +0.330 C 
BRANCH  18  19
ATOM     19  O   UNL     1      32.087 -25.435 -13.296  0.00  0.00    -0.479 OA
ATOM     20  H   UNL     1      31.244 -25.069 -13.479  0.00  0.00    +0.295 HD
ENDBRANCH  18  19
ENDBRANCH  16  18
BRANCH  16  21
ATOM     21  C   UNL     1      31.985 -22.976 -14.911  0.00  0.00    +0.040 C 
BRANCH  21  22
ATOM     22  C   UNL     1      31.048 -23.339 -16.066  0.00  0.00    +0.111 C 
BRANCH  22  24
ATOM     23  O   UNL     1      29.019 -24.600 -16.426  0.00  0.00    -0.250 OA
ATOM     24  C   UNL     1      29.838 -24.134 -15.644  0.00  0.00    +0.314 C 
BRANCH  24  25
ATOM     25  O   UNL     1      29.740 -24.267 -14.297  0.00  0.00    -0.480 OA
ATOM     26  H   UNL     1      29.675 -25.120 -13.915  0.00  0.00    +0.295 HD
ENDBRANCH  24  25
ENDBRANCH  22  24
ENDBRANCH  21  22
ENDBRANCH  16  21
ENDBRANCH  14  16
ENDBRANCH  11  14
ENDBRANCH   1  11
BRANCH   9  27
ATOM     27  O   UNL     1      33.951 -19.607 -22.461  0.00  0.00    -0.471 OA
BRANCH  27  28
ATOM     28  C   UNL     1      35.139 -18.988 -22.951  0.00  0.00    +0.232 C 
BRANCH  28  29
ATOM     29  C   UNL     1      34.861 -17.538 -23.220  0.00  0.00    +0.021 C 
ATOM     30  C   UNL     1      34.592 -17.109 -24.520  0.00  0.00    -0.000 C 
ATOM     31  C   UNL     1      34.874 -16.619 -22.171  0.00  0.00    -0.000 C 
ATOM     32  C   UNL     1      34.335 -15.762 -24.770  0.00  0.00    +0.010 C 
ATOM     33  C   UNL     1      34.617 -15.272 -22.421  0.00  0.00    +0.010 C 
ATOM     34  C   UNL     1      34.348 -14.843 -23.721  0.00  0.00    +0.068 C 
BRANCH  34  36
ATOM     35  N   UNL     1      33.869 -12.340 -24.186  0.00  0.00    -0.191 NA
ATOM     36  C   UNL     1      34.083 -13.461 -23.977  0.00  0.00    +0.100 C 
ENDBRANCH  34  36
ENDBRANCH  28  29
ENDBRANCH  27  28
ENDBRANCH   9  27
TORSDOF 13
ENDMDL
MODEL 7
REMARK VINA RESULT:     -10.3      4.006     11.721
REMARK  Name = 24755471
REMARK  13 active torsions:
REMARK  status: ('A' for Active; 'I' for Inactive)
REMARK    1  A    between atoms: C_1  and  S_11
REMARK    2  A    between atoms: C_9  and  O_27
REMARK    3  A    between atoms: S_11  and  N_14
REMARK    4  A    between atoms: N_14  and  C_16
REMARK    5  A    between atoms: C_16  and  C_18
REMARK    6  A    between atoms: C_16  and  C_21
REMARK    7  A    between atoms: C_18  and  O_19
REMARK    8  A    between atoms: C_21  and  C_22
REMARK    9  A    between atoms: C_22  and  C_24
REMARK   10  A    between atoms: C_24  and  O_25
REMARK   11  A    between atoms: O_27  and  C_28
REMARK   12  A    between atoms: C_28  and  C_29
REMARK   13  A    between atoms: C_34  and  C_36
REMARK                            x       y       z     vdW  Elec       q    Type
REMARK                         _______ _______ _______ _____ _____    ______ ____
ROOT
ATOM      1  C   UNL     1      34.856 -19.068 -22.421  0.00  0.00    +0.122 C 
ATOM      2  C   UNL     1      34.094 -20.635 -20.723  0.00  0.00    +0.002 C 
ATOM      3  C   UNL     1      33.828 -19.792 -21.813  0.00  0.00    +0.020 C 
ATOM      4  C   UNL     1      35.420 -20.749 -20.242  0.00  0.00    +0.003 C 
ATOM      5  C   UNL     1      36.159 -19.179 -21.947  0.00  0.00    +0.020 C 
ATOM      6  C   UNL     1      36.442 -20.013 -20.865  0.00  0.00    +0.001 C 
ATOM      7  C   UNL     1      35.685 -21.592 -19.151  0.00  0.00    +0.037 C 
ATOM      8  C   UNL     1      33.072 -21.370 -20.099  0.00  0.00    +0.003 C 
ATOM      9  C   UNL     1      34.658 -22.315 -18.544  0.00  0.00    +0.139 C 
ATOM     10  C   UNL     1      33.354 -22.204 -19.016  0.00  0.00    +0.037 C 
ENDROOT
BRANCH   1  11
ATOM     11  S   UNL     1      34.500 -18.012 -23.793  0.00  0.00    +0.061 S 
ATOM     12  O   UNL     1      35.711 -17.878 -24.579  0.00  0.00    -0.153 OA
ATOM     13  O   UNL     1      33.283 -18.510 -24.405  0.00  0.00    -0.153 OA
BRANCH  11  14
ATOM     14  N   UNL     1      34.163 -16.536 -23.019  0.00  0.00    -0.170 NA
ATOM     15  H   UNL     1      34.672 -16.545 -22.136  0.00  0.00    +0.149 HD
BRANCH  14  16
ATOM     16  C   UNL     1      34.490 -15.259 -23.690  0.00  0.00    +0.174 C 
BRANCH  16  18
ATOM     17  O   UNL     1      33.643 -15.675 -25.932  0.00  0.00    -0.249 OA
ATOM     18  C   UNL     1      33.549 -15.091 -24.859  0.00  0.00    +0.330 C 
BRANCH  18  19
ATOM     19  O   UNL     1      32.546 -14.216 -24.588  0.00  0.00    -0.479 OA
ATOM     20  H   UNL     1      32.723 -13.439 -24.096  0.00  0.00    +0.295 HD
ENDBRANCH  18  19
ENDBRANCH  16  18
BRANCH  16  21
ATOM     21  C   UNL     1      34.468 -14.104 -22.682  0.00  0.00    +0.040 C 
BRANCH  21  22
ATOM     22  C   UNL     1      33.729 -14.362 -21.366  0.00  0.00    +0.111 C 
BRANCH  22  24
ATOM     23  O   UNL     1      32.028 -12.779 -22.026  0.00  0.00    -0.250 OA
ATOM     24  C   UNL     1      32.393 -13.671 -21.270  0.00  0.00    +0.314 C 
BRANCH  24  25
ATOM     25  O   UNL     1      31.636 -14.129 -20.241  0.00  0.00    -0.480 OA
ATOM     26  H   UNL     1      30.733 -14.335 -20.381  0.00  0.00    +0.295 HD
ENDBRANCH  24  25
ENDBRANCH  22  24
ENDBRANCH  21  22
ENDBRANCH  16  21
ENDBRANCH  14  16
ENDBRANCH  11  14
ENDBRANCH   1  11
BRANCH   9  27
ATOM     27  O   UNL     1      34.932 -23.130 -17.489  0.00  0.00    -0.471 OA
BRANCH  27  28
ATOM     28  C   UNL     1      33.832 -23.524 -16.670  0.00  0.00    +0.232 C 
BRANCH  28  29
ATOM     29  C   UNL     1      34.306 -23.683 -15.255  0.00  0.00    +0.021 C 
ATOM     30  C   UNL     1      35.547 -23.172 -14.875  0.00  0.00    -0.000 C 
ATOM     31  C   UNL     1      33.507 -24.343 -14.321  0.00  0.00    -0.000 C 
ATOM     32  C   UNL     1      35.988 -23.320 -13.560  0.00  0.00    +0.010 C 
ATOM     33  C   UNL     1      33.948 -24.491 -13.007  0.00  0.00    +0.010 C 
ATOM     34  C   UNL     1      35.189 -23.979 -12.626  0.00  0.00    +0.068 C 
BRANCH  34  36
ATOM     35  N   UNL     1      36.009 -24.253 -10.185  0.00  0.00    -0.191 NA
ATOM     36  C   UNL     1      35.642 -24.130 -11.279  0.00  0.00    +0.100 C 
ENDBRANCH  34  36
ENDBRANCH  28  29
ENDBRANCH  27  28
ENDBRANCH   9  27
TORSDOF 13
ENDMDL
MODEL 8
REMARK VINA RESULT:     -10.2      1.615      3.666
REMARK  Name = 24755471
REMARK  13 active torsions:
REMARK  status: ('A' for Active; 'I' for Inactive)
REMARK    1  A    between atoms: C_1  and  S_11
REMARK    2  A    between atoms: C_9  and  O_27
REMARK    3  A    between atoms: S_11  and  N_14
REMARK    4  A    between atoms: N_14  and  C_16
REMARK    5  A    between atoms: C_16  and  C_18
REMARK    6  A    between atoms: C_16  and  C_21
REMARK    7  A    between atoms: C_18  and  O_19
REMARK    8  A    between atoms: C_21  and  C_22
REMARK    9  A    between atoms: C_22  and  C_24
REMARK   10  A    between atoms: C_24  and  O_25
REMARK   11  A    between atoms: O_27  and  C_28
REMARK   12  A    between atoms: C_28  and  C_29
REMARK   13  A    between atoms: C_34  and  C_36
REMARK                            x       y       z     vdW  Elec       q    Type
REMARK                         _______ _______ _______ _____ _____    ______ ____
ROOT
ATOM      1  C   UNL     1      36.598 -23.495 -15.843  0.00  0.00    +0.122 C 
ATOM      2  C   UNL     1      35.079 -22.767 -17.599  0.00  0.00    +0.002 C 
ATOM      3  C   UNL     1      35.342 -23.533 -16.452  0.00  0.00    +0.020 C 
ATOM      4  C   UNL     1      36.102 -21.949 -18.136  0.00  0.00    +0.003 C 
ATOM      5  C   UNL     1      37.603 -22.692 -16.372  0.00  0.00    +0.020 C 
ATOM      6  C   UNL     1      37.359 -21.923 -17.511  0.00  0.00    +0.001 C 
ATOM      7  C   UNL     1      35.838 -21.183 -19.283  0.00  0.00    +0.037 C 
ATOM      8  C   UNL     1      33.821 -22.794 -18.225  0.00  0.00    +0.003 C 
ATOM      9  C   UNL     1      34.583 -21.222 -19.891  0.00  0.00    +0.139 C 
ATOM     10  C   UNL     1      33.577 -22.025 -19.364  0.00  0.00    +0.037 C 
ENDROOT
BRANCH   1  11
ATOM     11  S   UNL     1      36.909 -24.467 -14.400  0.00  0.00    +0.061 S 
ATOM     12  O   UNL     1      36.260 -25.752 -14.579  0.00  0.00    -0.153 OA
ATOM     13  O   UNL     1      38.334 -24.399 -14.144  0.00  0.00    -0.153 OA
BRANCH  11  14
ATOM     14  N   UNL     1      36.090 -23.583 -13.200  0.00  0.00    -0.170 NA
ATOM     15  H   UNL     1      35.560 -22.858 -13.681  0.00  0.00    +0.149 HD
BRANCH  14  16
ATOM     16  C   UNL     1      35.149 -24.272 -12.290  0.00  0.00    +0.174 C 
BRANCH  16  18
ATOM     17  O   UNL     1      35.215 -24.686  -9.894  0.00  0.00    -0.249 OA
ATOM     18  C   UNL     1      35.658 -24.106 -10.878  0.00  0.00    +0.330 C 
BRANCH  18  19
ATOM     19  O   UNL     1      36.701 -23.239 -10.808  0.00  0.00    -0.479 OA
ATOM     20  H   UNL     1      36.542 -22.322 -10.705  0.00  0.00    +0.295 HD
ENDBRANCH  18  19
ENDBRANCH  16  18
BRANCH  16  21
ATOM     21  C   UNL     1      33.719 -23.765 -12.517  0.00  0.00    +0.040 C 
BRANCH  21  22
ATOM     22  C   UNL     1      32.964 -24.369 -13.704  0.00  0.00    +0.111 C 
BRANCH  22  24
ATOM     23  O   UNL     1      30.607 -24.526 -13.197  0.00  0.00    -0.250 OA
ATOM     24  C   UNL     1      31.516 -23.952 -13.782  0.00  0.00    +0.314 C 
BRANCH  24  25
ATOM     25  O   UNL     1      31.322 -22.876 -14.586  0.00  0.00    -0.480 OA
ATOM     26  H   UNL     1      31.990 -22.616 -15.189  0.00  0.00    +0.295 HD
ENDBRANCH  24  25
ENDBRANCH  22  24
ENDBRANCH  21  22
ENDBRANCH  16  21
ENDBRANCH  14  16
ENDBRANCH  11  14
ENDBRANCH   1  11
BRANCH   9  27
ATOM     27  O   UNL     1      34.342 -20.472 -21.002  0.00  0.00    -0.471 OA
BRANCH  27  28
ATOM     28  C   UNL     1      35.477 -20.016 -21.736  0.00  0.00    +0.232 C 
BRANCH  28  29
ATOM     29  C   UNL     1      35.056 -18.901 -22.648  0.00  0.00    +0.021 C 
ATOM     30  C   UNL     1      34.438 -19.192 -23.864  0.00  0.00    -0.000 C 
ATOM     31  C   UNL     1      35.284 -17.575 -22.280  0.00  0.00    -0.000 C 
ATOM     32  C   UNL     1      34.047 -18.156 -24.712  0.00  0.00    +0.010 C 
ATOM     33  C   UNL     1      34.893 -16.540 -23.128  0.00  0.00    +0.010 C 
ATOM     34  C   UNL     1      34.275 -16.830 -24.344  0.00  0.00    +0.068 C 
BRANCH  34  36
ATOM     35  N   UNL     1      33.548 -14.907 -25.920  0.00  0.00    -0.191 NA
ATOM     36  C   UNL     1      33.873 -15.769 -25.214  0.00  0.00    +0.100 C 
ENDBRANCH  34  36
ENDBRANCH  28  29
ENDBRANCH  27  28
ENDBRANCH   9  27
TORSDOF 13
ENDMDL
MODEL 9
REMARK VINA RESULT:     -10.1      7.154     13.639
REMARK  Name = 24755471
REMARK  13 active torsions:
REMARK  status: ('A' for Active; 'I' for Inactive)
REMARK    1  A    between atoms: C_1  and  S_11
REMARK    2  A    between atoms: C_9  and  O_27
REMARK    3  A    between atoms: S_11  and  N_14
REMARK    4  A    between atoms: N_14  and  C_16
REMARK    5  A    between atoms: C_16  and  C_18
REMARK    6  A    between atoms: C_16  and  C_21
REMARK    7  A    between atoms: C_18  and  O_19
REMARK    8  A    between atoms: C_21  and  C_22
REMARK    9  A    between atoms: C_22  and  C_24
REMARK   10  A    between atoms: C_24  and  O_25
REMARK   11  A    between atoms: O_27  and  C_28
REMARK   12  A    between atoms: C_28  and  C_29
REMARK   13  A    between atoms: C_34  and  C_36
REMARK                            x       y       z     vdW  Elec       q    Type
REMARK                         _______ _______ _______ _____ _____    ______ ____
ROOT
ATOM      1  C   UNL     1      33.726 -11.811 -24.466  0.00  0.00    +0.122 C 
ATOM      2  C   UNL     1      34.180 -13.834 -23.193  0.00  0.00    +0.002 C 
ATOM      3  C   UNL     1      33.998 -12.443 -23.252  0.00  0.00    +0.020 C 
ATOM      4  C   UNL     1      34.082 -14.596 -24.382  0.00  0.00    +0.003 C 
ATOM      5  C   UNL     1      33.631 -12.559 -25.634  0.00  0.00    +0.020 C 
ATOM      6  C   UNL     1      33.808 -13.943 -25.595  0.00  0.00    +0.001 C 
ATOM      7  C   UNL     1      34.263 -15.987 -24.324  0.00  0.00    +0.037 C 
ATOM      8  C   UNL     1      34.455 -14.487 -21.980  0.00  0.00    +0.003 C 
ATOM      9  C   UNL     1      34.536 -16.619 -23.110  0.00  0.00    +0.139 C 
ATOM     10  C   UNL     1      34.632 -15.871 -21.940  0.00  0.00    +0.037 C 
ENDROOT
BRANCH   1  11
ATOM     11  S   UNL     1      33.501 -10.058 -24.517  0.00  0.00    +0.061 S 
ATOM     12  O   UNL     1      34.702  -9.439 -23.991  0.00  0.00    -0.153 OA
ATOM     13  O   UNL     1      33.035  -9.731 -25.851  0.00  0.00    -0.153 OA
BRANCH  11  14
ATOM     14  N   UNL     1      32.223  -9.837 -23.418  0.00  0.00    -0.170 NA
ATOM     15  H   UNL     1      32.021 -10.752 -23.015  0.00  0.00    +0.149 HD
BRANCH  14  16
ATOM     16  C   UNL     1      32.377  -8.895 -22.287  0.00  0.00    +0.174 C 
BRANCH  16  18
ATOM     17  O   UNL     1      31.092  -7.001 -23.111  0.00  0.00    -0.249 OA
ATOM     18  C   UNL     1      32.173  -7.495 -22.814  0.00  0.00    +0.330 C 
BRANCH  18  19
ATOM     19  O   UNL     1      33.342  -6.810 -22.910  0.00  0.00    -0.479 OA
ATOM     20  H   UNL     1      33.356  -5.885 -22.764  0.00  0.00    +0.295 HD
ENDBRANCH  18  19
ENDBRANCH  16  18
BRANCH  16  21
ATOM     21  C   UNL     1      31.443  -9.286 -21.135  0.00  0.00    +0.040 C 
BRANCH  21  22
ATOM     22  C   UNL     1      31.825 -10.541 -20.345  0.00  0.00    +0.111 C 
BRANCH  22  24
ATOM     23  O   UNL     1      31.634 -12.935 -20.611  0.00  0.00    -0.250 OA
ATOM     24  C   UNL     1      31.236 -11.814 -20.900  0.00  0.00    +0.314 C 
BRANCH  24  25
ATOM     25  O   UNL     1      30.222 -11.586 -21.774  0.00  0.00    -0.480 OA
ATOM     26  H   UNL     1      29.475 -11.090 -21.504  0.00  0.00    +0.295 HD
ENDBRANCH  24  25
ENDBRANCH  22  24
ENDBRANCH  21  22
ENDBRANCH  16  21
ENDBRANCH  14  16
ENDBRANCH  11  14
ENDBRANCH   1  11
BRANCH   9  27
ATOM     27  O   UNL     1      34.707 -17.969 -23.070  0.00  0.00    -0.471 OA
BRANCH  27  28
ATOM     28  C   UNL     1      35.757 -18.466 -22.242  0.00  0.00    +0.232 C 
BRANCH  28  29
ATOM     29  C   UNL     1      35.221 -19.572 -21.381  0.00  0.00    +0.021 C 
ATOM     30  C   UNL     1      36.099 -20.377 -20.655  0.00  0.00    -0.000 C 
ATOM     31  C   UNL     1      33.846 -19.795 -21.309  0.00  0.00    -0.000 C 
ATOM     32  C   UNL     1      35.601 -21.406 -19.856  0.00  0.00    +0.010 C 
ATOM     33  C   UNL     1      33.349 -20.824 -20.509  0.00  0.00    +0.010 C 
ATOM     34  C   UNL     1      34.226 -21.629 -19.783  0.00  0.00    +0.068 C 
BRANCH  34  36
ATOM     35  N   UNL     1      33.302 -23.539 -18.298  0.00  0.00    -0.191 NA
ATOM     36  C   UNL     1      33.716 -22.683 -18.963  0.00  0.00    +0.100 C 
ENDBRANCH  34  36
ENDBRANCH  28  29
ENDBRANCH  27  28
ENDBRANCH   9  27
TORSDOF 13
ENDMDL
