MODEL 1
REMARK VINA RESULT:     -11.8      0.000      0.000
REMARK  Name = 24871491
REMARK  6 active torsions:
REMARK  status: ('A' for Active; 'I' for Inactive)
REMARK    1  A    between atoms: N_1  and  C_11
REMARK    2  A    between atoms: N_2  and  C_18
REMARK    3  A    between atoms: C_6  and  C_31
REMARK    4  A    between atoms: C_19  and  C_24
REMARK    5  A    between atoms: C_24  and  C_26
REMARK    6  A    between atoms: C_26  and  O_27
REMARK                            x       y       z     vdW  Elec       q    Type
REMARK                         _______ _______ _______ _____ _____    ______ ____
ROOT
ATOM      1  N   UNL     1      32.685 -23.446 -17.339  0.00  0.00    -0.287 N 
ATOM      2  N   UNL     1      34.267 -24.783 -13.104  0.00  0.00    -0.247 N 
ATOM      3  N   UNL     1      33.493 -24.119 -15.214  0.00  0.00    -0.322 NA
ATOM      4  N   UNL     1      31.959 -24.497 -13.395  0.00  0.00    -0.169 NA
ATOM      5  C   UNL     1      32.435 -23.805 -15.992  0.00  0.00    +0.202 C 
ATOM      6  C   UNL     1      31.129 -23.815 -15.548  0.00  0.00    +0.118 C 
ATOM      7  C   UNL     1      33.187 -24.451 -13.945  0.00  0.00    +0.150 C 
ATOM      8  C   UNL     1      30.948 -24.173 -14.228  0.00  0.00    +0.120 C 
ATOM      9  H   UNL     1      31.952 -23.677 -17.954  0.00  0.00    +0.155 HD
ATOM     10  H   UNL     1      33.996 -25.017 -12.187  0.00  0.00    +0.165 HD
ENDROOT
BRANCH   1  11
ATOM     11  C   UNL     1      33.777 -22.826 -17.967  0.00  0.00    +0.050 C 
ATOM     12  C   UNL     1      34.974 -22.648 -17.272  0.00  0.00    +0.010 C 
ATOM     13  C   UNL     1      36.057 -22.032 -17.898  0.00  0.00    -0.021 C 
ATOM     14  C   UNL     1      33.665 -22.388 -19.287  0.00  0.00    +0.015 C 
ATOM     15  C   UNL     1      35.946 -21.594 -19.217  0.00  0.00    -0.004 C 
ATOM     16  C   UNL     1      34.749 -21.771 -19.911  0.00  0.00    +0.001 C 
ATOM     17  C   UNL     1      37.337 -21.841 -17.155  0.00  0.00    +0.031 C 
ENDBRANCH   1  11
BRANCH   2  18
ATOM     18  C   UNL     1      35.659 -24.846 -13.317  0.00  0.00    +0.058 C 
ATOM     19  C   UNL     1      38.414 -24.971 -13.739  0.00  0.00    -0.011 C 
ATOM     20  C   UNL     1      36.280 -23.914 -14.147  0.00  0.00    +0.015 C 
ATOM     21  C   UNL     1      36.415 -25.842 -12.697  0.00  0.00    +0.015 C 
ATOM     22  C   UNL     1      37.658 -23.976 -14.358  0.00  0.00    -0.002 C 
ATOM     23  C   UNL     1      37.792 -25.904 -12.908  0.00  0.00    -0.002 C 
BRANCH  19  24
ATOM     24  C   UNL     1      39.887 -25.038 -13.964  0.00  0.00    +0.136 C 
BRANCH  24  26
ATOM     25  O   UNL     1      40.908 -27.175 -14.530  0.00  0.00    -0.250 OA
ATOM     26  C   UNL     1      40.307 -26.169 -14.882  0.00  0.00    +0.318 C 
BRANCH  26  27
ATOM     27  O   UNL     1      39.938 -25.940 -16.170  0.00  0.00    -0.480 OA
ATOM     28  H   UNL     1      39.156 -26.329 -16.509  0.00  0.00    +0.295 HD
ENDBRANCH  26  27
ENDBRANCH  24  26
ENDBRANCH  19  24
ENDBRANCH   2  18
BRANCH   6  31
ATOM     29  O   UNL     1      30.018 -22.510 -17.165  0.00  0.00    -0.270 OA
ATOM     30  N   UNL     1      28.860 -24.289 -16.298  0.00  0.00    -0.325 N 
ATOM     31  C   UNL     1      29.987 -23.479 -16.384  0.00  0.00    +0.248 C 
ATOM     32  H   UNL     1      28.068 -24.092 -16.849  0.00  0.00    +0.145 HD
ATOM     33  H   UNL     1      28.854 -25.060 -15.686  0.00  0.00    +0.145 HD
ENDBRANCH   6  31
TORSDOF 6
ENDMDL
MODEL 2
REMARK VINA RESULT:     -11.7      0.448      1.637
REMARK  Name = 24871491
REMARK  6 active torsions:
REMARK  status: ('A' for Active; 'I' for Inactive)
REMARK    1  A    between atoms: N_1  and  C_11
REMARK    2  A    between atoms: N_2  and  C_18
REMARK    3  A    between atoms: C_6  and  C_31
REMARK    4  A    between atoms: C_19  and  C_24
REMARK    5  A    between atoms: C_24  and  C_26
REMARK    6  A    between atoms: C_26  and  O_27
REMARK                            x       y       z     vdW  Elec       q    Type
REMARK                         _______ _______ _______ _____ _____    ______ ____
ROOT
ATOM      1  N   UNL     1      32.526 -23.371 -17.467  0.00  0.00    -0.287 N 
ATOM      2  N   UNL     1      34.199 -24.697 -13.263  0.00  0.00    -0.247 N 
ATOM      3  N   UNL     1      33.380 -24.038 -15.358  0.00  0.00    -0.322 NA
ATOM      4  N   UNL     1      31.880 -24.473 -13.523  0.00  0.00    -0.169 NA
ATOM      5  C   UNL     1      32.303 -23.748 -16.120  0.00  0.00    +0.202 C 
ATOM      6  C   UNL     1      31.003 -23.797 -15.659  0.00  0.00    +0.118 C 
ATOM      7  C   UNL     1      33.099 -24.388 -14.088  0.00  0.00    +0.150 C 
ATOM      8  C   UNL     1      30.850 -24.171 -14.340  0.00  0.00    +0.120 C 
ATOM      9  H   UNL     1      31.792 -23.617 -18.074  0.00  0.00    +0.155 HD
ATOM     10  H   UNL     1      33.946 -24.946 -12.345  0.00  0.00    +0.165 HD
ENDROOT
BRANCH   1  11
ATOM     11  C   UNL     1      33.592 -22.716 -18.104  0.00  0.00    +0.050 C 
ATOM     12  C   UNL     1      33.357 -21.948 -19.245  0.00  0.00    +0.010 C 
ATOM     13  C   UNL     1      34.416 -21.297 -19.877  0.00  0.00    -0.021 C 
ATOM     14  C   UNL     1      34.886 -22.830 -17.595  0.00  0.00    +0.015 C 
ATOM     15  C   UNL     1      35.709 -21.411 -19.369  0.00  0.00    -0.004 C 
ATOM     16  C   UNL     1      35.945 -22.179 -18.228  0.00  0.00    +0.001 C 
ATOM     17  C   UNL     1      34.165 -20.478 -21.098  0.00  0.00    +0.031 C 
ENDBRANCH   1  11
BRANCH   2  18
ATOM     18  C   UNL     1      35.589 -24.720 -13.494  0.00  0.00    +0.058 C 
ATOM     19  C   UNL     1      38.341 -24.765 -13.950  0.00  0.00    -0.011 C 
ATOM     20  C   UNL     1      36.360 -25.773 -13.004  0.00  0.00    +0.015 C 
ATOM     21  C   UNL     1      36.194 -23.687 -14.211  0.00  0.00    +0.015 C 
ATOM     22  C   UNL     1      37.736 -25.796 -13.232  0.00  0.00    -0.002 C 
ATOM     23  C   UNL     1      37.570 -23.710 -14.439  0.00  0.00    -0.002 C 
BRANCH  19  24
ATOM     24  C   UNL     1      39.812 -24.789 -14.194  0.00  0.00    +0.136 C 
BRANCH  24  26
ATOM     25  O   UNL     1      40.862 -26.981 -14.336  0.00  0.00    -0.250 OA
ATOM     26  C   UNL     1      40.290 -26.050 -14.886  0.00  0.00    +0.318 C 
BRANCH  26  27
ATOM     27  O   UNL     1      40.009 -26.035 -16.216  0.00  0.00    -0.480 OA
ATOM     28  H   UNL     1      39.510 -26.729 -16.597  0.00  0.00    +0.295 HD
ENDBRANCH  26  27
ENDBRANCH  24  26
ENDBRANCH  19  24
ENDBRANCH   2  18
BRANCH   6  31
ATOM     29  O   UNL     1      29.843 -22.522 -17.264  0.00  0.00    -0.270 OA
ATOM     30  N   UNL     1      28.732 -24.317 -16.370  0.00  0.00    -0.325 N 
ATOM     31  C   UNL     1      29.843 -23.486 -16.479  0.00  0.00    +0.248 C 
ATOM     32  H   UNL     1      27.928 -24.137 -16.908  0.00  0.00    +0.145 HD
ATOM     33  H   UNL     1      28.750 -25.084 -15.753  0.00  0.00    +0.145 HD
ENDBRANCH   6  31
TORSDOF 6
ENDMDL
MODEL 3
REMARK VINA RESULT:     -11.3      2.114      7.422
REMARK  Name = 24871491
REMARK  6 active torsions:
REMARK  status: ('A' for Active; 'I' for Inactive)
REMARK    1  A    between atoms: N_1  and  C_11
REMARK    2  A    between atoms: N_2  and  C_18
REMARK    3  A    between atoms: C_6  and  C_31
REMARK    4  A    between atoms: C_19  and  C_24
REMARK    5  A    between atoms: C_24  and  C_26
REMARK    6  A    between atoms: C_26  and  O_27
REMARK                            x       y       z     vdW  Elec       q    Type
REMARK                         _______ _______ _______ _____ _____    ______ ____
ROOT
ATOM      1  N   UNL     1      35.518 -22.690 -15.669  0.00  0.00    -0.287 N 
ATOM      2  N   UNL     1      31.732 -24.681 -13.688  0.00  0.00    -0.247 N 
ATOM      3  N   UNL     1      33.607 -23.686 -14.682  0.00  0.00    -0.322 NA
ATOM      4  N   UNL     1      33.803 -24.905 -12.614  0.00  0.00    -0.169 NA
ATOM      5  C   UNL     1      34.934 -23.446 -14.624  0.00  0.00    +0.202 C 
ATOM      6  C   UNL     1      35.750 -23.898 -13.607  0.00  0.00    +0.118 C 
ATOM      7  C   UNL     1      33.115 -24.411 -13.659  0.00  0.00    +0.150 C 
ATOM      8  C   UNL     1      35.124 -24.629 -12.618  0.00  0.00    +0.120 C 
ATOM      9  H   UNL     1      36.301 -22.164 -15.389  0.00  0.00    +0.155 HD
ATOM     10  H   UNL     1      31.418 -25.213 -12.922  0.00  0.00    +0.165 HD
ENDROOT
BRANCH   1  11
ATOM     11  C   UNL     1      35.196 -22.544 -17.028  0.00  0.00    +0.050 C 
ATOM     12  C   UNL     1      36.081 -21.891 -17.888  0.00  0.00    +0.010 C 
ATOM     13  C   UNL     1      35.760 -21.747 -19.238  0.00  0.00    -0.021 C 
ATOM     14  C   UNL     1      33.994 -23.052 -17.519  0.00  0.00    +0.015 C 
ATOM     15  C   UNL     1      34.558 -22.255 -19.729  0.00  0.00    -0.004 C 
ATOM     16  C   UNL     1      33.674 -22.906 -18.869  0.00  0.00    +0.001 C 
ATOM     17  C   UNL     1      36.705 -21.049 -20.158  0.00  0.00    +0.031 C 
ENDBRANCH   1  11
BRANCH   2  18
ATOM     18  C   UNL     1      30.710 -24.338 -14.597  0.00  0.00    +0.058 C 
ATOM     19  C   UNL     1      28.690 -23.662 -16.396  0.00  0.00    -0.011 C 
ATOM     20  C   UNL     1      29.916 -25.336 -15.161  0.00  0.00    +0.015 C 
ATOM     21  C   UNL     1      30.495 -23.002 -14.933  0.00  0.00    +0.015 C 
ATOM     22  C   UNL     1      28.905 -24.998 -16.061  0.00  0.00    -0.002 C 
ATOM     23  C   UNL     1      29.485 -22.664 -15.833  0.00  0.00    -0.002 C 
BRANCH  19  24
ATOM     24  C   UNL     1      27.609 -23.300 -17.359  0.00  0.00    +0.136 C 
BRANCH  24  26
ATOM     25  O   UNL     1      25.957 -22.462 -15.778  0.00  0.00    -0.250 OA
ATOM     26  C   UNL     1      26.610 -22.305 -16.800  0.00  0.00    +0.318 C 
BRANCH  26  27
ATOM     27  O   UNL     1      26.514 -21.194 -17.578  0.00  0.00    -0.480 OA
ATOM     28  H   UNL     1      26.762 -20.359 -17.233  0.00  0.00    +0.295 HD
ENDBRANCH  26  27
ENDBRANCH  24  26
ENDBRANCH  19  24
ENDBRANCH   2  18
BRANCH   6  31
ATOM     29  O   UNL     1      37.895 -23.693 -14.558  0.00  0.00    -0.270 OA
ATOM     30  N   UNL     1      37.722 -23.312 -12.303  0.00  0.00    -0.325 N 
ATOM     31  C   UNL     1      37.180 -23.640 -13.541  0.00  0.00    +0.248 C 
ATOM     32  H   UNL     1      38.687 -23.131 -12.221  0.00  0.00    +0.145 HD
ATOM     33  H   UNL     1      37.143 -23.261 -11.509  0.00  0.00    +0.145 HD
ENDBRANCH   6  31
TORSDOF 6
ENDMDL
MODEL 4
REMARK VINA RESULT:     -11.2      3.060      6.562
REMARK  Name = 24871491
REMARK  6 active torsions:
REMARK  status: ('A' for Active; 'I' for Inactive)
REMARK    1  A    between atoms: N_1  and  C_11
REMARK    2  A    between atoms: N_2  and  C_18
REMARK    3  A    between atoms: C_6  and  C_31
REMARK    4  A    between atoms: C_19  and  C_24
REMARK    5  A    between atoms: C_24  and  C_26
REMARK    6  A    between atoms: C_26  and  O_27
REMARK                            x       y       z     vdW  Elec       q    Type
REMARK                         _______ _______ _______ _____ _____    ______ ____
ROOT
ATOM      1  N   UNL     1      33.912 -23.695 -14.622  0.00  0.00    -0.287 N 
ATOM      2  N   UNL     1      31.925 -22.342 -18.677  0.00  0.00    -0.247 N 
ATOM      3  N   UNL     1      32.925 -23.009 -16.664  0.00  0.00    -0.322 NA
ATOM      4  N   UNL     1      30.598 -23.457 -17.100  0.00  0.00    -0.169 NA
ATOM      5  C   UNL     1      32.779 -23.614 -15.467  0.00  0.00    +0.202 C 
ATOM      6  C   UNL     1      31.591 -24.158 -15.023  0.00  0.00    +0.118 C 
ATOM      7  C   UNL     1      31.810 -22.966 -17.419  0.00  0.00    +0.150 C 
ATOM      8  C   UNL     1      30.522 -24.048 -15.889  0.00  0.00    +0.120 C 
ATOM      9  H   UNL     1      33.693 -23.696 -13.663  0.00  0.00    +0.155 HD
ATOM     10  H   UNL     1      31.087 -22.335 -19.193  0.00  0.00    +0.165 HD
ENDROOT
BRANCH   1  11
ATOM     11  C   UNL     1      35.289 -23.774 -14.888  0.00  0.00    +0.050 C 
ATOM     12  C   UNL     1      36.020 -24.883 -14.460  0.00  0.00    +0.010 C 
ATOM     13  C   UNL     1      37.387 -24.961 -14.724  0.00  0.00    -0.021 C 
ATOM     14  C   UNL     1      35.926 -22.744 -15.580  0.00  0.00    +0.015 C 
ATOM     15  C   UNL     1      38.024 -23.931 -15.417  0.00  0.00    -0.004 C 
ATOM     16  C   UNL     1      37.294 -22.822 -15.843  0.00  0.00    +0.001 C 
ATOM     17  C   UNL     1      38.169 -26.145 -14.266  0.00  0.00    +0.031 C 
ENDBRANCH   1  11
BRANCH   2  18
ATOM     18  C   UNL     1      33.005 -21.725 -19.342  0.00  0.00    +0.058 C 
ATOM     19  C   UNL     1      35.141 -20.506 -20.656  0.00  0.00    -0.011 C 
ATOM     20  C   UNL     1      34.314 -22.102 -19.043  0.00  0.00    +0.015 C 
ATOM     21  C   UNL     1      32.764 -20.738 -20.298  0.00  0.00    +0.015 C 
ATOM     22  C   UNL     1      35.383 -21.492 -19.701  0.00  0.00    -0.002 C 
ATOM     23  C   UNL     1      33.832 -20.128 -20.955  0.00  0.00    -0.002 C 
BRANCH  19  24
ATOM     24  C   UNL     1      36.284 -19.853 -21.360  0.00  0.00    +0.136 C 
BRANCH  24  26
ATOM     25  O   UNL     1      35.476 -17.570 -21.109  0.00  0.00    -0.250 OA
ATOM     26  C   UNL     1      35.989 -18.435 -21.806  0.00  0.00    +0.318 C 
BRANCH  26  27
ATOM     27  O   UNL     1      36.363 -18.222 -23.096  0.00  0.00    -0.480 OA
ATOM     28  H   UNL     1      37.259 -18.044 -23.300  0.00  0.00    +0.295 HD
ENDBRANCH  26  27
ENDBRANCH  24  26
ENDBRANCH  19  24
ENDBRANCH   2  18
BRANCH   6  31
ATOM     29  O   UNL     1      32.414 -25.180 -13.067  0.00  0.00    -0.270 OA
ATOM     30  N   UNL     1      30.137 -24.990 -13.254  0.00  0.00    -0.325 N 
ATOM     31  C   UNL     1      31.431 -24.809 -13.733  0.00  0.00    +0.248 C 
ATOM     32  H   UNL     1      29.990 -25.428 -12.385  0.00  0.00    +0.145 HD
ATOM     33  H   UNL     1      29.368 -24.680 -13.785  0.00  0.00    +0.145 HD
ENDBRANCH   6  31
TORSDOF 6
ENDMDL
MODEL 5
REMARK VINA RESULT:     -10.2      3.056      7.273
REMARK  Name = 24871491
REMARK  6 active torsions:
REMARK  status: ('A' for Active; 'I' for Inactive)
REMARK    1  A    between atoms: N_1  and  C_11
REMARK    2  A    between atoms: N_2  and  C_18
REMARK    3  A    between atoms: C_6  and  C_31
REMARK    4  A    between atoms: C_19  and  C_24
REMARK    5  A    between atoms: C_24  and  C_26
REMARK    6  A    between atoms: C_26  and  O_27
REMARK                            x       y       z     vdW  Elec       q    Type
REMARK                         _______ _______ _______ _____ _____    ______ ____
ROOT
ATOM      1  N   UNL     1      34.189 -24.907 -14.548  0.00  0.00    -0.287 N 
ATOM      2  N   UNL     1      37.179 -22.485 -17.271  0.00  0.00    -0.247 N 
ATOM      3  N   UNL     1      35.682 -23.687 -15.926  0.00  0.00    -0.322 NA
ATOM      4  N   UNL     1      38.034 -23.620 -15.408  0.00  0.00    -0.169 NA
ATOM      5  C   UNL     1      35.504 -24.469 -14.840  0.00  0.00    +0.202 C 
ATOM      6  C   UNL     1      36.527 -24.863 -14.003  0.00  0.00    +0.118 C 
ATOM      7  C   UNL     1      36.955 -23.304 -16.147  0.00  0.00    +0.150 C 
ATOM      8  C   UNL     1      37.784 -24.405 -14.339  0.00  0.00    +0.120 C 
ATOM      9  H   UNL     1      34.153 -25.780 -14.095  0.00  0.00    +0.155 HD
ATOM     10  H   UNL     1      38.122 -22.230 -17.392  0.00  0.00    +0.165 HD
ENDROOT
BRANCH   1  11
ATOM     11  C   UNL     1      32.926 -24.339 -14.781  0.00  0.00    +0.050 C 
ATOM     12  C   UNL     1      32.636 -23.768 -16.020  0.00  0.00    +0.010 C 
ATOM     13  C   UNL     1      31.381 -23.203 -16.250  0.00  0.00    -0.021 C 
ATOM     14  C   UNL     1      31.962 -24.346 -13.773  0.00  0.00    +0.015 C 
ATOM     15  C   UNL     1      30.417 -23.210 -15.243  0.00  0.00    -0.004 C 
ATOM     16  C   UNL     1      30.708 -23.780 -14.003  0.00  0.00    +0.001 C 
ATOM     17  C   UNL     1      31.071 -22.591 -17.575  0.00  0.00    +0.031 C 
ENDBRANCH   1  11
BRANCH   2  18
ATOM     18  C   UNL     1      36.319 -21.959 -18.257  0.00  0.00    +0.058 C 
ATOM     19  C   UNL     1      34.617 -20.918 -20.206  0.00  0.00    -0.011 C 
ATOM     20  C   UNL     1      36.820 -21.096 -19.230  0.00  0.00    +0.015 C 
ATOM     21  C   UNL     1      34.966 -22.302 -18.257  0.00  0.00    +0.015 C 
ATOM     22  C   UNL     1      35.969 -20.575 -20.206  0.00  0.00    -0.002 C 
ATOM     23  C   UNL     1      34.116 -21.781 -19.231  0.00  0.00    -0.002 C 
BRANCH  19  24
ATOM     24  C   UNL     1      33.707 -20.361 -21.249  0.00  0.00    +0.136 C 
BRANCH  24  26
ATOM     25  O   UNL     1      34.690 -19.770 -23.397  0.00  0.00    -0.250 OA
ATOM     26  C   UNL     1      34.410 -19.461 -22.246  0.00  0.00    +0.318 C 
BRANCH  26  27
ATOM     27  O   UNL     1      34.704 -18.246 -21.713  0.00  0.00    -0.480 OA
ATOM     28  H   UNL     1      34.042 -17.586 -21.659  0.00  0.00    +0.295 HD
ENDBRANCH  26  27
ENDBRANCH  24  26
ENDBRANCH  19  24
ENDBRANCH   2  18
BRANCH   6  31
ATOM     29  O   UNL     1      35.668 -25.322 -11.858  0.00  0.00    -0.270 OA
ATOM     30  N   UNL     1      36.913 -26.973 -12.848  0.00  0.00    -0.325 N 
ATOM     31  C   UNL     1      36.336 -25.707 -12.834  0.00  0.00    +0.248 C 
ATOM     32  H   UNL     1      36.806 -27.572 -12.074  0.00  0.00    +0.145 HD
ATOM     33  H   UNL     1      37.429 -27.270 -13.632  0.00  0.00    +0.145 HD
ENDBRANCH   6  31
TORSDOF 6
ENDMDL
MODEL 6
REMARK VINA RESULT:     -10.0      1.926      7.163
REMARK  Name = 24871491
REMARK  6 active torsions:
REMARK  status: ('A' for Active; 'I' for Inactive)
REMARK    1  A    between atoms: N_1  and  C_11
REMARK    2  A    between atoms: N_2  and  C_18
REMARK    3  A    between atoms: C_6  and  C_31
REMARK    4  A    between atoms: C_19  and  C_24
REMARK    5  A    between atoms: C_24  and  C_26
REMARK    6  A    between atoms: C_26  and  O_27
REMARK                            x       y       z     vdW  Elec       q    Type
REMARK                         _______ _______ _______ _____ _____    ______ ____
ROOT
ATOM      1  N   UNL     1      36.617 -22.827 -16.551  0.00  0.00    -0.287 N 
ATOM      2  N   UNL     1      33.132 -25.024 -14.260  0.00  0.00    -0.247 N 
ATOM      3  N   UNL     1      34.855 -23.924 -15.405  0.00  0.00    -0.322 NA
ATOM      4  N   UNL     1      35.342 -25.653 -13.800  0.00  0.00    -0.169 NA
ATOM      5  C   UNL     1      36.183 -23.792 -15.611  0.00  0.00    +0.202 C 
ATOM      6  C   UNL     1      37.137 -24.545 -14.957  0.00  0.00    +0.118 C 
ATOM      7  C   UNL     1      34.510 -24.859 -14.499  0.00  0.00    +0.150 C 
ATOM      8  C   UNL     1      36.654 -25.469 -14.053  0.00  0.00    +0.120 C 
ATOM      9  H   UNL     1      37.500 -22.443 -16.349  0.00  0.00    +0.155 HD
ATOM     10  H   UNL     1      32.927 -25.718 -13.593  0.00  0.00    +0.165 HD
ENDROOT
BRANCH   1  11
ATOM     11  C   UNL     1      36.030 -22.310 -17.718  0.00  0.00    +0.050 C 
ATOM     12  C   UNL     1      34.673 -22.516 -17.967  0.00  0.00    +0.010 C 
ATOM     13  C   UNL     1      34.091 -22.002 -19.126  0.00  0.00    -0.021 C 
ATOM     14  C   UNL     1      36.804 -21.588 -18.627  0.00  0.00    +0.015 C 
ATOM     15  C   UNL     1      34.865 -21.281 -20.035  0.00  0.00    -0.004 C 
ATOM     16  C   UNL     1      36.222 -21.075 -19.786  0.00  0.00    +0.001 C 
ATOM     17  C   UNL     1      32.641 -22.224 -19.393  0.00  0.00    +0.031 C 
ENDBRANCH   1  11
BRANCH   2  18
ATOM     18  C   UNL     1      31.988 -24.392 -14.789  0.00  0.00    +0.058 C 
ATOM     19  C   UNL     1      29.724 -23.141 -15.835  0.00  0.00    -0.011 C 
ATOM     20  C   UNL     1      30.802 -24.371 -14.057  0.00  0.00    +0.015 C 
ATOM     21  C   UNL     1      32.043 -23.787 -16.045  0.00  0.00    +0.015 C 
ATOM     22  C   UNL     1      29.669 -23.746 -14.579  0.00  0.00    -0.002 C 
ATOM     23  C   UNL     1      30.911 -23.162 -16.568  0.00  0.00    -0.002 C 
BRANCH  19  24
ATOM     24  C   UNL     1      28.514 -22.472 -16.394  0.00  0.00    +0.136 C 
BRANCH  24  26
ATOM     25  O   UNL     1      27.819 -24.588 -17.378  0.00  0.00    -0.250 OA
ATOM     26  C   UNL     1      27.674 -23.378 -17.273  0.00  0.00    +0.318 C 
BRANCH  26  27
ATOM     27  O   UNL     1      26.721 -22.685 -17.950  0.00  0.00    -0.480 OA
ATOM     28  H   UNL     1      26.902 -22.357 -18.809  0.00  0.00    +0.295 HD
ENDBRANCH  26  27
ENDBRANCH  24  26
ENDBRANCH  19  24
ENDBRANCH   2  18
BRANCH   6  31
ATOM     29  O   UNL     1      39.027 -23.521 -15.923  0.00  0.00    -0.270 OA
ATOM     30  N   UNL     1      39.415 -25.281 -14.506  0.00  0.00    -0.325 N 
ATOM     31  C   UNL     1      38.568 -24.405 -15.176  0.00  0.00    +0.248 C 
ATOM     32  H   UNL     1      40.390 -25.216 -14.630  0.00  0.00    +0.145 HD
ATOM     33  H   UNL     1      39.040 -25.967 -13.908  0.00  0.00    +0.145 HD
ENDBRANCH   6  31
TORSDOF 6
ENDMDL
MODEL 7
REMARK VINA RESULT:      -9.7     12.093     15.212
REMARK  Name = 24871491
REMARK  6 active torsions:
REMARK  status: ('A' for Active; 'I' for Inactive)
REMARK    1  A    between atoms: N_1  and  C_11
REMARK    2  A    between atoms: N_2  and  C_18
REMARK    3  A    between atoms: C_6  and  C_31
REMARK    4  A    between atoms: C_19  and  C_24
REMARK    5  A    between atoms: C_24  and  C_26
REMARK    6  A    between atoms: C_26  and  O_27
REMARK                            x       y       z     vdW  Elec       q    Type
REMARK                         _______ _______ _______ _____ _____    ______ ____
ROOT
ATOM      1  N   UNL     1      32.618  -9.067 -24.352  0.00  0.00    -0.287 N 
ATOM      2  N   UNL     1      32.513 -12.826 -21.509  0.00  0.00    -0.247 N 
ATOM      3  N   UNL     1      32.570 -10.965 -22.932  0.00  0.00    -0.322 NA
ATOM      4  N   UNL     1      31.666 -10.795 -20.705  0.00  0.00    -0.169 NA
ATOM      5  C   UNL     1      32.291  -9.656 -23.105  0.00  0.00    +0.202 C 
ATOM      6  C   UNL     1      31.709  -8.862 -22.139  0.00  0.00    +0.118 C 
ATOM      7  C   UNL     1      32.236 -11.462 -21.726  0.00  0.00    +0.150 C 
ATOM      8  C   UNL     1      31.414  -9.491 -20.946  0.00  0.00    +0.120 C 
ATOM      9  H   UNL     1      32.024  -8.325 -24.608  0.00  0.00    +0.155 HD
ATOM     10  H   UNL     1      32.253 -13.145 -20.615  0.00  0.00    +0.165 HD
ENDROOT
BRANCH   1  11
ATOM     11  C   UNL     1      33.624  -9.338 -25.293  0.00  0.00    +0.050 C 
ATOM     12  C   UNL     1      33.598 -10.529 -26.020  0.00  0.00    +0.010 C 
ATOM     13  C   UNL     1      34.598 -10.796 -26.955  0.00  0.00    -0.021 C 
ATOM     14  C   UNL     1      34.649  -8.415 -25.503  0.00  0.00    +0.015 C 
ATOM     15  C   UNL     1      35.622  -9.874 -27.165  0.00  0.00    -0.004 C 
ATOM     16  C   UNL     1      35.649  -8.684 -26.438  0.00  0.00    +0.001 C 
ATOM     17  C   UNL     1      34.571 -12.070 -27.730  0.00  0.00    +0.031 C 
ENDBRANCH   1  11
BRANCH   2  18
ATOM     18  C   UNL     1      33.090 -13.825 -22.320  0.00  0.00    +0.058 C 
ATOM     19  C   UNL     1      34.233 -15.799 -23.925  0.00  0.00    -0.011 C 
ATOM     20  C   UNL     1      33.980 -14.744 -21.767  0.00  0.00    +0.015 C 
ATOM     21  C   UNL     1      32.772 -13.891 -23.677  0.00  0.00    +0.015 C 
ATOM     22  C   UNL     1      34.552 -15.732 -22.570  0.00  0.00    -0.002 C 
ATOM     23  C   UNL     1      33.343 -14.878 -24.479  0.00  0.00    -0.002 C 
BRANCH  19  24
ATOM     24  C   UNL     1      34.844 -16.855 -24.784  0.00  0.00    +0.136 C 
BRANCH  24  26
ATOM     25  O   UNL     1      34.473 -19.187 -24.191  0.00  0.00    -0.250 OA
ATOM     26  C   UNL     1      34.090 -18.170 -24.753  0.00  0.00    +0.318 C 
BRANCH  26  27
ATOM     27  O   UNL     1      32.916 -18.098 -25.434  0.00  0.00    -0.480 OA
ATOM     28  H   UNL     1      32.682 -17.308 -25.881  0.00  0.00    +0.295 HD
ENDBRANCH  26  27
ENDBRANCH  24  26
ENDBRANCH  19  24
ENDBRANCH   2  18
BRANCH   6  31
ATOM     29  O   UNL     1      30.387  -7.081 -22.933  0.00  0.00    -0.270 OA
ATOM     30  N   UNL     1      32.288  -6.523 -21.778  0.00  0.00    -0.325 N 
ATOM     31  C   UNL     1      31.407  -7.452 -22.324  0.00  0.00    +0.248 C 
ATOM     32  H   UNL     1      32.116  -5.560 -21.884  0.00  0.00    +0.145 HD
ATOM     33  H   UNL     1      33.084  -6.830 -21.287  0.00  0.00    +0.145 HD
ENDBRANCH   6  31
TORSDOF 6
ENDMDL
MODEL 8
REMARK VINA RESULT:      -9.6      2.958      7.082
REMARK  Name = 24871491
REMARK  6 active torsions:
REMARK  status: ('A' for Active; 'I' for Inactive)
REMARK    1  A    between atoms: N_1  and  C_11
REMARK    2  A    between atoms: N_2  and  C_18
REMARK    3  A    between atoms: C_6  and  C_31
REMARK    4  A    between atoms: C_19  and  C_24
REMARK    5  A    between atoms: C_24  and  C_26
REMARK    6  A    between atoms: C_26  and  O_27
REMARK                            x       y       z     vdW  Elec       q    Type
REMARK                         _______ _______ _______ _____ _____    ______ ____
ROOT
ATOM      1  N   UNL     1      33.753 -24.570 -13.193  0.00  0.00    -0.287 N 
ATOM      2  N   UNL     1      37.028 -22.416 -15.812  0.00  0.00    -0.247 N 
ATOM      3  N   UNL     1      35.391 -23.487 -14.520  0.00  0.00    -0.322 NA
ATOM      4  N   UNL     1      37.567 -23.000 -13.608  0.00  0.00    -0.169 NA
ATOM      5  C   UNL     1      35.057 -24.034 -13.333  0.00  0.00    +0.202 C 
ATOM      6  C   UNL     1      35.911 -24.100 -12.251  0.00  0.00    +0.118 C 
ATOM      7  C   UNL     1      36.644 -22.996 -14.586  0.00  0.00    +0.150 C 
ATOM      8  C   UNL     1      37.167 -23.562 -12.448  0.00  0.00    +0.120 C 
ATOM      9  H   UNL     1      33.698 -25.321 -12.560  0.00  0.00    +0.155 HD
ATOM     10  H   UNL     1      37.949 -22.070 -15.814  0.00  0.00    +0.165 HD
ENDROOT
BRANCH   1  11
ATOM     11  C   UNL     1      32.523 -24.237 -13.783  0.00  0.00    +0.050 C 
ATOM     12  C   UNL     1      31.511 -25.193 -13.874  0.00  0.00    +0.010 C 
ATOM     13  C   UNL     1      30.290 -24.861 -14.460  0.00  0.00    -0.021 C 
ATOM     14  C   UNL     1      32.312 -22.950 -14.276  0.00  0.00    +0.015 C 
ATOM     15  C   UNL     1      30.079 -23.574 -14.953  0.00  0.00    -0.004 C 
ATOM     16  C   UNL     1      31.090 -22.618 -14.863  0.00  0.00    +0.001 C 
ATOM     17  C   UNL     1      29.209 -25.884 -14.559  0.00  0.00    +0.031 C 
ENDBRANCH   1  11
BRANCH   2  18
ATOM     18  C   UNL     1      36.351 -22.233 -17.036  0.00  0.00    +0.058 C 
ATOM     19  C   UNL     1      35.014 -21.869 -19.456  0.00  0.00    -0.011 C 
ATOM     20  C   UNL     1      36.952 -21.503 -18.061  0.00  0.00    +0.015 C 
ATOM     21  C   UNL     1      35.082 -22.780 -17.219  0.00  0.00    +0.015 C 
ATOM     22  C   UNL     1      36.283 -21.321 -19.272  0.00  0.00    -0.002 C 
ATOM     23  C   UNL     1      34.413 -22.599 -18.430  0.00  0.00    -0.002 C 
BRANCH  19  24
ATOM     24  C   UNL     1      34.299 -21.675 -20.751  0.00  0.00    +0.136 C 
BRANCH  24  26
ATOM     25  O   UNL     1      32.222 -20.497 -20.272  0.00  0.00    -0.250 OA
ATOM     26  C   UNL     1      33.350 -20.493 -20.746  0.00  0.00    +0.318 C 
BRANCH  26  27
ATOM     27  O   UNL     1      33.899 -19.401 -21.341  0.00  0.00    -0.480 OA
ATOM     28  H   UNL     1      33.517 -18.555 -21.210  0.00  0.00    +0.295 HD
ENDBRANCH  26  27
ENDBRANCH  24  26
ENDBRANCH  19  24
ENDBRANCH   2  18
BRANCH   6  31
ATOM     29  O   UNL     1      34.967 -25.785 -10.904  0.00  0.00    -0.270 OA
ATOM     30  N   UNL     1      35.906 -23.998  -9.818  0.00  0.00    -0.325 N 
ATOM     31  C   UNL     1      35.553 -24.690 -10.971  0.00  0.00    +0.248 C 
ATOM     32  H   UNL     1      35.679 -24.366  -8.933  0.00  0.00    +0.145 HD
ATOM     33  H   UNL     1      36.381 -23.138  -9.885  0.00  0.00    +0.145 HD
ENDBRANCH   6  31
TORSDOF 6
ENDMDL
MODEL 9
REMARK VINA RESULT:      -9.2     14.669     18.372
REMARK  Name = 24871491
REMARK  6 active torsions:
REMARK  status: ('A' for Active; 'I' for Inactive)
REMARK    1  A    between atoms: N_1  and  C_11
REMARK    2  A    between atoms: N_2  and  C_18
REMARK    3  A    between atoms: C_6  and  C_31
REMARK    4  A    between atoms: C_19  and  C_24
REMARK    5  A    between atoms: C_24  and  C_26
REMARK    6  A    between atoms: C_26  and  O_27
REMARK                            x       y       z     vdW  Elec       q    Type
REMARK                         _______ _______ _______ _____ _____    ______ ____
ROOT
ATOM      1  N   UNL     1      33.534 -12.000 -23.607  0.00  0.00    -0.287 N 
ATOM      2  N   UNL     1      31.177  -8.116 -22.348  0.00  0.00    -0.247 N 
ATOM      3  N   UNL     1      32.355 -10.040 -22.983  0.00  0.00    -0.322 NA
ATOM      4  N   UNL     1      30.826 -10.082 -21.122  0.00  0.00    -0.169 NA
ATOM      5  C   UNL     1      32.608 -11.347 -22.756  0.00  0.00    +0.202 C 
ATOM      6  C   UNL     1      32.017 -12.078 -21.746  0.00  0.00    +0.118 C 
ATOM      7  C   UNL     1      31.467  -9.479 -22.140  0.00  0.00    +0.150 C 
ATOM      8  C   UNL     1      31.126 -11.387 -20.951  0.00  0.00    +0.120 C 
ATOM      9  H   UNL     1      34.024 -12.734 -23.171  0.00  0.00    +0.155 HD
ATOM     10  H   UNL     1      30.523  -7.750 -21.710  0.00  0.00    +0.165 HD
ENDROOT
BRANCH   1  11
ATOM     11  C   UNL     1      33.888 -11.804 -24.951  0.00  0.00    +0.050 C 
ATOM     12  C   UNL     1      34.607 -10.668 -25.325  0.00  0.00    +0.010 C 
ATOM     13  C   UNL     1      34.958 -10.474 -26.660  0.00  0.00    -0.021 C 
ATOM     14  C   UNL     1      33.522 -12.745 -25.913  0.00  0.00    +0.015 C 
ATOM     15  C   UNL     1      34.592 -11.414 -27.623  0.00  0.00    -0.004 C 
ATOM     16  C   UNL     1      33.873 -12.550 -27.249  0.00  0.00    +0.001 C 
ATOM     17  C   UNL     1      35.726  -9.259 -27.060  0.00  0.00    +0.031 C 
ENDBRANCH   1  11
BRANCH   2  18
ATOM     18  C   UNL     1      31.639  -7.174 -23.289  0.00  0.00    +0.058 C 
ATOM     19  C   UNL     1      32.554  -5.310 -25.152  0.00  0.00    -0.011 C 
ATOM     20  C   UNL     1      31.040  -7.093 -24.545  0.00  0.00    +0.015 C 
ATOM     21  C   UNL     1      32.696  -6.324 -22.964  0.00  0.00    +0.015 C 
ATOM     22  C   UNL     1      31.497  -6.160 -25.477  0.00  0.00    -0.002 C 
ATOM     23  C   UNL     1      33.154  -5.392 -23.895  0.00  0.00    -0.002 C 
BRANCH  19  24
ATOM     24  C   UNL     1      33.043  -4.314 -26.148  0.00  0.00    +0.136 C 
BRANCH  24  26
ATOM     25  O   UNL     1      31.592  -3.337 -27.843  0.00  0.00    -0.250 OA
ATOM     26  C   UNL     1      31.953  -3.401 -26.675  0.00  0.00    +0.318 C 
BRANCH  26  27
ATOM     27  O   UNL     1      31.407  -2.642 -25.689  0.00  0.00    -0.480 OA
ATOM     28  H   UNL     1      30.476  -2.579 -25.607  0.00  0.00    +0.295 HD
ENDBRANCH  26  27
ENDBRANCH  24  26
ENDBRANCH  19  24
ENDBRANCH   2  18
BRANCH   6  31
ATOM     29  O   UNL     1      32.968 -14.163 -22.292  0.00  0.00    -0.270 OA
ATOM     30  N   UNL     1      31.782 -14.048 -20.334  0.00  0.00    -0.325 N 
ATOM     31  C   UNL     1      32.290 -13.485 -21.500  0.00  0.00    +0.248 C 
ATOM     32  H   UNL     1      31.946 -14.998 -20.133  0.00  0.00    +0.145 HD
ATOM     33  H   UNL     1      31.258 -13.497 -19.709  0.00  0.00    +0.145 HD
ENDBRANCH   6  31
TORSDOF 6
ENDMDL
