MODEL 1
REMARK VINA RESULT:     -12.4      0.000      0.000
REMARK  Name = 119057475
REMARK  5 active torsions:
REMARK  status: ('A' for Active; 'I' for Inactive)
REMARK    1  A    between atoms: N_1  and  C_22
REMARK    2  A    between atoms: C_2  and  N_8
REMARK    3  A    between atoms: N_8  and  C_11
REMARK    4  A    between atoms: C_11  and  C_16
REMARK    5  A    between atoms: C_22  and  C_26
REMARK                            x       y       z     vdW  Elec       q    Type
REMARK                         _______ _______ _______ _____ _____    ______ ____
ROOT
ATOM      1  N   UNL     1      33.613 -15.371 -24.359  0.00  0.00    +0.387 N 
ATOM      2  C   UNL     1      34.907 -17.974 -24.027  0.00  0.00    -0.066 C 
ATOM      3  C   UNL     1      34.857 -15.490 -23.586  0.00  0.00    -0.079 C 
ATOM      4  C   UNL     1      33.555 -16.373 -25.433  0.00  0.00    -0.079 C 
ATOM      5  C   UNL     1      34.986 -16.881 -22.959  0.00  0.00    -0.044 C 
ATOM      6  C   UNL     1      33.640 -17.793 -24.868  0.00  0.00    -0.044 C 
ATOM      7  H   UNL     1      32.832 -15.544 -23.726  0.00  0.00    -0.080 HD
ENDROOT
BRANCH   2   8
ATOM      8  N   UNL     1      34.937 -19.295 -23.404  0.00  0.00    +0.389 N 
ATOM      9  H   UNL     1      35.543 -19.908 -23.950  0.00  0.00    -0.084 HD
ATOM     10  H   UNL     1      33.988 -19.666 -23.378  0.00  0.00    -0.084 HD
BRANCH   8  11
ATOM     11  C   UNL     1      35.444 -19.213 -22.042  0.00  0.00    -0.032 C 
BRANCH  11  16
ATOM     12  O   UNL     1      35.263 -22.506 -18.476  0.00  0.00    -0.467 OA
ATOM     13  O   UNL     1      32.396 -22.455 -18.712  0.00  0.00    -0.453 OA
ATOM     14  N   UNL     1      33.331 -20.067 -21.181  0.00  0.00    -0.151 NA
ATOM     15  N   UNL     1      32.593 -20.861 -20.358  0.00  0.00    -0.107 NA
ATOM     16  C   UNL     1      34.677 -20.107 -21.104  0.00  0.00    +0.062 C 
ATOM     17  C   UNL     1      35.353 -20.916 -20.213  0.00  0.00    +0.056 C 
ATOM     18  C   UNL     1      34.600 -21.714 -19.369  0.00  0.00    +0.194 C 
ATOM     19  C   UNL     1      33.221 -21.674 -19.482  0.00  0.00    +0.278 C 
ATOM     20  C   UNL     1      34.387 -23.028 -17.472  0.00  0.00    +0.253 C 
ATOM     21  C   UNL     1      33.106 -23.536 -18.103  0.00  0.00    +0.254 C 
ENDBRANCH  11  16
ENDBRANCH   8  11
ENDBRANCH   2   8
BRANCH   1  22
ATOM     22  C   UNL     1      33.479 -14.022 -24.909  0.00  0.00    -0.071 C 
BRANCH  22  26
ATOM     23  F   UNL     1      35.209 -11.596 -26.289  0.00  0.00    -0.204 F 
ATOM     24  O   UNL     1      31.020 -11.720 -20.710  0.00  0.00    -0.270 OA
ATOM     25  N   UNL     1      32.388 -11.601 -22.572  0.00  0.00    -0.255 N 
ATOM     26  C   UNL     1      33.897 -12.972 -23.890  0.00  0.00    +0.025 C 
ATOM     27  C   UNL     1      32.954 -12.954 -22.650  0.00  0.00    +0.101 C 
ATOM     28  C   UNL     1      33.764 -11.567 -24.411  0.00  0.00    +0.018 C 
ATOM     29  C   UNL     1      32.896 -10.841 -23.615  0.00  0.00    +0.052 C 
ATOM     30  C   UNL     1      32.560  -9.518 -23.822  0.00  0.00    +0.014 C 
ATOM     31  C   UNL     1      34.355 -10.942 -25.493  0.00  0.00    +0.137 C 
ATOM     32  C   UNL     1      31.499 -11.093 -21.651  0.00  0.00    +0.253 C 
ATOM     33  C   UNL     1      33.149  -8.883 -24.911  0.00  0.00    +0.004 C 
ATOM     34  C   UNL     1      34.041  -9.595 -25.740  0.00  0.00    +0.029 C 
ATOM     35  C   UNL     1      31.622  -8.921 -22.875  0.00  0.00    +0.006 C 
ATOM     36  C   UNL     1      31.125  -9.651 -21.863  0.00  0.00    +0.058 C 
ENDBRANCH  22  26
ENDBRANCH   1  22
TORSDOF 5
ENDMDL
MODEL 2
REMARK VINA RESULT:     -12.4      1.995      2.930
REMARK  Name = 119057475
REMARK  5 active torsions:
REMARK  status: ('A' for Active; 'I' for Inactive)
REMARK    1  A    between atoms: N_1  and  C_22
REMARK    2  A    between atoms: C_2  and  N_8
REMARK    3  A    between atoms: N_8  and  C_11
REMARK    4  A    between atoms: C_11  and  C_16
REMARK    5  A    between atoms: C_22  and  C_26
REMARK                            x       y       z     vdW  Elec       q    Type
REMARK                         _______ _______ _______ _____ _____    ______ ____
ROOT
ATOM      1  N   UNL     1      34.315 -15.218 -22.979  0.00  0.00    +0.387 N 
ATOM      2  C   UNL     1      35.269 -17.982 -22.856  0.00  0.00    -0.066 C 
ATOM      3  C   UNL     1      34.911 -15.746 -21.743  0.00  0.00    -0.079 C 
ATOM      4  C   UNL     1      34.900 -15.857 -24.166  0.00  0.00    -0.079 C 
ATOM      5  C   UNL     1      34.702 -17.259 -21.633  0.00  0.00    -0.044 C 
ATOM      6  C   UNL     1      34.691 -17.374 -24.137  0.00  0.00    -0.044 C 
ATOM      7  H   UNL     1      33.319 -15.435 -22.964  0.00  0.00    -0.080 HD
ENDROOT
BRANCH   2   8
ATOM      8  N   UNL     1      34.978 -19.412 -22.779  0.00  0.00    +0.389 N 
ATOM      9  H   UNL     1      35.781 -19.894 -22.373  0.00  0.00    -0.084 HD
ATOM     10  H   UNL     1      34.793 -19.760 -23.719  0.00  0.00    -0.084 HD
BRANCH   8  11
ATOM     11  C   UNL     1      33.807 -19.658 -21.952  0.00  0.00    -0.032 C 
BRANCH  11  16
ATOM     12  O   UNL     1      32.469 -22.724 -18.430  0.00  0.00    -0.467 OA
ATOM     13  O   UNL     1      35.227 -22.834 -17.618  0.00  0.00    -0.453 OA
ATOM     14  N   UNL     1      35.420 -20.632 -20.408  0.00  0.00    -0.151 NA
ATOM     15  N   UNL     1      35.758 -21.417 -19.348  0.00  0.00    -0.107 NA
ATOM     16  C   UNL     1      34.125 -20.545 -20.778  0.00  0.00    +0.062 C 
ATOM     17  C   UNL     1      33.114 -21.228 -20.133  0.00  0.00    +0.056 C 
ATOM     18  C   UNL     1      33.463 -22.034 -19.063  0.00  0.00    +0.194 C 
ATOM     19  C   UNL     1      34.794 -22.090 -18.687  0.00  0.00    +0.278 C 
ATOM     20  C   UNL     1      32.989 -23.741 -17.568  0.00  0.00    +0.253 C 
ATOM     21  C   UNL     1      34.147 -23.199 -16.754  0.00  0.00    +0.254 C 
ENDBRANCH  11  16
ENDBRANCH   8  11
ENDBRANCH   2   8
BRANCH   1  22
ATOM     22  C   UNL     1      34.478 -13.766 -23.047  0.00  0.00    -0.071 C 
BRANCH  22  26
ATOM     23  F   UNL     1      31.908 -13.975 -21.013  0.00  0.00    -0.204 F 
ATOM     24  O   UNL     1      33.636  -9.244 -25.843  0.00  0.00    -0.270 OA
ATOM     25  N   UNL     1      33.026 -10.753 -24.199  0.00  0.00    -0.255 N 
ATOM     26  C   UNL     1      33.238 -13.103 -23.629  0.00  0.00    +0.025 C 
ATOM     27  C   UNL     1      33.598 -12.016 -24.684  0.00  0.00    +0.101 C 
ATOM     28  C   UNL     1      32.465 -12.313 -22.609  0.00  0.00    +0.018 C 
ATOM     29  C   UNL     1      32.377 -10.988 -22.995  0.00  0.00    +0.052 C 
ATOM     30  C   UNL     1      31.730 -10.001 -22.279  0.00  0.00    +0.014 C 
ATOM     31  C   UNL     1      31.862 -12.703 -21.428  0.00  0.00    +0.137 C 
ATOM     32  C   UNL     1      33.077  -9.506 -24.781  0.00  0.00    +0.253 C 
ATOM     33  C   UNL     1      31.124 -10.384 -21.086  0.00  0.00    +0.004 C 
ATOM     34  C   UNL     1      31.191 -11.730 -20.667  0.00  0.00    +0.029 C 
ATOM     35  C   UNL     1      31.749  -8.656 -22.846  0.00  0.00    +0.006 C 
ATOM     36  C   UNL     1      32.376  -8.420 -24.011  0.00  0.00    +0.058 C 
ENDBRANCH  22  26
ENDBRANCH   1  22
TORSDOF 5
ENDMDL
MODEL 3
REMARK VINA RESULT:     -12.2      3.987     11.978
REMARK  Name = 119057475
REMARK  5 active torsions:
REMARK  status: ('A' for Active; 'I' for Inactive)
REMARK    1  A    between atoms: N_1  and  C_22
REMARK    2  A    between atoms: C_2  and  N_8
REMARK    3  A    between atoms: N_8  and  C_11
REMARK    4  A    between atoms: C_11  and  C_16
REMARK    5  A    between atoms: C_22  and  C_26
REMARK                            x       y       z     vdW  Elec       q    Type
REMARK                         _______ _______ _______ _____ _____    ______ ____
ROOT
ATOM      1  N   UNL     1      34.113 -22.546 -19.586  0.00  0.00    +0.387 N 
ATOM      2  C   UNL     1      34.852 -20.016 -20.858  0.00  0.00    -0.066 C 
ATOM      3  C   UNL     1      35.483 -22.028 -19.471  0.00  0.00    -0.079 C 
ATOM      4  C   UNL     1      33.137 -21.452 -19.689  0.00  0.00    -0.079 C 
ATOM      5  C   UNL     1      35.850 -21.163 -20.681  0.00  0.00    -0.044 C 
ATOM      6  C   UNL     1      33.424 -20.568 -20.906  0.00  0.00    -0.044 C 
ATOM      7  H   UNL     1      34.057 -23.098 -20.442  0.00  0.00    -0.080 HD
ENDROOT
BRANCH   2   8
ATOM      8  N   UNL     1      35.161 -19.258 -22.068  0.00  0.00    +0.389 N 
ATOM      9  H   UNL     1      34.394 -19.364 -22.733  0.00  0.00    -0.084 HD
ATOM     10  H   UNL     1      36.028 -19.618 -22.467  0.00  0.00    -0.084 HD
BRANCH   8  11
ATOM     11  C   UNL     1      35.338 -17.847 -21.764  0.00  0.00    -0.032 C 
BRANCH  11  16
ATOM     12  O   UNL     1      33.966 -13.548 -23.561  0.00  0.00    -0.467 OA
ATOM     13  O   UNL     1      33.710 -14.817 -26.130  0.00  0.00    -0.453 OA
ATOM     14  N   UNL     1      34.813 -17.543 -24.123  0.00  0.00    -0.151 NA
ATOM     15  N   UNL     1      34.418 -16.792 -25.187  0.00  0.00    -0.107 NA
ATOM     16  C   UNL     1      34.903 -16.968 -22.906  0.00  0.00    +0.062 C 
ATOM     17  C   UNL     1      34.622 -15.635 -22.685  0.00  0.00    +0.056 C 
ATOM     18  C   UNL     1      34.232 -14.871 -23.772  0.00  0.00    +0.194 C 
ATOM     19  C   UNL     1      34.123 -15.487 -25.006  0.00  0.00    +0.278 C 
ATOM     20  C   UNL     1      33.886 -12.817 -24.789  0.00  0.00    +0.253 C 
ATOM     21  C   UNL     1      33.063 -13.585 -25.805  0.00  0.00    +0.254 C 
ENDBRANCH  11  16
ENDBRANCH   8  11
ENDBRANCH   2   8
BRANCH   1  22
ATOM     22  C   UNL     1      33.795 -23.410 -18.450  0.00  0.00    -0.071 C 
BRANCH  22  26
ATOM     23  F   UNL     1      30.912 -23.111 -16.908  0.00  0.00    -0.204 F 
ATOM     24  O   UNL     1      37.453 -23.433 -14.500  0.00  0.00    -0.270 OA
ATOM     25  N   UNL     1      35.258 -23.362 -15.229  0.00  0.00    -0.255 N 
ATOM     26  C   UNL     1      33.930 -22.656 -17.135  0.00  0.00    +0.025 C 
ATOM     27  C   UNL     1      35.374 -22.744 -16.557  0.00  0.00    +0.101 C 
ATOM     28  C   UNL     1      33.107 -23.259 -16.029  0.00  0.00    +0.018 C 
ATOM     29  C   UNL     1      33.922 -23.634 -14.976  0.00  0.00    +0.052 C 
ATOM     30  C   UNL     1      33.477 -24.217 -13.806  0.00  0.00    +0.014 C 
ATOM     31  C   UNL     1      31.745 -23.465 -15.923  0.00  0.00    +0.137 C 
ATOM     32  C   UNL     1      36.257 -23.653 -14.327  0.00  0.00    +0.253 C 
ATOM     33  C   UNL     1      32.106 -24.431 -13.693  0.00  0.00    +0.004 C 
ATOM     34  C   UNL     1      31.248 -24.055 -14.748  0.00  0.00    +0.029 C 
ATOM     35  C   UNL     1      34.490 -24.548 -12.808  0.00  0.00    +0.006 C 
ATOM     36  C   UNL     1      35.786 -24.287 -13.047  0.00  0.00    +0.058 C 
ENDBRANCH  22  26
ENDBRANCH   1  22
TORSDOF 5
ENDMDL
MODEL 4
REMARK VINA RESULT:     -12.0      3.971     11.592
REMARK  Name = 119057475
REMARK  5 active torsions:
REMARK  status: ('A' for Active; 'I' for Inactive)
REMARK    1  A    between atoms: N_1  and  C_22
REMARK    2  A    between atoms: C_2  and  N_8
REMARK    3  A    between atoms: N_8  and  C_11
REMARK    4  A    between atoms: C_11  and  C_16
REMARK    5  A    between atoms: C_22  and  C_26
REMARK                            x       y       z     vdW  Elec       q    Type
REMARK                         _______ _______ _______ _____ _____    ______ ____
ROOT
ATOM      1  N   UNL     1      34.702 -21.897 -19.361  0.00  0.00    +0.387 N 
ATOM      2  C   UNL     1      34.336 -19.834 -21.403  0.00  0.00    -0.066 C 
ATOM      3  C   UNL     1      35.839 -21.080 -19.805  0.00  0.00    -0.079 C 
ATOM      4  C   UNL     1      33.442 -21.144 -19.440  0.00  0.00    -0.079 C 
ATOM      5  C   UNL     1      35.648 -20.606 -21.249  0.00  0.00    -0.044 C 
ATOM      6  C   UNL     1      33.170 -20.673 -20.871  0.00  0.00    -0.044 C 
ATOM      7  H   UNL     1      34.629 -22.699 -19.987  0.00  0.00    -0.080 HD
ENDROOT
BRANCH   2   8
ATOM      8  N   UNL     1      34.123 -19.472 -22.803  0.00  0.00    +0.389 N 
ATOM      9  H   UNL     1      33.233 -18.980 -22.889  0.00  0.00    -0.084 HD
ATOM     10  H   UNL     1      34.113 -20.323 -23.364  0.00  0.00    -0.084 HD
BRANCH   8  11
ATOM     11  C   UNL     1      35.193 -18.610 -23.282  0.00  0.00    -0.032 C 
BRANCH  11  16
ATOM     12  O   UNL     1      34.386 -13.821 -23.198  0.00  0.00    -0.467 OA
ATOM     13  O   UNL     1      33.111 -14.093 -25.763  0.00  0.00    -0.453 OA
ATOM     14  N   UNL     1      34.090 -17.456 -25.122  0.00  0.00    -0.151 NA
ATOM     15  N   UNL     1      33.587 -16.343 -25.723  0.00  0.00    -0.107 NA
ATOM     16  C   UNL     1      34.660 -17.347 -23.904  0.00  0.00    +0.062 C 
ATOM     17  C   UNL     1      34.770 -16.146 -23.232  0.00  0.00    +0.056 C 
ATOM     18  C   UNL     1      34.268 -15.014 -23.852  0.00  0.00    +0.194 C 
ATOM     19  C   UNL     1      33.667 -15.153 -25.090  0.00  0.00    +0.278 C 
ATOM     20  C   UNL     1      34.124 -12.710 -24.062  0.00  0.00    +0.253 C 
ATOM     21  C   UNL     1      32.888 -12.976 -24.899  0.00  0.00    +0.254 C 
ENDBRANCH  11  16
ENDBRANCH   8  11
ENDBRANCH   2   8
BRANCH   1  22
ATOM     22  C   UNL     1      34.922 -22.384 -17.999  0.00  0.00    -0.071 C 
BRANCH  22  26
ATOM     23  F   UNL     1      36.170 -24.444 -15.767  0.00  0.00    -0.204 F 
ATOM     24  O   UNL     1      29.600 -22.595 -17.218  0.00  0.00    -0.270 OA
ATOM     25  N   UNL     1      31.756 -23.220 -16.659  0.00  0.00    -0.255 N 
ATOM     26  C   UNL     1      33.952 -23.505 -17.655  0.00  0.00    +0.025 C 
ATOM     27  C   UNL     1      32.473 -23.104 -17.936  0.00  0.00    +0.101 C 
ATOM     28  C   UNL     1      33.922 -23.822 -16.186  0.00  0.00    +0.018 C 
ATOM     29  C   UNL     1      32.646 -23.644 -15.682  0.00  0.00    +0.052 C 
ATOM     30  C   UNL     1      32.283 -23.853 -14.367  0.00  0.00    +0.014 C 
ATOM     31  C   UNL     1      34.921 -24.247 -15.330  0.00  0.00    +0.137 C 
ATOM     32  C   UNL     1      30.429 -22.971 -16.393  0.00  0.00    +0.253 C 
ATOM     33  C   UNL     1      33.284 -24.277 -13.498  0.00  0.00    +0.004 C 
ATOM     34  C   UNL     1      34.595 -24.473 -13.982  0.00  0.00    +0.029 C 
ATOM     35  C   UNL     1      30.885 -23.607 -14.023  0.00  0.00    +0.006 C 
ATOM     36  C   UNL     1      30.018 -23.196 -14.963  0.00  0.00    +0.058 C 
ENDBRANCH  22  26
ENDBRANCH   1  22
TORSDOF 5
ENDMDL
MODEL 5
REMARK VINA RESULT:     -11.9      4.436     12.538
REMARK  Name = 119057475
REMARK  5 active torsions:
REMARK  status: ('A' for Active; 'I' for Inactive)
REMARK    1  A    between atoms: N_1  and  C_22
REMARK    2  A    between atoms: C_2  and  N_8
REMARK    3  A    between atoms: N_8  and  C_11
REMARK    4  A    between atoms: C_11  and  C_16
REMARK    5  A    between atoms: C_22  and  C_26
REMARK                            x       y       z     vdW  Elec       q    Type
REMARK                         _______ _______ _______ _____ _____    ______ ____
ROOT
ATOM      1  N   UNL     1      34.750 -22.031 -18.479  0.00  0.00    +0.387 N 
ATOM      2  C   UNL     1      34.210 -20.695 -21.026  0.00  0.00    -0.066 C 
ATOM      3  C   UNL     1      33.482 -22.260 -19.185  0.00  0.00    -0.079 C 
ATOM      4  C   UNL     1      35.843 -21.759 -19.423  0.00  0.00    -0.079 C 
ATOM      5  C   UNL     1      33.097 -21.047 -20.036  0.00  0.00    -0.044 C 
ATOM      6  C   UNL     1      35.538 -20.529 -20.282  0.00  0.00    -0.044 C 
ATOM      7  H   UNL     1      34.635 -21.209 -17.887  0.00  0.00    -0.080 HD
ENDROOT
BRANCH   2   8
ATOM      8  N   UNL     1      33.867 -19.481 -21.763  0.00  0.00    +0.389 N 
ATOM      9  H   UNL     1      33.612 -18.749 -21.100  0.00  0.00    -0.084 HD
ATOM     10  H   UNL     1      33.085 -19.686 -22.385  0.00  0.00    -0.084 HD
BRANCH   8  11
ATOM     11  C   UNL     1      34.993 -19.027 -22.565  0.00  0.00    -0.032 C 
BRANCH  11  16
ATOM     12  O   UNL     1      34.370 -14.260 -23.254  0.00  0.00    -0.467 OA
ATOM     13  O   UNL     1      33.557 -14.858 -25.948  0.00  0.00    -0.453 OA
ATOM     14  N   UNL     1      34.277 -18.117 -24.708  0.00  0.00    -0.151 NA
ATOM     15  N   UNL     1      33.932 -17.088 -25.530  0.00  0.00    -0.107 NA
ATOM     16  C   UNL     1      34.627 -17.852 -23.432  0.00  0.00    +0.062 C 
ATOM     17  C   UNL     1      34.663 -16.574 -22.914  0.00  0.00    +0.056 C 
ATOM     18  C   UNL     1      34.323 -15.529 -23.756  0.00  0.00    +0.194 C 
ATOM     19  C   UNL     1      33.945 -15.825 -25.054  0.00  0.00    +0.278 C 
ATOM     20  C   UNL     1      34.307 -13.273 -24.288  0.00  0.00    +0.253 C 
ATOM     21  C   UNL     1      33.229 -13.631 -25.292  0.00  0.00    +0.254 C 
ENDBRANCH  11  16
ENDBRANCH   8  11
ENDBRANCH   2   8
BRANCH   1  22
ATOM     22  C   UNL     1      35.079 -23.177 -17.632  0.00  0.00    -0.071 C 
BRANCH  22  26
ATOM     23  F   UNL     1      32.834 -22.778 -15.269  0.00  0.00    -0.204 F 
ATOM     24  O   UNL     1      39.590 -24.508 -15.012  0.00  0.00    -0.270 OA
ATOM     25  N   UNL     1      37.337 -23.979 -15.030  0.00  0.00    -0.255 N 
ATOM     26  C   UNL     1      35.708 -22.726 -16.321  0.00  0.00    +0.025 C 
ATOM     27  C   UNL     1      37.209 -23.133 -16.224  0.00  0.00    +0.101 C 
ATOM     28  C   UNL     1      35.113 -23.411 -15.122  0.00  0.00    +0.018 C 
ATOM     29  C   UNL     1      36.093 -24.101 -14.429  0.00  0.00    +0.052 C 
ATOM     30  C   UNL     1      35.875 -24.834 -13.280  0.00  0.00    +0.014 C 
ATOM     31  C   UNL     1      33.818 -23.436 -14.643  0.00  0.00    +0.137 C 
ATOM     32  C   UNL     1      38.466 -24.584 -14.523  0.00  0.00    +0.253 C 
ATOM     33  C   UNL     1      34.572 -24.867 -12.793  0.00  0.00    +0.004 C 
ATOM     34  C   UNL     1      33.551 -24.170 -13.474  0.00  0.00    +0.029 C 
ATOM     35  C   UNL     1      37.035 -25.498 -12.693  0.00  0.00    +0.006 C 
ATOM     36  C   UNL     1      38.244 -25.385 -13.269  0.00  0.00    +0.058 C 
ENDBRANCH  22  26
ENDBRANCH   1  22
TORSDOF 5
ENDMDL
MODEL 6
REMARK VINA RESULT:     -11.8      1.259      1.583
REMARK  Name = 119057475
REMARK  5 active torsions:
REMARK  status: ('A' for Active; 'I' for Inactive)
REMARK    1  A    between atoms: N_1  and  C_22
REMARK    2  A    between atoms: C_2  and  N_8
REMARK    3  A    between atoms: N_8  and  C_11
REMARK    4  A    between atoms: C_11  and  C_16
REMARK    5  A    between atoms: C_22  and  C_26
REMARK                            x       y       z     vdW  Elec       q    Type
REMARK                         _______ _______ _______ _____ _____    ______ ____
ROOT
ATOM      1  N   UNL     1      33.496 -14.595 -24.370  0.00  0.00    +0.387 N 
ATOM      2  C   UNL     1      35.006 -17.041 -23.822  0.00  0.00    -0.066 C 
ATOM      3  C   UNL     1      34.582 -14.593 -23.380  0.00  0.00    -0.079 C 
ATOM      4  C   UNL     1      33.757 -15.565 -25.443  0.00  0.00    -0.079 C 
ATOM      5  C   UNL     1      34.757 -15.978 -22.750  0.00  0.00    -0.044 C 
ATOM      6  C   UNL     1      33.904 -16.983 -24.883  0.00  0.00    -0.044 C 
ATOM      7  H   UNL     1      32.638 -14.876 -23.895  0.00  0.00    -0.080 HD
ENDROOT
BRANCH   2   8
ATOM      8  N   UNL     1      35.077 -18.367 -23.213  0.00  0.00    +0.389 N 
ATOM      9  H   UNL     1      35.436 -19.031 -23.901  0.00  0.00    -0.084 HD
ATOM     10  H   UNL     1      34.141 -18.640 -22.912  0.00  0.00    -0.084 HD
BRANCH   8  11
ATOM     11  C   UNL     1      35.956 -18.359 -22.054  0.00  0.00    -0.032 C 
BRANCH  11  16
ATOM     12  O   UNL     1      32.917 -21.584 -20.066  0.00  0.00    -0.467 OA
ATOM     13  O   UNL     1      35.133 -22.566 -18.517  0.00  0.00    -0.453 OA
ATOM     14  N   UNL     1      36.706 -19.998 -20.416  0.00  0.00    -0.151 NA
ATOM     15  N   UNL     1      36.496 -21.032 -19.556  0.00  0.00    -0.107 NA
ATOM     16  C   UNL     1      35.668 -19.506 -21.123  0.00  0.00    +0.062 C 
ATOM     17  C   UNL     1      34.387 -20.011 -21.025  0.00  0.00    +0.056 C 
ATOM     18  C   UNL     1      34.179 -21.071 -20.158  0.00  0.00    +0.194 C 
ATOM     19  C   UNL     1      35.253 -21.544 -19.426  0.00  0.00    +0.278 C 
ATOM     20  C   UNL     1      32.901 -22.847 -19.395  0.00  0.00    +0.253 C 
ATOM     21  C   UNL     1      33.770 -22.794 -18.153  0.00  0.00    +0.254 C 
ENDBRANCH  11  16
ENDBRANCH   8  11
ENDBRANCH   2   8
BRANCH   1  22
ATOM     22  C   UNL     1      33.307 -13.256 -24.926  0.00  0.00    -0.071 C 
BRANCH  22  26
ATOM     23  F   UNL     1      35.455 -11.158 -26.255  0.00  0.00    -0.204 F 
ATOM     24  O   UNL     1      30.730 -10.372 -21.181  0.00  0.00    -0.270 OA
ATOM     25  N   UNL     1      32.287 -10.554 -22.883  0.00  0.00    -0.255 N 
ATOM     26  C   UNL     1      33.744 -12.186 -23.935  0.00  0.00    +0.025 C 
ATOM     27  C   UNL     1      32.688 -11.965 -22.812  0.00  0.00    +0.101 C 
ATOM     28  C   UNL     1      33.839 -10.819 -24.556  0.00  0.00    +0.018 C 
ATOM     29  C   UNL     1      32.990  -9.939 -23.909  0.00  0.00    +0.052 C 
ATOM     30  C   UNL     1      32.842  -8.606 -24.235  0.00  0.00    +0.014 C 
ATOM     31  C   UNL     1      34.611 -10.351 -25.602  0.00  0.00    +0.137 C 
ATOM     32  C   UNL     1      31.378  -9.878 -22.101  0.00  0.00    +0.253 C 
ATOM     33  C   UNL     1      33.614  -8.127 -25.290  0.00  0.00    +0.004 C 
ATOM     34  C   UNL     1      34.493  -8.999 -25.967  0.00  0.00    +0.029 C 
ATOM     35  C   UNL     1      31.892  -7.834 -23.439  0.00  0.00    +0.006 C 
ATOM     36  C   UNL     1      31.207  -8.423 -22.443  0.00  0.00    +0.058 C 
ENDBRANCH  22  26
ENDBRANCH   1  22
TORSDOF 5
ENDMDL
MODEL 7
REMARK VINA RESULT:     -11.7      3.427     11.394
REMARK  Name = 119057475
REMARK  5 active torsions:
REMARK  status: ('A' for Active; 'I' for Inactive)
REMARK    1  A    between atoms: N_1  and  C_22
REMARK    2  A    between atoms: C_2  and  N_8
REMARK    3  A    between atoms: N_8  and  C_11
REMARK    4  A    between atoms: C_11  and  C_16
REMARK    5  A    between atoms: C_22  and  C_26
REMARK                            x       y       z     vdW  Elec       q    Type
REMARK                         _______ _______ _______ _____ _____    ______ ____
ROOT
ATOM      1  N   UNL     1      35.764 -20.922 -20.976  0.00  0.00    +0.387 N 
ATOM      2  C   UNL     1      35.539 -18.084 -21.650  0.00  0.00    -0.066 C 
ATOM      3  C   UNL     1      36.823 -19.979 -20.589  0.00  0.00    -0.079 C 
ATOM      4  C   UNL     1      34.450 -20.266 -21.001  0.00  0.00    -0.079 C 
ATOM      5  C   UNL     1      36.890 -18.796 -21.559  0.00  0.00    -0.044 C 
ATOM      6  C   UNL     1      34.437 -19.093 -21.985  0.00  0.00    -0.044 C 
ATOM      7  H   UNL     1      35.969 -21.253 -21.919  0.00  0.00    -0.080 HD
ENDROOT
BRANCH   2   8
ATOM      8  N   UNL     1      35.594 -17.018 -22.648  0.00  0.00    +0.389 N 
ATOM      9  H   UNL     1      36.503 -17.042 -23.111  0.00  0.00    -0.084 HD
ATOM     10  H   UNL     1      35.459 -16.123 -22.179  0.00  0.00    -0.084 HD
BRANCH   8  11
ATOM     11  C   UNL     1      34.546 -17.187 -23.643  0.00  0.00    -0.032 C 
BRANCH  11  16
ATOM     12  O   UNL     1      34.184 -12.345 -23.783  0.00  0.00    -0.467 OA
ATOM     13  O   UNL     1      33.373 -12.586 -26.533  0.00  0.00    -0.453 OA
ATOM     14  N   UNL     1      33.905 -15.999 -25.671  0.00  0.00    -0.151 NA
ATOM     15  N   UNL     1      33.624 -14.866 -26.372  0.00  0.00    -0.107 NA
ATOM     16  C   UNL     1      34.253 -15.902 -24.372  0.00  0.00    +0.062 C 
ATOM     17  C   UNL     1      34.351 -14.695 -23.710  0.00  0.00    +0.056 C 
ATOM     18  C   UNL     1      34.076 -13.544 -24.429  0.00  0.00    +0.194 C 
ATOM     19  C   UNL     1      33.698 -13.668 -25.754  0.00  0.00    +0.278 C 
ATOM     20  C   UNL     1      34.186 -11.244 -24.697  0.00  0.00    +0.253 C 
ATOM     21  C   UNL     1      33.103 -11.426 -25.742  0.00  0.00    +0.254 C 
ENDBRANCH  11  16
ENDBRANCH   8  11
ENDBRANCH   2   8
BRANCH   1  22
ATOM     22  C   UNL     1      35.746 -22.071 -20.070  0.00  0.00    -0.071 C 
BRANCH  22  26
ATOM     23  F   UNL     1      32.548 -21.816 -19.369  0.00  0.00    -0.204 F 
ATOM     24  O   UNL     1      38.074 -23.299 -15.375  0.00  0.00    -0.270 OA
ATOM     25  N   UNL     1      36.196 -22.854 -16.650  0.00  0.00    -0.255 N 
ATOM     26  C   UNL     1      35.513 -21.630 -18.632  0.00  0.00    +0.025 C 
ATOM     27  C   UNL     1      36.719 -21.983 -17.711  0.00  0.00    +0.101 C 
ATOM     28  C   UNL     1      34.381 -22.367 -17.972  0.00  0.00    +0.018 C 
ATOM     29  C   UNL     1      34.835 -23.037 -16.850  0.00  0.00    +0.052 C 
ATOM     30  C   UNL     1      34.045 -23.807 -16.019  0.00  0.00    +0.014 C 
ATOM     31  C   UNL     1      33.041 -22.453 -18.300  0.00  0.00    +0.137 C 
ATOM     32  C   UNL     1      36.873 -23.429 -15.598  0.00  0.00    +0.253 C 
ATOM     33  C   UNL     1      32.695 -23.901 -16.346  0.00  0.00    +0.004 C 
ATOM     34  C   UNL     1      32.200 -23.225 -17.481  0.00  0.00    +0.029 C 
ATOM     35  C   UNL     1      34.707 -24.442 -14.884  0.00  0.00    +0.006 C 
ATOM     36  C   UNL     1      36.024 -24.269 -14.684  0.00  0.00    +0.058 C 
ENDBRANCH  22  26
ENDBRANCH   1  22
TORSDOF 5
ENDMDL
MODEL 8
REMARK VINA RESULT:     -11.1      2.511      3.755
REMARK  Name = 119057475
REMARK  5 active torsions:
REMARK  status: ('A' for Active; 'I' for Inactive)
REMARK    1  A    between atoms: N_1  and  C_22
REMARK    2  A    between atoms: C_2  and  N_8
REMARK    3  A    between atoms: N_8  and  C_11
REMARK    4  A    between atoms: C_11  and  C_16
REMARK    5  A    between atoms: C_22  and  C_26
REMARK                            x       y       z     vdW  Elec       q    Type
REMARK                         _______ _______ _______ _____ _____    ______ ____
ROOT
ATOM      1  N   UNL     1      33.380 -13.185 -22.703  0.00  0.00    +0.387 N 
ATOM      2  C   UNL     1      34.387 -15.887 -23.201  0.00  0.00    -0.066 C 
ATOM      3  C   UNL     1      32.959 -13.927 -23.899  0.00  0.00    -0.079 C 
ATOM      4  C   UNL     1      33.656 -14.095 -21.582  0.00  0.00    -0.079 C 
ATOM      5  C   UNL     1      34.036 -14.925 -24.337  0.00  0.00    -0.044 C 
ATOM      6  C   UNL     1      34.755 -15.098 -21.941  0.00  0.00    -0.044 C 
ATOM      7  H   UNL     1      34.245 -12.693 -22.927  0.00  0.00    -0.080 HD
ENDROOT
BRANCH   2   8
ATOM      8  N   UNL     1      35.480 -16.770 -23.604  0.00  0.00    +0.389 N 
ATOM      9  H   UNL     1      36.239 -16.692 -22.926  0.00  0.00    -0.084 HD
ATOM     10  H   UNL     1      35.801 -16.490 -24.531  0.00  0.00    -0.084 HD
BRANCH   8  11
ATOM     11  C   UNL     1      35.033 -18.153 -23.664  0.00  0.00    -0.032 C 
BRANCH  11  16
ATOM     12  O   UNL     1      34.225 -21.465 -20.204  0.00  0.00    -0.467 OA
ATOM     13  O   UNL     1      36.850 -20.886 -19.178  0.00  0.00    -0.453 OA
ATOM     14  N   UNL     1      36.710 -18.697 -21.983  0.00  0.00    -0.151 NA
ATOM     15  N   UNL     1      37.147 -19.375 -20.886  0.00  0.00    -0.107 NA
ATOM     16  C   UNL     1      35.468 -18.935 -22.453  0.00  0.00    +0.062 C 
ATOM     17  C   UNL     1      34.611 -19.851 -21.878  0.00  0.00    +0.056 C 
ATOM     18  C   UNL     1      35.064 -20.548 -20.770  0.00  0.00    +0.194 C 
ATOM     19  C   UNL     1      36.332 -20.271 -20.290  0.00  0.00    +0.278 C 
ATOM     20  C   UNL     1      34.912 -22.323 -19.287  0.00  0.00    +0.253 C 
ATOM     21  C   UNL     1      35.830 -21.510 -18.395  0.00  0.00    +0.254 C 
ENDBRANCH  11  16
ENDBRANCH   8  11
ENDBRANCH   2   8
BRANCH   1  22
ATOM     22  C   UNL     1      32.365 -12.202 -22.326  0.00  0.00    -0.071 C 
BRANCH  22  26
ATOM     23  F   UNL     1      30.284  -9.837 -21.401  0.00  0.00    -0.204 F 
ATOM     24  O   UNL     1      35.929  -9.712 -25.501  0.00  0.00    -0.270 OA
ATOM     25  N   UNL     1      34.073  -9.676 -24.120  0.00  0.00    -0.255 N 
ATOM     26  C   UNL     1      32.255 -11.101 -23.371  0.00  0.00    +0.025 C 
ATOM     27  C   UNL     1      33.521 -11.028 -24.277  0.00  0.00    +0.101 C 
ATOM     28  C   UNL     1      32.217  -9.724 -22.767  0.00  0.00    +0.018 C 
ATOM     29  C   UNL     1      33.273  -8.965 -23.237  0.00  0.00    +0.052 C 
ATOM     30  C   UNL     1      33.522  -7.655 -22.878  0.00  0.00    +0.014 C 
ATOM     31  C   UNL     1      31.328  -9.150 -21.879  0.00  0.00    +0.137 C 
ATOM     32  C   UNL     1      35.188  -9.129 -24.714  0.00  0.00    +0.253 C 
ATOM     33  C   UNL     1      32.633  -7.071 -21.980  0.00  0.00    +0.004 C 
ATOM     34  C   UNL     1      31.543  -7.817 -21.486  0.00  0.00    +0.029 C 
ATOM     35  C   UNL     1      34.691  -7.018 -23.477  0.00  0.00    +0.006 C 
ATOM     36  C   UNL     1      35.470  -7.701 -24.332  0.00  0.00    +0.058 C 
ENDBRANCH  22  26
ENDBRANCH   1  22
TORSDOF 5
ENDMDL
MODEL 9
REMARK VINA RESULT:     -10.7      3.237      5.256
REMARK  Name = 119057475
REMARK  5 active torsions:
REMARK  status: ('A' for Active; 'I' for Inactive)
REMARK    1  A    between atoms: N_1  and  C_22
REMARK    2  A    between atoms: C_2  and  N_8
REMARK    3  A    between atoms: N_8  and  C_11
REMARK    4  A    between atoms: C_11  and  C_16
REMARK    5  A    between atoms: C_22  and  C_26
REMARK                            x       y       z     vdW  Elec       q    Type
REMARK                         _______ _______ _______ _____ _____    ______ ____
ROOT
ATOM      1  N   UNL     1      35.902 -18.978 -22.676  0.00  0.00    +0.387 N 
ATOM      2  C   UNL     1      35.397 -20.449 -20.198  0.00  0.00    -0.066 C 
ATOM      3  C   UNL     1      34.527 -19.289 -22.262  0.00  0.00    -0.079 C 
ATOM      4  C   UNL     1      36.780 -18.798 -21.511  0.00  0.00    -0.079 C 
ATOM      5  C   UNL     1      34.479 -20.565 -21.417  0.00  0.00    -0.044 C 
ATOM      6  C   UNL     1      36.809 -20.057 -20.641  0.00  0.00    -0.044 C 
ATOM      7  H   UNL     1      36.254 -19.769 -23.215  0.00  0.00    -0.080 HD
ENDROOT
BRANCH   2   8
ATOM      8  N   UNL     1      35.412 -21.707 -19.455  0.00  0.00    +0.389 N 
ATOM      9  H   UNL     1      35.510 -22.482 -20.112  0.00  0.00    -0.084 HD
ATOM     10  H   UNL     1      34.538 -21.792 -18.936  0.00  0.00    -0.084 HD
BRANCH   8  11
ATOM     11  C   UNL     1      36.519 -21.738 -18.511  0.00  0.00    -0.032 C 
BRANCH  11  16
ATOM     12  O   UNL     1      37.476 -23.102 -13.949  0.00  0.00    -0.467 OA
ATOM     13  O   UNL     1      34.977 -24.529 -13.959  0.00  0.00    -0.453 OA
ATOM     14  N   UNL     1      34.971 -23.109 -17.224  0.00  0.00    -0.151 NA
ATOM     15  N   UNL     1      34.600 -23.786 -16.102  0.00  0.00    -0.107 NA
ATOM     16  C   UNL     1      36.156 -22.465 -17.244  0.00  0.00    +0.062 C 
ATOM     17  C   UNL     1      37.019 -22.447 -16.166  0.00  0.00    +0.056 C 
ATOM     18  C   UNL     1      36.633 -23.127 -15.023  0.00  0.00    +0.194 C 
ATOM     19  C   UNL     1      35.424 -23.801 -15.033  0.00  0.00    +0.278 C 
ATOM     20  C   UNL     1      36.833 -23.561 -12.755  0.00  0.00    +0.253 C 
ATOM     21  C   UNL     1      36.032 -24.817 -13.038  0.00  0.00    +0.254 C 
ENDBRANCH  11  16
ENDBRANCH   8  11
ENDBRANCH   2   8
BRANCH   1  22
ATOM     22  C   UNL     1      35.925 -17.787 -23.524  0.00  0.00    -0.071 C 
BRANCH  22  26
ATOM     23  F   UNL     1      34.832 -16.802 -20.588  0.00  0.00    -0.204 F 
ATOM     24  O   UNL     1      33.583 -14.447 -27.037  0.00  0.00    -0.270 OA
ATOM     25  N   UNL     1      33.986 -15.152 -24.871  0.00  0.00    -0.255 N 
ATOM     26  C   UNL     1      34.544 -17.153 -23.615  0.00  0.00    +0.025 C 
ATOM     27  C   UNL     1      34.255 -16.586 -25.037  0.00  0.00    +0.101 C 
ATOM     28  C   UNL     1      34.404 -15.931 -22.750  0.00  0.00    +0.018 C 
ATOM     29  C   UNL     1      34.082 -14.830 -23.524  0.00  0.00    +0.052 C 
ATOM     30  C   UNL     1      33.882 -13.556 -23.034  0.00  0.00    +0.014 C 
ATOM     31  C   UNL     1      34.532 -15.768 -21.384  0.00  0.00    +0.137 C 
ATOM     32  C   UNL     1      33.681 -14.217 -25.835  0.00  0.00    +0.253 C 
ATOM     33  C   UNL     1      34.012 -13.383 -21.660  0.00  0.00    +0.004 C 
ATOM     34  C   UNL     1      34.335 -14.486 -20.842  0.00  0.00    +0.029 C 
ATOM     35  C   UNL     1      33.553 -12.519 -24.009  0.00  0.00    +0.006 C 
ATOM     36  C   UNL     1      33.459 -12.823 -25.315  0.00  0.00    +0.058 C 
ENDBRANCH  22  26
ENDBRANCH   1  22
TORSDOF 5
ENDMDL
