MODEL 1
REMARK VINA RESULT:     -12.0      0.000      0.000
REMARK  Name = 4566
REMARK  6 active torsions:
REMARK  status: ('A' for Active; 'I' for Inactive)
REMARK    1  A    between atoms: N_4  and  C_14
REMARK    2  A    between atoms: C_6  and  O_26
REMARK    3  A    between atoms: C_15  and  S_20
REMARK    4  A    between atoms: S_20  and  N_23
REMARK    5  A    between atoms: O_26  and  C_27
REMARK    6  A    between atoms: C_27  and  C_28
REMARK                            x       y       z     vdW  Elec       q    Type
REMARK                         _______ _______ _______ _____ _____    ______ ____
ROOT
ATOM      1  N   UNL     1      32.224 -23.534 -15.969  0.00  0.00    -0.293 NA
ATOM      2  N   UNL     1      28.918 -22.652 -17.318  0.00  0.00    -0.266 NA
ATOM      3  N   UNL     1      30.368 -24.029 -14.464  0.00  0.00    -0.316 NA
ATOM      4  N   UNL     1      32.581 -24.487 -13.860  0.00  0.00    -0.238 N 
ATOM      5  N   UNL     1      28.188 -23.441 -15.366  0.00  0.00    -0.296 N 
ATOM      6  C   UNL     1      31.386 -23.048 -16.911  0.00  0.00    +0.288 C 
ATOM      7  C   UNL     1      30.034 -23.048 -16.637  0.00  0.00    +0.215 C 
ATOM      8  C   UNL     1      29.554 -23.535 -15.429  0.00  0.00    +0.196 C 
ATOM      9  C   UNL     1      31.670 -23.988 -14.819  0.00  0.00    +0.207 C 
ATOM     10  C   UNL     1      27.836 -22.907 -16.516  0.00  0.00    +0.164 C 
ATOM     11  H   UNL     1      28.894 -22.256 -18.219  0.00  0.00    +0.126 HD
ATOM     12  H   UNL     1      32.150 -24.811 -13.036  0.00  0.00    +0.166 HD
ATOM     13  H   UNL     1      27.600 -23.714 -14.625  0.00  0.00    +0.150 HD
ENDROOT
BRANCH   4  14
ATOM     14  C   UNL     1      33.981 -24.613 -13.854  0.00  0.00    +0.059 C 
ATOM     15  C   UNL     1      36.764 -24.861 -13.844  0.00  0.00    +0.122 C 
ATOM     16  C   UNL     1      34.717 -24.209 -12.738  0.00  0.00    +0.017 C 
ATOM     17  C   UNL     1      34.643 -25.142 -14.965  0.00  0.00    +0.017 C 
ATOM     18  C   UNL     1      36.107 -24.332 -12.732  0.00  0.00    +0.021 C 
ATOM     19  C   UNL     1      36.033 -25.265 -14.959  0.00  0.00    +0.021 C 
BRANCH  15  20
ATOM     20  S   UNL     1      38.504 -25.015 -13.836  0.00  0.00    +0.057 S 
ATOM     21  O   UNL     1      39.035 -24.177 -12.771  0.00  0.00    -0.153 OA
ATOM     22  O   UNL     1      38.842 -26.431 -13.880  0.00  0.00    -0.153 OA
BRANCH  20  23
ATOM     23  N   UNL     1      38.899 -24.312 -15.342  0.00  0.00    -0.203 NA
ATOM     24  H   UNL     1      38.764 -24.999 -16.084  0.00  0.00    +0.144 HD
ATOM     25  H   UNL     1      39.874 -24.012 -15.331  0.00  0.00    +0.144 HD
ENDBRANCH  20  23
ENDBRANCH  15  20
ENDBRANCH   4  14
BRANCH   6  26
ATOM     26  O   UNL     1      31.915 -22.578 -18.088  0.00  0.00    -0.453 OA
BRANCH  26  27
ATOM     27  C   UNL     1      33.262 -22.910 -18.366  0.00  0.00    +0.208 C 
BRANCH  27  28
ATOM     28  C   UNL     1      33.693 -22.167 -19.630  0.00  0.00    +0.044 C 
ATOM     29  C   UNL     1      32.737 -21.005 -19.929  0.00  0.00    +0.004 C 
ATOM     30  C   UNL     1      35.138 -21.666 -19.497  0.00  0.00    +0.004 C 
ATOM     31  C   UNL     1      33.177 -20.213 -21.158  0.00  0.00    +0.000 C 
ATOM     32  C   UNL     1      35.574 -20.873 -20.728  0.00  0.00    +0.000 C 
ATOM     33  C   UNL     1      34.616 -19.724 -21.026  0.00  0.00    +0.000 C 
ENDBRANCH  27  28
ENDBRANCH  26  27
ENDBRANCH   6  26
TORSDOF 6
ENDMDL
MODEL 2
REMARK VINA RESULT:     -11.9      1.314      1.799
REMARK  Name = 4566
REMARK  6 active torsions:
REMARK  status: ('A' for Active; 'I' for Inactive)
REMARK    1  A    between atoms: N_4  and  C_14
REMARK    2  A    between atoms: C_6  and  O_26
REMARK    3  A    between atoms: C_15  and  S_20
REMARK    4  A    between atoms: S_20  and  N_23
REMARK    5  A    between atoms: O_26  and  C_27
REMARK    6  A    between atoms: C_27  and  C_28
REMARK                            x       y       z     vdW  Elec       q    Type
REMARK                         _______ _______ _______ _____ _____    ______ ____
ROOT
ATOM      1  N   UNL     1      33.677 -23.975 -15.954  0.00  0.00    -0.293 NA
ATOM      2  N   UNL     1      30.238 -23.014 -16.836  0.00  0.00    -0.266 NA
ATOM      3  N   UNL     1      32.085 -24.166 -14.115  0.00  0.00    -0.316 NA
ATOM      4  N   UNL     1      34.342 -24.713 -13.834  0.00  0.00    -0.238 N 
ATOM      5  N   UNL     1      29.815 -23.528 -14.709  0.00  0.00    -0.296 N 
ATOM      6  C   UNL     1      32.715 -23.538 -16.797  0.00  0.00    +0.288 C 
ATOM      7  C   UNL     1      31.433 -23.411 -16.306  0.00  0.00    +0.215 C 
ATOM      8  C   UNL     1      31.144 -23.726 -14.984  0.00  0.00    +0.196 C 
ATOM      9  C   UNL     1      33.307 -24.258 -14.682  0.00  0.00    +0.207 C 
ATOM     10  C   UNL     1      29.299 -23.101 -15.841  0.00  0.00    +0.164 C 
ATOM     11  H   UNL     1      30.080 -22.720 -17.762  0.00  0.00    +0.126 HD
ATOM     12  H   UNL     1      34.044 -24.911 -12.916  0.00  0.00    +0.166 HD
ATOM     13  H   UNL     1      29.351 -23.674 -13.853  0.00  0.00    +0.150 HD
ENDROOT
BRANCH   4  14
ATOM     14  C   UNL     1      35.714 -24.937 -14.043  0.00  0.00    +0.059 C 
ATOM     15  C   UNL     1      38.441 -25.381 -14.458  0.00  0.00    +0.122 C 
ATOM     16  C   UNL     1      36.143 -26.070 -14.737  0.00  0.00    +0.017 C 
ATOM     17  C   UNL     1      36.656 -24.026 -13.557  0.00  0.00    +0.017 C 
ATOM     18  C   UNL     1      37.504 -26.293 -14.945  0.00  0.00    +0.021 C 
ATOM     19  C   UNL     1      38.018 -24.249 -13.764  0.00  0.00    +0.021 C 
BRANCH  15  20
ATOM     20  S   UNL     1      40.146 -25.660 -14.717  0.00  0.00    +0.057 S 
ATOM     21  O   UNL     1      40.851 -24.399 -14.537  0.00  0.00    -0.153 OA
ATOM     22  O   UNL     1      40.545 -26.829 -13.944  0.00  0.00    -0.153 OA
BRANCH  20  23
ATOM     23  N   UNL     1      40.160 -26.070 -16.375  0.00  0.00    -0.203 NA
ATOM     24  H   UNL     1      39.840 -27.031 -16.491  0.00  0.00    +0.144 HD
ATOM     25  H   UNL     1      41.110 -25.982 -16.738  0.00  0.00    +0.144 HD
ENDBRANCH  20  23
ENDBRANCH  15  20
ENDBRANCH   4  14
BRANCH   6  26
ATOM     26  O   UNL     1      33.057 -23.241 -18.093  0.00  0.00    -0.453 OA
BRANCH  26  27
ATOM     27  C   UNL     1      34.357 -22.728 -18.315  0.00  0.00    +0.208 C 
BRANCH  27  28
ATOM     28  C   UNL     1      34.365 -21.992 -19.654  0.00  0.00    +0.044 C 
ATOM     29  C   UNL     1      33.099 -21.139 -19.812  0.00  0.00    +0.004 C 
ATOM     30  C   UNL     1      35.627 -21.128 -19.789  0.00  0.00    +0.004 C 
ATOM     31  C   UNL     1      33.110 -20.352 -21.120  0.00  0.00    +0.000 C 
ATOM     32  C   UNL     1      35.632 -20.340 -21.098  0.00  0.00    +0.000 C 
ATOM     33  C   UNL     1      34.368 -19.500 -21.255  0.00  0.00    +0.000 C 
ENDBRANCH  27  28
ENDBRANCH  26  27
ENDBRANCH   6  26
TORSDOF 6
ENDMDL
MODEL 3
REMARK VINA RESULT:     -11.3      3.034      6.773
REMARK  Name = 4566
REMARK  6 active torsions:
REMARK  status: ('A' for Active; 'I' for Inactive)
REMARK    1  A    between atoms: N_4  and  C_14
REMARK    2  A    between atoms: C_6  and  O_26
REMARK    3  A    between atoms: C_15  and  S_20
REMARK    4  A    between atoms: S_20  and  N_23
REMARK    5  A    between atoms: O_26  and  C_27
REMARK    6  A    between atoms: C_27  and  C_28
REMARK                            x       y       z     vdW  Elec       q    Type
REMARK                         _______ _______ _______ _____ _____    ______ ____
ROOT
ATOM      1  N   UNL     1      34.401 -23.772 -15.765  0.00  0.00    -0.293 NA
ATOM      2  N   UNL     1      38.063 -23.980 -15.497  0.00  0.00    -0.266 NA
ATOM      3  N   UNL     1      35.189 -25.052 -13.844  0.00  0.00    -0.316 NA
ATOM      4  N   UNL     1      32.905 -24.759 -14.258  0.00  0.00    -0.238 N 
ATOM      5  N   UNL     1      37.611 -25.184 -13.677  0.00  0.00    -0.296 N 
ATOM      6  C   UNL     1      35.665 -23.515 -16.167  0.00  0.00    +0.288 C 
ATOM      7  C   UNL     1      36.700 -24.026 -15.411  0.00  0.00    +0.215 C 
ATOM      8  C   UNL     1      36.444 -24.778 -14.273  0.00  0.00    +0.196 C 
ATOM      9  C   UNL     1      34.243 -24.515 -14.644  0.00  0.00    +0.207 C 
ATOM     10  C   UNL     1      38.564 -24.688 -14.436  0.00  0.00    +0.164 C 
ATOM     11  H   UNL     1      38.589 -23.523 -16.193  0.00  0.00    +0.126 HD
ATOM     12  H   UNL     1      32.821 -25.300 -13.439  0.00  0.00    +0.166 HD
ATOM     13  H   UNL     1      37.712 -25.725 -12.860  0.00  0.00    +0.150 HD
ENDROOT
BRANCH   4  14
ATOM     14  C   UNL     1      31.671 -24.381 -14.814  0.00  0.00    +0.059 C 
ATOM     15  C   UNL     1      29.219 -23.628 -15.923  0.00  0.00    +0.122 C 
ATOM     16  C   UNL     1      30.540 -25.178 -14.623  0.00  0.00    +0.017 C 
ATOM     17  C   UNL     1      31.570 -23.205 -15.563  0.00  0.00    +0.017 C 
ATOM     18  C   UNL     1      29.316 -24.803 -15.176  0.00  0.00    +0.021 C 
ATOM     19  C   UNL     1      30.345 -22.830 -16.116  0.00  0.00    +0.021 C 
BRANCH  15  20
ATOM     20  S   UNL     1      27.686 -23.158 -16.615  0.00  0.00    +0.057 S 
ATOM     21  O   UNL     1      26.691 -23.130 -15.553  0.00  0.00    -0.153 OA
ATOM     22  O   UNL     1      27.896 -21.978 -17.443  0.00  0.00    -0.153 OA
BRANCH  20  23
ATOM     23  N   UNL     1      27.368 -24.492 -17.635  0.00  0.00    -0.203 NA
ATOM     24  H   UNL     1      27.727 -25.343 -17.204  0.00  0.00    +0.144 HD
ATOM     25  H   UNL     1      27.825 -24.348 -18.535  0.00  0.00    +0.144 HD
ENDBRANCH  20  23
ENDBRANCH  15  20
ENDBRANCH   4  14
BRANCH   6  26
ATOM     26  O   UNL     1      35.860 -22.767 -17.301  0.00  0.00    -0.453 OA
BRANCH  26  27
ATOM     27  C   UNL     1      34.867 -22.850 -18.306  0.00  0.00    +0.208 C 
BRANCH  27  28
ATOM     28  C   UNL     1      34.855 -21.536 -19.085  0.00  0.00    +0.044 C 
ATOM     29  C   UNL     1      36.133 -21.389 -19.921  0.00  0.00    +0.004 C 
ATOM     30  C   UNL     1      33.607 -21.444 -19.973  0.00  0.00    +0.004 C 
ATOM     31  C   UNL     1      36.121 -20.107 -20.751  0.00  0.00    +0.000 C 
ATOM     32  C   UNL     1      33.599 -20.161 -20.803  0.00  0.00    +0.000 C 
ATOM     33  C   UNL     1      34.875 -20.016 -21.627  0.00  0.00    +0.000 C 
ENDBRANCH  27  28
ENDBRANCH  26  27
ENDBRANCH   6  26
TORSDOF 6
ENDMDL
MODEL 4
REMARK VINA RESULT:     -11.3      2.943      6.786
REMARK  Name = 4566
REMARK  6 active torsions:
REMARK  status: ('A' for Active; 'I' for Inactive)
REMARK    1  A    between atoms: N_4  and  C_14
REMARK    2  A    between atoms: C_6  and  O_26
REMARK    3  A    between atoms: C_15  and  S_20
REMARK    4  A    between atoms: S_20  and  N_23
REMARK    5  A    between atoms: O_26  and  C_27
REMARK    6  A    between atoms: C_27  and  C_28
REMARK                            x       y       z     vdW  Elec       q    Type
REMARK                         _______ _______ _______ _____ _____    ______ ____
ROOT
ATOM      1  N   UNL     1      34.518 -24.058 -14.627  0.00  0.00    -0.293 NA
ATOM      2  N   UNL     1      38.060 -24.301 -13.669  0.00  0.00    -0.266 NA
ATOM      3  N   UNL     1      34.882 -24.477 -12.251  0.00  0.00    -0.316 NA
ATOM      4  N   UNL     1      32.726 -24.278 -13.135  0.00  0.00    -0.238 N 
ATOM      5  N   UNL     1      37.227 -24.637 -11.629  0.00  0.00    -0.296 N 
ATOM      6  C   UNL     1      35.847 -24.044 -14.872  0.00  0.00    +0.288 C 
ATOM      7  C   UNL     1      36.703 -24.247 -13.809  0.00  0.00    +0.215 C 
ATOM      8  C   UNL     1      36.208 -24.458 -12.529  0.00  0.00    +0.196 C 
ATOM      9  C   UNL     1      34.123 -24.271 -13.348  0.00  0.00    +0.207 C 
ATOM     10  C   UNL     1      38.326 -24.537 -12.345  0.00  0.00    +0.164 C 
ATOM     11  H   UNL     1      38.726 -24.191 -14.386  0.00  0.00    +0.126 HD
ATOM     12  H   UNL     1      32.468 -24.433 -12.197  0.00  0.00    +0.166 HD
ATOM     13  H   UNL     1      37.152 -24.803 -10.661  0.00  0.00    +0.150 HD
ENDROOT
BRANCH   4  14
ATOM     14  C   UNL     1      31.631 -24.104 -14.001  0.00  0.00    +0.059 C 
ATOM     15  C   UNL     1      29.454 -23.761 -15.718  0.00  0.00    +0.122 C 
ATOM     16  C   UNL     1      31.421 -22.875 -14.630  0.00  0.00    +0.017 C 
ATOM     17  C   UNL     1      30.747 -25.161 -14.234  0.00  0.00    +0.017 C 
ATOM     18  C   UNL     1      30.334 -22.703 -15.488  0.00  0.00    +0.021 C 
ATOM     19  C   UNL     1      29.661 -24.989 -15.092  0.00  0.00    +0.021 C 
BRANCH  15  20
ATOM     20  S   UNL     1      28.093 -23.546 -16.791  0.00  0.00    +0.057 S 
ATOM     21  O   UNL     1      28.401 -22.460 -17.712  0.00  0.00    -0.153 OA
ATOM     22  O   UNL     1      27.706 -24.849 -17.313  0.00  0.00    -0.153 OA
BRANCH  20  23
ATOM     23  N   UNL     1      26.895 -23.017 -15.695  0.00  0.00    -0.203 NA
ATOM     24  H   UNL     1      27.278 -22.283 -15.099  0.00  0.00    +0.144 HD
ATOM     25  H   UNL     1      26.594 -23.801 -15.116  0.00  0.00    +0.144 HD
ENDBRANCH  20  23
ENDBRANCH  15  20
ENDBRANCH   4  14
BRANCH   6  26
ATOM     26  O   UNL     1      36.281 -23.832 -16.157  0.00  0.00    -0.453 OA
BRANCH  26  27
ATOM     27  C   UNL     1      36.266 -22.498 -16.629  0.00  0.00    +0.208 C 
BRANCH  27  28
ATOM     28  C   UNL     1      35.690 -22.492 -18.045  0.00  0.00    +0.044 C 
ATOM     29  C   UNL     1      34.157 -22.445 -18.007  0.00  0.00    +0.004 C 
ATOM     30  C   UNL     1      36.254 -21.316 -18.853  0.00  0.00    +0.004 C 
ATOM     31  C   UNL     1      33.559 -22.385 -19.411  0.00  0.00    +0.000 C 
ATOM     32  C   UNL     1      35.652 -21.257 -20.256  0.00  0.00    +0.000 C 
ATOM     33  C   UNL     1      34.128 -21.219 -20.214  0.00  0.00    +0.000 C 
ENDBRANCH  27  28
ENDBRANCH  26  27
ENDBRANCH   6  26
TORSDOF 6
ENDMDL
MODEL 5
REMARK VINA RESULT:     -10.9      3.531      7.191
REMARK  Name = 4566
REMARK  6 active torsions:
REMARK  status: ('A' for Active; 'I' for Inactive)
REMARK    1  A    between atoms: N_4  and  C_14
REMARK    2  A    between atoms: C_6  and  O_26
REMARK    3  A    between atoms: C_15  and  S_20
REMARK    4  A    between atoms: S_20  and  N_23
REMARK    5  A    between atoms: O_26  and  C_27
REMARK    6  A    between atoms: C_27  and  C_28
REMARK                            x       y       z     vdW  Elec       q    Type
REMARK                         _______ _______ _______ _____ _____    ______ ____
ROOT
ATOM      1  N   UNL     1      33.633 -22.818 -16.645  0.00  0.00    -0.293 NA
ATOM      2  N   UNL     1      32.591 -24.760 -13.701  0.00  0.00    -0.266 NA
ATOM      3  N   UNL     1      31.453 -23.888 -16.877  0.00  0.00    -0.316 NA
ATOM      4  N   UNL     1      32.362 -22.591 -18.598  0.00  0.00    -0.238 N 
ATOM      5  N   UNL     1      30.775 -25.171 -14.925  0.00  0.00    -0.296 N 
ATOM      6  C   UNL     1      33.792 -23.315 -15.398  0.00  0.00    +0.288 C 
ATOM      7  C   UNL     1      32.784 -24.102 -14.882  0.00  0.00    +0.215 C 
ATOM      8  C   UNL     1      31.642 -24.372 -15.625  0.00  0.00    +0.196 C 
ATOM      9  C   UNL     1      32.489 -23.131 -17.298  0.00  0.00    +0.207 C 
ATOM     10  C   UNL     1      31.374 -25.385 -13.774  0.00  0.00    +0.164 C 
ATOM     11  H   UNL     1      33.212 -24.781 -12.937  0.00  0.00    +0.126 HD
ATOM     12  H   UNL     1      31.520 -22.835 -19.048  0.00  0.00    +0.166 HD
ATOM     13  H   UNL     1      29.897 -25.507 -15.219  0.00  0.00    +0.150 HD
ENDROOT
BRANCH   4  14
ATOM     14  C   UNL     1      33.202 -21.774 -19.374  0.00  0.00    +0.059 C 
ATOM     15  C   UNL     1      34.870 -20.147 -20.916  0.00  0.00    +0.122 C 
ATOM     16  C   UNL     1      34.587 -21.946 -19.330  0.00  0.00    +0.017 C 
ATOM     17  C   UNL     1      32.654 -20.783 -20.194  0.00  0.00    +0.017 C 
ATOM     18  C   UNL     1      35.421 -21.135 -20.099  0.00  0.00    +0.021 C 
ATOM     19  C   UNL     1      33.488 -19.971 -20.964  0.00  0.00    +0.021 C 
BRANCH  15  20
ATOM     20  S   UNL     1      35.913 -19.130 -21.879  0.00  0.00    +0.057 S 
ATOM     21  O   UNL     1      37.281 -19.297 -21.408  0.00  0.00    -0.153 OA
ATOM     22  O   UNL     1      35.600 -19.347 -23.285  0.00  0.00    -0.153 OA
BRANCH  20  23
ATOM     23  N   UNL     1      35.360 -17.577 -21.429  0.00  0.00    -0.203 NA
ATOM     24  H   UNL     1      34.909 -17.628 -20.516  0.00  0.00    +0.144 HD
ATOM     25  H   UNL     1      34.689 -17.242 -22.121  0.00  0.00    +0.144 HD
ENDBRANCH  20  23
ENDBRANCH  15  20
ENDBRANCH   4  14
BRANCH   6  26
ATOM     26  O   UNL     1      34.941 -23.017 -14.709  0.00  0.00    -0.453 OA
BRANCH  26  27
ATOM     27  C   UNL     1      36.164 -23.142 -15.411  0.00  0.00    +0.208 C 
BRANCH  27  28
ATOM     28  C   UNL     1      37.058 -24.123 -14.655  0.00  0.00    +0.044 C 
ATOM     29  C   UNL     1      37.113 -23.769 -13.163  0.00  0.00    +0.004 C 
ATOM     30  C   UNL     1      36.573 -25.565 -14.858  0.00  0.00    +0.004 C 
ATOM     31  C   UNL     1      37.959 -24.767 -12.376  0.00  0.00    +0.000 C 
ATOM     32  C   UNL     1      37.421 -26.560 -14.068  0.00  0.00    +0.000 C 
ATOM     33  C   UNL     1      37.478 -26.200 -12.586  0.00  0.00    +0.000 C 
ENDBRANCH  27  28
ENDBRANCH  26  27
ENDBRANCH   6  26
TORSDOF 6
ENDMDL
MODEL 6
REMARK VINA RESULT:     -10.7      2.735      5.556
REMARK  Name = 4566
REMARK  6 active torsions:
REMARK  status: ('A' for Active; 'I' for Inactive)
REMARK    1  A    between atoms: N_4  and  C_14
REMARK    2  A    between atoms: C_6  and  O_26
REMARK    3  A    between atoms: C_15  and  S_20
REMARK    4  A    between atoms: S_20  and  N_23
REMARK    5  A    between atoms: O_26  and  C_27
REMARK    6  A    between atoms: C_27  and  C_28
REMARK                            x       y       z     vdW  Elec       q    Type
REMARK                         _______ _______ _______ _____ _____    ______ ____
ROOT
ATOM      1  N   UNL     1      34.865 -22.309 -18.013  0.00  0.00    -0.293 NA
ATOM      2  N   UNL     1      33.671 -20.709 -21.102  0.00  0.00    -0.266 NA
ATOM      3  N   UNL     1      36.551 -20.967 -19.157  0.00  0.00    -0.316 NA
ATOM      4  N   UNL     1      37.038 -22.098 -17.168  0.00  0.00    -0.238 N 
ATOM      5  N   UNL     1      35.751 -19.914 -21.198  0.00  0.00    -0.296 N 
ATOM      6  C   UNL     1      33.937 -22.021 -18.952  0.00  0.00    +0.288 C 
ATOM      7  C   UNL     1      34.309 -21.205 -20.000  0.00  0.00    +0.215 C 
ATOM      8  C   UNL     1      35.598 -20.697 -20.082  0.00  0.00    +0.196 C 
ATOM      9  C   UNL     1      36.098 -21.772 -18.172  0.00  0.00    +0.207 C 
ATOM     10  C   UNL     1      34.576 -19.942 -21.788  0.00  0.00    +0.164 C 
ATOM     11  H   UNL     1      32.734 -20.872 -21.356  0.00  0.00    +0.126 HD
ATOM     12  H   UNL     1      37.925 -21.692 -17.308  0.00  0.00    +0.166 HD
ATOM     13  H   UNL     1      36.561 -19.437 -21.491  0.00  0.00    +0.150 HD
ENDROOT
BRANCH   4  14
ATOM     14  C   UNL     1      36.955 -22.887 -16.007  0.00  0.00    +0.059 C 
ATOM     15  C   UNL     1      36.787 -24.456 -13.701  0.00  0.00    +0.122 C 
ATOM     16  C   UNL     1      37.926 -23.856 -15.746  0.00  0.00    +0.017 C 
ATOM     17  C   UNL     1      35.899 -22.706 -15.110  0.00  0.00    +0.017 C 
ATOM     18  C   UNL     1      37.844 -24.639 -14.594  0.00  0.00    +0.021 C 
ATOM     19  C   UNL     1      35.816 -23.490 -13.959  0.00  0.00    +0.021 C 
BRANCH  15  20
ATOM     20  S   UNL     1      36.683 -25.437 -12.260  0.00  0.00    +0.057 S 
ATOM     21  O   UNL     1      36.855 -26.832 -12.641  0.00  0.00    -0.153 OA
ATOM     22  O   UNL     1      37.544 -24.853 -11.241  0.00  0.00    -0.153 OA
BRANCH  20  23
ATOM     23  N   UNL     1      35.054 -25.184 -11.811  0.00  0.00    -0.203 NA
ATOM     24  H   UNL     1      34.445 -25.413 -12.597  0.00  0.00    +0.144 HD
ATOM     25  H   UNL     1      34.921 -24.206 -11.552  0.00  0.00    +0.144 HD
ENDBRANCH  20  23
ENDBRANCH  15  20
ENDBRANCH   4  14
BRANCH   6  26
ATOM     26  O   UNL     1      32.677 -22.551 -18.822  0.00  0.00    -0.453 OA
BRANCH  26  27
ATOM     27  C   UNL     1      32.522 -23.630 -17.919  0.00  0.00    +0.208 C 
BRANCH  27  28
ATOM     28  C   UNL     1      31.872 -23.102 -16.641  0.00  0.00    +0.044 C 
ATOM     29  C   UNL     1      30.346 -23.243 -16.710  0.00  0.00    +0.004 C 
ATOM     30  C   UNL     1      32.433 -23.825 -15.409  0.00  0.00    +0.004 C 
ATOM     31  C   UNL     1      29.676 -22.771 -15.422  0.00  0.00    +0.000 C 
ATOM     32  C   UNL     1      31.759 -23.352 -14.123  0.00  0.00    +0.000 C 
ATOM     33  C   UNL     1      30.241 -23.487 -14.199  0.00  0.00    +0.000 C 
ENDBRANCH  27  28
ENDBRANCH  26  27
ENDBRANCH   6  26
TORSDOF 6
ENDMDL
MODEL 7
REMARK VINA RESULT:      -9.7      3.652      7.706
REMARK  Name = 4566
REMARK  6 active torsions:
REMARK  status: ('A' for Active; 'I' for Inactive)
REMARK    1  A    between atoms: N_4  and  C_14
REMARK    2  A    between atoms: C_6  and  O_26
REMARK    3  A    between atoms: C_15  and  S_20
REMARK    4  A    between atoms: S_20  and  N_23
REMARK    5  A    between atoms: O_26  and  C_27
REMARK    6  A    between atoms: C_27  and  C_28
REMARK                            x       y       z     vdW  Elec       q    Type
REMARK                         _______ _______ _______ _____ _____    ______ ____
ROOT
ATOM      1  N   UNL     1      34.925 -23.044 -16.655  0.00  0.00    -0.293 NA
ATOM      2  N   UNL     1      34.947 -25.009 -13.546  0.00  0.00    -0.266 NA
ATOM      3  N   UNL     1      37.146 -23.381 -15.705  0.00  0.00    -0.316 NA
ATOM      4  N   UNL     1      36.839 -22.167 -17.680  0.00  0.00    -0.238 N 
ATOM      5  N   UNL     1      37.149 -24.681 -13.649  0.00  0.00    -0.296 N 
ATOM      6  C   UNL     1      34.344 -23.745 -15.657  0.00  0.00    +0.288 C 
ATOM      7  C   UNL     1      35.160 -24.269 -14.675  0.00  0.00    +0.215 C 
ATOM      8  C   UNL     1      36.535 -24.079 -14.717  0.00  0.00    +0.196 C 
ATOM      9  C   UNL     1      36.272 -22.907 -16.617  0.00  0.00    +0.207 C 
ATOM     10  C   UNL     1      36.169 -25.230 -12.966  0.00  0.00    +0.164 C 
ATOM     11  H   UNL     1      34.077 -25.325 -13.211  0.00  0.00    +0.126 HD
ATOM     12  H   UNL     1      37.819 -22.084 -17.627  0.00  0.00    +0.166 HD
ATOM     13  H   UNL     1      38.112 -24.698 -13.441  0.00  0.00    +0.150 HD
ENDROOT
BRANCH   4  14
ATOM     14  C   UNL     1      36.278 -21.525 -18.798  0.00  0.00    +0.059 C 
ATOM     15  C   UNL     1      35.164 -20.251 -21.021  0.00  0.00    +0.122 C 
ATOM     16  C   UNL     1      34.984 -21.845 -19.215  0.00  0.00    +0.017 C 
ATOM     17  C   UNL     1      37.013 -20.565 -19.498  0.00  0.00    +0.017 C 
ATOM     18  C   UNL     1      34.427 -21.209 -20.325  0.00  0.00    +0.021 C 
ATOM     19  C   UNL     1      36.456 -19.929 -20.608  0.00  0.00    +0.021 C 
BRANCH  15  20
ATOM     20  S   UNL     1      34.468 -19.455 -22.411  0.00  0.00    +0.057 S 
ATOM     21  O   UNL     1      35.173 -19.909 -23.602  0.00  0.00    -0.153 OA
ATOM     22  O   UNL     1      33.018 -19.581 -22.337  0.00  0.00    -0.153 OA
BRANCH  20  23
ATOM     23  N   UNL     1      34.893 -17.830 -22.103  0.00  0.00    -0.203 NA
ATOM     24  H   UNL     1      34.864 -17.300 -22.974  0.00  0.00    +0.144 HD
ATOM     25  H   UNL     1      35.836 -17.793 -21.714  0.00  0.00    +0.144 HD
ENDBRANCH  20  23
ENDBRANCH  15  20
ENDBRANCH   4  14
BRANCH   6  26
ATOM     26  O   UNL     1      32.980 -23.902 -15.664  0.00  0.00    -0.453 OA
BRANCH  26  27
ATOM     27  C   UNL     1      32.242 -23.158 -14.713  0.00  0.00    +0.208 C 
BRANCH  27  28
ATOM     28  C   UNL     1      30.754 -23.383 -14.973  0.00  0.00    +0.044 C 
ATOM     29  C   UNL     1      30.372 -22.918 -16.384  0.00  0.00    +0.004 C 
ATOM     30  C   UNL     1      30.384 -24.858 -14.764  0.00  0.00    +0.004 C 
ATOM     31  C   UNL     1      28.899 -23.182 -16.687  0.00  0.00    +0.000 C 
ATOM     32  C   UNL     1      28.911 -25.118 -15.070  0.00  0.00    +0.000 C 
ATOM     33  C   UNL     1      28.534 -24.647 -16.471  0.00  0.00    +0.000 C 
ENDBRANCH  27  28
ENDBRANCH  26  27
ENDBRANCH   6  26
TORSDOF 6
ENDMDL
