MODEL 1
REMARK VINA RESULT:     -12.4      0.000      0.000
REMARK  Name = 448890
REMARK  6 active torsions:
REMARK  status: ('A' for Active; 'I' for Inactive)
REMARK    1  A    between atoms: C_1  and  C_2
REMARK    2  A    between atoms: C_1  and  C_17
REMARK    3  A    between atoms: C_2  and  C_3
REMARK    4  A    between atoms: C_3  and  N_4
REMARK    5  A    between atoms: C_8  and  C_11
REMARK    6  A    between atoms: C_17  and  N_21
REMARK                            x       y       z     vdW  Elec       q    Type
REMARK                         _______ _______ _______ _____ _____    ______ ____
ROOT
ATOM      1  C   UNL     1      33.329 -14.312 -25.191  0.00  0.00    +0.022 C 
ENDROOT
BRANCH   1   2
ATOM      2  C   UNL     1      33.673 -15.805 -25.167  0.00  0.00    -0.021 C 
BRANCH   2   3
ATOM      3  C   UNL     1      35.133 -16.026 -24.771  0.00  0.00    -0.077 C 
BRANCH   3   4
ATOM      4  N   UNL     1      35.240 -17.148 -23.840  0.00  0.00    +0.390 N 
ATOM      5  C   UNL     1      34.970 -16.721 -22.464  0.00  0.00    -0.072 C 
ATOM      6  C   UNL     1      34.334 -18.239 -24.232  0.00  0.00    -0.051 C 
ATOM      7  C   UNL     1      35.253 -17.878 -21.494  0.00  0.00    +0.003 C 
ATOM      8  C   UNL     1      34.625 -19.182 -21.930  0.00  0.00    -0.031 C 
ATOM      9  C   UNL     1      34.204 -19.328 -23.202  0.00  0.00    -0.053 C 
ATOM     10  H   UNL     1      36.198 -17.497 -23.879  0.00  0.00    -0.079 HD
BRANCH   8  11
ATOM     11  C   UNL     1      34.497 -20.270 -20.932  0.00  0.00    -0.004 C 
ATOM     12  C   UNL     1      33.235 -20.672 -20.490  0.00  0.00    -0.000 C 
ATOM     13  C   UNL     1      35.640 -20.900 -20.432  0.00  0.00    -0.000 C 
ATOM     14  C   UNL     1      33.115 -21.697 -19.551  0.00  0.00    -0.000 C 
ATOM     15  C   UNL     1      35.520 -21.924 -19.493  0.00  0.00    -0.000 C 
ATOM     16  C   UNL     1      34.258 -22.323 -19.052  0.00  0.00    -0.000 C 
ENDBRANCH   8  11
ENDBRANCH   3   4
ENDBRANCH   2   3
ENDBRANCH   1   2
BRANCH   1  17
ATOM     17  C   UNL     1      34.175 -13.499 -24.216  0.00  0.00    +0.110 C 
BRANCH  17  21
ATOM     18  F   UNL     1      30.867  -9.271 -21.234  0.00  0.00    -0.204 F 
ATOM     19  O   UNL     1      34.660 -11.252 -25.840  0.00  0.00    -0.246 OA
ATOM     20  O   UNL     1      32.078  -8.457 -23.302  0.00  0.00    -0.267 OA
ATOM     21  N   UNL     1      33.619 -12.171 -23.969  0.00  0.00    -0.281 N 
ATOM     22  N   UNL     1      33.365  -9.892 -24.550  0.00  0.00    -0.274 N 
ATOM     23  C   UNL     1      32.769 -11.970 -22.838  0.00  0.00    +0.071 A 
ATOM     24  C   UNL     1      33.933 -11.128 -24.851  0.00  0.00    +0.330 A 
ATOM     25  C   UNL     1      32.226 -10.704 -22.585  0.00  0.00    +0.099 A 
ATOM     26  C   UNL     1      32.450 -13.012 -21.950  0.00  0.00    +0.018 C 
ATOM     27  C   UNL     1      32.533  -9.581 -23.489  0.00  0.00    +0.265 A 
ATOM     28  C   UNL     1      31.391 -10.480 -21.482  0.00  0.00    +0.146 C 
ATOM     29  C   UNL     1      31.617 -12.792 -20.850  0.00  0.00    +0.004 C 
ATOM     30  C   UNL     1      31.087 -11.527 -20.616  0.00  0.00    +0.030 C 
ATOM     31  H   UNL     1      33.581  -9.153 -25.164  0.00  0.00    +0.173 HD
ENDBRANCH  17  21
ENDBRANCH   1  17
TORSDOF 6
ENDMDL
MODEL 2
REMARK VINA RESULT:     -12.3      1.515      2.738
REMARK  Name = 448890
REMARK  6 active torsions:
REMARK  status: ('A' for Active; 'I' for Inactive)
REMARK    1  A    between atoms: C_1  and  C_2
REMARK    2  A    between atoms: C_1  and  C_17
REMARK    3  A    between atoms: C_2  and  C_3
REMARK    4  A    between atoms: C_3  and  N_4
REMARK    5  A    between atoms: C_8  and  C_11
REMARK    6  A    between atoms: C_17  and  N_21
REMARK                            x       y       z     vdW  Elec       q    Type
REMARK                         _______ _______ _______ _____ _____    ______ ____
ROOT
ATOM      1  C   UNL     1      33.306 -14.195 -25.106  0.00  0.00    +0.022 C 
ENDROOT
BRANCH   1   2
ATOM      2  C   UNL     1      33.600 -15.699 -25.100  0.00  0.00    -0.021 C 
BRANCH   2   3
ATOM      3  C   UNL     1      35.075 -15.970 -24.807  0.00  0.00    -0.077 C 
BRANCH   3   4
ATOM      4  N   UNL     1      35.209 -17.090 -23.878  0.00  0.00    +0.390 N 
ATOM      5  C   UNL     1      34.948 -16.668 -22.499  0.00  0.00    -0.072 C 
ATOM      6  C   UNL     1      34.315 -18.194 -24.261  0.00  0.00    -0.051 C 
ATOM      7  C   UNL     1      35.259 -17.821 -21.533  0.00  0.00    +0.003 C 
ATOM      8  C   UNL     1      34.644 -19.134 -21.963  0.00  0.00    -0.031 C 
ATOM      9  C   UNL     1      34.212 -19.286 -23.230  0.00  0.00    -0.053 C 
ATOM     10  H   UNL     1      36.172 -17.425 -23.928  0.00  0.00    -0.079 HD
BRANCH   8  11
ATOM     11  C   UNL     1      34.544 -20.225 -20.965  0.00  0.00    -0.004 C 
ATOM     12  C   UNL     1      35.701 -20.806 -20.442  0.00  0.00    -0.000 C 
ATOM     13  C   UNL     1      33.290 -20.675 -20.543  0.00  0.00    -0.000 C 
ATOM     14  C   UNL     1      35.606 -21.832 -19.503  0.00  0.00    -0.000 C 
ATOM     15  C   UNL     1      33.196 -21.702 -19.603  0.00  0.00    -0.000 C 
ATOM     16  C   UNL     1      34.353 -22.281 -19.083  0.00  0.00    -0.000 C 
ENDBRANCH   8  11
ENDBRANCH   3   4
ENDBRANCH   2   3
ENDBRANCH   1   2
BRANCH   1  17
ATOM     17  C   UNL     1      34.046 -13.448 -24.000  0.00  0.00    +0.110 C 
BRANCH  17  21
ATOM     18  F   UNL     1      32.718  -7.454 -24.144  0.00  0.00    -0.204 F 
ATOM     19  O   UNL     1      32.075 -13.328 -21.994  0.00  0.00    -0.246 OA
ATOM     20  O   UNL     1      31.421  -8.824 -22.457  0.00  0.00    -0.267 OA
ATOM     21  N   UNL     1      33.357 -12.225 -23.597  0.00  0.00    -0.281 N 
ATOM     22  N   UNL     1      31.779 -11.084 -22.255  0.00  0.00    -0.274 N 
ATOM     23  C   UNL     1      33.684 -10.993 -24.246  0.00  0.00    +0.071 A 
ATOM     24  C   UNL     1      32.392 -12.291 -22.583  0.00  0.00    +0.330 A 
ATOM     25  C   UNL     1      33.034  -9.811 -23.873  0.00  0.00    +0.099 A 
ATOM     26  C   UNL     1      34.651 -10.922 -25.264  0.00  0.00    +0.018 C 
ATOM     27  C   UNL     1      32.013  -9.838 -22.811  0.00  0.00    +0.265 A 
ATOM     28  C   UNL     1      33.336  -8.591 -24.495  0.00  0.00    +0.146 C 
ATOM     29  C   UNL     1      34.954  -9.707 -25.884  0.00  0.00    +0.004 C 
ATOM     30  C   UNL     1      34.297  -8.542 -25.500  0.00  0.00    +0.030 C 
ATOM     31  H   UNL     1      31.099 -11.120 -21.543  0.00  0.00    +0.173 HD
ENDBRANCH  17  21
ENDBRANCH   1  17
TORSDOF 6
ENDMDL
MODEL 3
REMARK VINA RESULT:     -11.6      8.005     12.867
REMARK  Name = 448890
REMARK  6 active torsions:
REMARK  status: ('A' for Active; 'I' for Inactive)
REMARK    1  A    between atoms: C_1  and  C_2
REMARK    2  A    between atoms: C_1  and  C_17
REMARK    3  A    between atoms: C_2  and  C_3
REMARK    4  A    between atoms: C_3  and  N_4
REMARK    5  A    between atoms: C_8  and  C_11
REMARK    6  A    between atoms: C_17  and  N_21
REMARK                            x       y       z     vdW  Elec       q    Type
REMARK                         _______ _______ _______ _____ _____    ______ ____
ROOT
ATOM      1  C   UNL     1      33.220 -23.626 -16.340  0.00  0.00    +0.022 C 
ENDROOT
BRANCH   1   2
ATOM      2  C   UNL     1      33.204 -23.032 -17.753  0.00  0.00    -0.021 C 
BRANCH   2   3
ATOM      3  C   UNL     1      34.623 -22.809 -18.272  0.00  0.00    -0.077 C 
BRANCH   3   4
ATOM      4  N   UNL     1      34.672 -21.619 -19.119  0.00  0.00    +0.390 N 
ATOM      5  C   UNL     1      35.799 -21.682 -20.054  0.00  0.00    -0.072 C 
ATOM      6  C   UNL     1      33.405 -21.443 -19.844  0.00  0.00    -0.051 C 
ATOM      7  C   UNL     1      35.923 -20.350 -20.811  0.00  0.00    +0.003 C 
ATOM      8  C   UNL     1      34.606 -19.866 -21.374  0.00  0.00    -0.031 C 
ATOM      9  C   UNL     1      33.451 -20.386 -20.914  0.00  0.00    -0.053 C 
ATOM     10  H   UNL     1      34.811 -20.809 -18.514  0.00  0.00    -0.079 HD
BRANCH   8  11
ATOM     11  C   UNL     1      34.631 -18.817 -22.421  0.00  0.00    -0.004 C 
ATOM     12  C   UNL     1      34.170 -19.100 -23.708  0.00  0.00    -0.000 C 
ATOM     13  C   UNL     1      35.115 -17.541 -22.123  0.00  0.00    -0.000 C 
ATOM     14  C   UNL     1      34.194 -18.112 -24.693  0.00  0.00    -0.000 C 
ATOM     15  C   UNL     1      35.139 -16.553 -23.108  0.00  0.00    -0.000 C 
ATOM     16  C   UNL     1      34.678 -16.839 -24.393  0.00  0.00    -0.000 C 
ENDBRANCH   8  11
ENDBRANCH   3   4
ENDBRANCH   2   3
ENDBRANCH   1   2
BRANCH   1  17
ATOM     17  C   UNL     1      34.149 -22.868 -15.396  0.00  0.00    +0.110 C 
BRANCH  17  21
ATOM     18  F   UNL     1      38.835 -26.049 -13.021  0.00  0.00    -0.204 F 
ATOM     19  O   UNL     1      32.884 -24.024 -13.163  0.00  0.00    -0.246 OA
ATOM     20  O   UNL     1      36.644 -26.220 -11.764  0.00  0.00    -0.267 OA
ATOM     21  N   UNL     1      34.813 -23.752 -14.442  0.00  0.00    -0.281 N 
ATOM     22  N   UNL     1      34.778 -25.102 -12.499  0.00  0.00    -0.274 N 
ATOM     23  C   UNL     1      36.194 -24.069 -14.628  0.00  0.00    +0.071 A 
ATOM     24  C   UNL     1      34.076 -24.267 -13.366  0.00  0.00    +0.330 A 
ATOM     25  C   UNL     1      36.848 -24.914 -13.723  0.00  0.00    +0.099 A 
ATOM     26  C   UNL     1      36.938 -23.555 -15.704  0.00  0.00    +0.018 C 
ATOM     27  C   UNL     1      36.108 -25.476 -12.579  0.00  0.00    +0.265 A 
ATOM     28  C   UNL     1      38.202 -25.240 -13.883  0.00  0.00    +0.146 C 
ATOM     29  C   UNL     1      38.288 -23.879 -15.866  0.00  0.00    +0.004 C 
ATOM     30  C   UNL     1      38.919 -24.721 -14.957  0.00  0.00    +0.030 C 
ATOM     31  H   UNL     1      34.268 -25.468 -11.740  0.00  0.00    +0.173 HD
ENDBRANCH  17  21
ENDBRANCH   1  17
TORSDOF 6
ENDMDL
MODEL 4
REMARK VINA RESULT:     -11.4      7.415     11.723
REMARK  Name = 448890
REMARK  6 active torsions:
REMARK  status: ('A' for Active; 'I' for Inactive)
REMARK    1  A    between atoms: C_1  and  C_2
REMARK    2  A    between atoms: C_1  and  C_17
REMARK    3  A    between atoms: C_2  and  C_3
REMARK    4  A    between atoms: C_3  and  N_4
REMARK    5  A    between atoms: C_8  and  C_11
REMARK    6  A    between atoms: C_17  and  N_21
REMARK                            x       y       z     vdW  Elec       q    Type
REMARK                         _______ _______ _______ _____ _____    ______ ____
ROOT
ATOM      1  C   UNL     1      36.568 -22.191 -15.805  0.00  0.00    +0.022 C 
ENDROOT
BRANCH   1   2
ATOM      2  C   UNL     1      37.028 -21.405 -17.038  0.00  0.00    -0.021 C 
BRANCH   2   3
ATOM      3  C   UNL     1      36.430 -21.990 -18.317  0.00  0.00    -0.077 C 
BRANCH   3   4
ATOM      4  N   UNL     1      36.027 -20.917 -19.224  0.00  0.00    +0.390 N 
ATOM      5  C   UNL     1      37.108 -20.579 -20.155  0.00  0.00    -0.072 C 
ATOM      6  C   UNL     1      34.807 -21.286 -19.958  0.00  0.00    -0.051 C 
ATOM      7  C   UNL     1      36.718 -19.343 -20.980  0.00  0.00    +0.003 C 
ATOM      8  C   UNL     1      35.327 -19.439 -21.567  0.00  0.00    -0.031 C 
ATOM      9  C   UNL     1      34.458 -20.347 -21.081  0.00  0.00    -0.053 C 
ATOM     10  H   UNL     1      35.827 -20.090 -18.662  0.00  0.00    -0.079 HD
BRANCH   8  11
ATOM     11  C   UNL     1      34.962 -18.515 -22.667  0.00  0.00    -0.004 C 
ATOM     12  C   UNL     1      34.309 -19.000 -23.802  0.00  0.00    -0.000 C 
ATOM     13  C   UNL     1      35.269 -17.156 -22.572  0.00  0.00    -0.000 C 
ATOM     14  C   UNL     1      33.965 -18.130 -24.837  0.00  0.00    -0.000 C 
ATOM     15  C   UNL     1      34.926 -16.286 -23.607  0.00  0.00    -0.000 C 
ATOM     16  C   UNL     1      34.274 -16.773 -24.740  0.00  0.00    -0.000 C 
ENDBRANCH   8  11
ENDBRANCH   3   4
ENDBRANCH   2   3
ENDBRANCH   1   2
BRANCH   1  17
ATOM     17  C   UNL     1      36.042 -23.579 -16.157  0.00  0.00    +0.110 C 
BRANCH  17  21
ATOM     18  F   UNL     1      30.058 -24.112 -14.886  0.00  0.00    -0.204 F 
ATOM     19  O   UNL     1      36.179 -24.813 -13.630  0.00  0.00    -0.246 OA
ATOM     20  O   UNL     1      31.637 -24.998 -13.118  0.00  0.00    -0.267 OA
ATOM     21  N   UNL     1      34.876 -23.951 -15.360  0.00  0.00    -0.281 N 
ATOM     22  N   UNL     1      33.912 -24.886 -13.412  0.00  0.00    -0.274 N 
ATOM     23  C   UNL     1      33.568 -23.683 -15.869  0.00  0.00    +0.071 A 
ATOM     24  C   UNL     1      35.071 -24.562 -14.113  0.00  0.00    +0.330 A 
ATOM     25  C   UNL     1      32.438 -24.032 -15.120  0.00  0.00    +0.099 A 
ATOM     26  C   UNL     1      33.366 -23.071 -17.119  0.00  0.00    +0.018 C 
ATOM     27  C   UNL     1      32.601 -24.676 -13.805  0.00  0.00    +0.265 A 
ATOM     28  C   UNL     1      31.145 -23.781 -15.598  0.00  0.00    +0.146 C 
ATOM     29  C   UNL     1      32.078 -22.819 -17.597  0.00  0.00    +0.004 C 
ATOM     30  C   UNL     1      30.968 -23.173 -16.838  0.00  0.00    +0.030 C 
ATOM     31  H   UNL     1      34.039 -25.316 -12.535  0.00  0.00    +0.173 HD
ENDBRANCH  17  21
ENDBRANCH   1  17
TORSDOF 6
ENDMDL
MODEL 5
REMARK VINA RESULT:     -11.3      7.429     12.534
REMARK  Name = 448890
REMARK  6 active torsions:
REMARK  status: ('A' for Active; 'I' for Inactive)
REMARK    1  A    between atoms: C_1  and  C_2
REMARK    2  A    between atoms: C_1  and  C_17
REMARK    3  A    between atoms: C_2  and  C_3
REMARK    4  A    between atoms: C_3  and  N_4
REMARK    5  A    between atoms: C_8  and  C_11
REMARK    6  A    between atoms: C_17  and  N_21
REMARK                            x       y       z     vdW  Elec       q    Type
REMARK                         _______ _______ _______ _____ _____    ______ ____
ROOT
ATOM      1  C   UNL     1      33.510 -23.742 -15.758  0.00  0.00    +0.022 C 
ENDROOT
BRANCH   1   2
ATOM      2  C   UNL     1      32.783 -23.109 -16.950  0.00  0.00    -0.021 C 
BRANCH   2   3
ATOM      3  C   UNL     1      33.496 -23.428 -18.263  0.00  0.00    -0.077 C 
BRANCH   3   4
ATOM      4  N   UNL     1      33.836 -22.194 -18.968  0.00  0.00    +0.390 N 
ATOM      5  C   UNL     1      34.955 -22.404 -19.891  0.00  0.00    -0.072 C 
ATOM      6  C   UNL     1      32.665 -21.663 -19.683  0.00  0.00    -0.051 C 
ATOM      7  C   UNL     1      35.396 -21.060 -20.490  0.00  0.00    +0.003 C 
ATOM      8  C   UNL     1      34.239 -20.237 -21.009  0.00  0.00    -0.031 C 
ATOM      9  C   UNL     1      32.982 -20.533 -20.625  0.00  0.00    -0.053 C 
ATOM     10  H   UNL     1      34.127 -21.506 -18.273  0.00  0.00    -0.079 HD
BRANCH   8  11
ATOM     11  C   UNL     1      34.532 -19.113 -21.930  0.00  0.00    -0.004 C 
ATOM     12  C   UNL     1      34.299 -19.249 -23.300  0.00  0.00    -0.000 C 
ATOM     13  C   UNL     1      35.042 -17.912 -21.430  0.00  0.00    -0.000 C 
ATOM     14  C   UNL     1      34.575 -18.191 -24.166  0.00  0.00    -0.000 C 
ATOM     15  C   UNL     1      35.318 -16.854 -22.297  0.00  0.00    -0.000 C 
ATOM     16  C   UNL     1      35.084 -16.993 -23.665  0.00  0.00    -0.000 C 
ENDBRANCH   8  11
ENDBRANCH   3   4
ENDBRANCH   2   3
ENDBRANCH   1   2
BRANCH   1  17
ATOM     17  C   UNL     1      34.501 -22.786 -15.101  0.00  0.00    +0.110 C 
BRANCH  17  21
ATOM     18  F   UNL     1      39.345 -26.003 -13.126  0.00  0.00    -0.204 F 
ATOM     19  O   UNL     1      36.370 -22.153 -17.110  0.00  0.00    -0.246 OA
ATOM     20  O   UNL     1      39.696 -24.694 -15.264  0.00  0.00    -0.267 OA
ATOM     21  N   UNL     1      35.871 -23.292 -15.139  0.00  0.00    -0.281 N 
ATOM     22  N   UNL     1      38.001 -23.430 -16.159  0.00  0.00    -0.274 N 
ATOM     23  C   UNL     1      36.320 -24.167 -14.101  0.00  0.00    +0.071 A 
ATOM     24  C   UNL     1      36.710 -22.906 -16.193  0.00  0.00    +0.330 A 
ATOM     25  C   UNL     1      37.629 -24.664 -14.120  0.00  0.00    +0.099 A 
ATOM     26  C   UNL     1      35.482 -24.559 -13.043  0.00  0.00    +0.018 C 
ATOM     27  C   UNL     1      38.542 -24.281 -15.211  0.00  0.00    +0.265 A 
ATOM     28  C   UNL     1      38.093 -25.524 -13.116  0.00  0.00    +0.146 C 
ATOM     29  C   UNL     1      35.942 -25.416 -12.039  0.00  0.00    +0.004 C 
ATOM     30  C   UNL     1      37.247 -25.898 -12.075  0.00  0.00    +0.030 C 
ATOM     31  H   UNL     1      38.598 -23.164 -16.896  0.00  0.00    +0.173 HD
ENDBRANCH  17  21
ENDBRANCH   1  17
TORSDOF 6
ENDMDL
MODEL 6
REMARK VINA RESULT:     -11.2      1.532      2.347
REMARK  Name = 448890
REMARK  6 active torsions:
REMARK  status: ('A' for Active; 'I' for Inactive)
REMARK    1  A    between atoms: C_1  and  C_2
REMARK    2  A    between atoms: C_1  and  C_17
REMARK    3  A    between atoms: C_2  and  C_3
REMARK    4  A    between atoms: C_3  and  N_4
REMARK    5  A    between atoms: C_8  and  C_11
REMARK    6  A    between atoms: C_17  and  N_21
REMARK                            x       y       z     vdW  Elec       q    Type
REMARK                         _______ _______ _______ _____ _____    ______ ____
ROOT
ATOM      1  C   UNL     1      34.123 -13.193 -24.417  0.00  0.00    +0.022 C 
ENDROOT
BRANCH   1   2
ATOM      2  C   UNL     1      33.565 -14.597 -24.675  0.00  0.00    -0.021 C 
BRANCH   2   3
ATOM      3  C   UNL     1      34.680 -15.642 -24.672  0.00  0.00    -0.077 C 
BRANCH   3   4
ATOM      4  N   UNL     1      34.365 -16.715 -23.731  0.00  0.00    +0.390 N 
ATOM      5  C   UNL     1      34.625 -18.030 -24.324  0.00  0.00    -0.072 C 
ATOM      6  C   UNL     1      35.123 -16.550 -22.482  0.00  0.00    -0.051 C 
ATOM      7  C   UNL     1      34.130 -19.135 -23.378  0.00  0.00    +0.003 C 
ATOM      8  C   UNL     1      34.586 -18.937 -21.950  0.00  0.00    -0.031 C 
ATOM      9  C   UNL     1      35.044 -17.733 -21.555  0.00  0.00    -0.053 C 
ATOM     10  H   UNL     1      33.370 -16.659 -23.513  0.00  0.00    -0.079 HD
BRANCH   8  11
ATOM     11  C   UNL     1      34.506 -20.089 -21.019  0.00  0.00    -0.004 C 
ATOM     12  C   UNL     1      35.672 -20.723 -20.587  0.00  0.00    -0.000 C 
ATOM     13  C   UNL     1      33.263 -20.542 -20.571  0.00  0.00    -0.000 C 
ATOM     14  C   UNL     1      35.596 -21.807 -19.711  0.00  0.00    -0.000 C 
ATOM     15  C   UNL     1      33.187 -21.625 -19.695  0.00  0.00    -0.000 C 
ATOM     16  C   UNL     1      34.353 -22.258 -19.265  0.00  0.00    -0.000 C 
ENDBRANCH   8  11
ENDBRANCH   3   4
ENDBRANCH   2   3
ENDBRANCH   1   2
BRANCH   1  17
ATOM     17  C   UNL     1      33.345 -12.108 -25.154  0.00  0.00    +0.110 C 
BRANCH  17  21
ATOM     18  F   UNL     1      33.606  -6.685 -22.283  0.00  0.00    -0.204 F 
ATOM     19  O   UNL     1      35.495 -10.920 -26.529  0.00  0.00    -0.246 OA
ATOM     20  O   UNL     1      35.313  -7.037 -24.119  0.00  0.00    -0.267 OA
ATOM     21  N   UNL     1      33.860 -10.769 -24.876  0.00  0.00    -0.281 N 
ATOM     22  N   UNL     1      35.371  -9.001 -25.307  0.00  0.00    -0.274 N 
ATOM     23  C   UNL     1      33.252  -9.987 -23.845  0.00  0.00    +0.071 A 
ATOM     24  C   UNL     1      34.938 -10.285 -25.630  0.00  0.00    +0.330 A 
ATOM     25  C   UNL     1      33.731  -8.702 -23.564  0.00  0.00    +0.099 A 
ATOM     26  C   UNL     1      32.171 -10.468 -23.086  0.00  0.00    +0.018 C 
ATOM     27  C   UNL     1      34.863  -8.157 -24.335  0.00  0.00    +0.265 A 
ATOM     28  C   UNL     1      33.153  -7.917 -22.558  0.00  0.00    +0.146 C 
ATOM     29  C   UNL     1      31.592  -9.686 -22.082  0.00  0.00    +0.004 C 
ATOM     30  C   UNL     1      32.082  -8.411 -21.818  0.00  0.00    +0.030 C 
ATOM     31  H   UNL     1      36.129  -8.653 -25.831  0.00  0.00    +0.173 HD
ENDBRANCH  17  21
ENDBRANCH   1  17
TORSDOF 6
ENDMDL
MODEL 7
REMARK VINA RESULT:     -11.1      8.061     12.966
REMARK  Name = 448890
REMARK  6 active torsions:
REMARK  status: ('A' for Active; 'I' for Inactive)
REMARK    1  A    between atoms: C_1  and  C_2
REMARK    2  A    between atoms: C_1  and  C_17
REMARK    3  A    between atoms: C_2  and  C_3
REMARK    4  A    between atoms: C_3  and  N_4
REMARK    5  A    between atoms: C_8  and  C_11
REMARK    6  A    between atoms: C_17  and  N_21
REMARK                            x       y       z     vdW  Elec       q    Type
REMARK                         _______ _______ _______ _____ _____    ______ ____
ROOT
ATOM      1  C   UNL     1      33.455 -23.388 -16.044  0.00  0.00    +0.022 C 
ENDROOT
BRANCH   1   2
ATOM      2  C   UNL     1      34.257 -23.070 -17.311  0.00  0.00    -0.021 C 
BRANCH   2   3
ATOM      3  C   UNL     1      33.496 -23.498 -18.565  0.00  0.00    -0.077 C 
BRANCH   3   4
ATOM      4  N   UNL     1      33.707 -22.531 -19.641  0.00  0.00    +0.390 N 
ATOM      5  C   UNL     1      32.751 -21.423 -19.551  0.00  0.00    -0.072 C 
ATOM      6  C   UNL     1      35.089 -22.027 -19.623  0.00  0.00    -0.051 C 
ATOM      7  C   UNL     1      32.888 -20.515 -20.782  0.00  0.00    +0.003 C 
ATOM      8  C   UNL     1      34.322 -20.145 -21.086  0.00  0.00    -0.031 C 
ATOM      9  C   UNL     1      35.327 -20.856 -20.538  0.00  0.00    -0.053 C 
ATOM     10  H   UNL     1      33.551 -23.009 -20.528  0.00  0.00    -0.079 HD
BRANCH   8  11
ATOM     11  C   UNL     1      34.577 -19.001 -21.994  0.00  0.00    -0.004 C 
ATOM     12  C   UNL     1      34.423 -19.153 -23.374  0.00  0.00    -0.000 C 
ATOM     13  C   UNL     1      34.969 -17.766 -21.473  0.00  0.00    -0.000 C 
ATOM     14  C   UNL     1      34.662 -18.077 -24.228  0.00  0.00    -0.000 C 
ATOM     15  C   UNL     1      35.208 -16.690 -22.327  0.00  0.00    -0.000 C 
ATOM     16  C   UNL     1      35.055 -16.845 -23.705  0.00  0.00    -0.000 C 
ENDBRANCH   8  11
ENDBRANCH   3   4
ENDBRANCH   2   3
ENDBRANCH   1   2
BRANCH   1  17
ATOM     17  C   UNL     1      33.905 -24.682 -15.374  0.00  0.00    +0.110 C 
BRANCH  17  21
ATOM     18  F   UNL     1      38.797 -24.416 -11.671  0.00  0.00    -0.204 F 
ATOM     19  O   UNL     1      32.681 -23.807 -12.995  0.00  0.00    -0.246 OA
ATOM     20  O   UNL     1      36.590 -23.760 -10.620  0.00  0.00    -0.267 OA
ATOM     21  N   UNL     1      34.619 -24.441 -14.123  0.00  0.00    -0.281 N 
ATOM     22  N   UNL     1      34.649 -23.797 -11.846  0.00  0.00    -0.274 N 
ATOM     23  C   UNL     1      36.032 -24.655 -14.072  0.00  0.00    +0.071 A 
ATOM     24  C   UNL     1      33.899 -24.005 -13.002  0.00  0.00    +0.330 A 
ATOM     25  C   UNL     1      36.733 -24.428 -12.882  0.00  0.00    +0.099 A 
ATOM     26  C   UNL     1      36.759 -25.091 -15.193  0.00  0.00    +0.018 C 
ATOM     27  C   UNL     1      36.012 -23.970 -11.682  0.00  0.00    +0.265 A 
ATOM     28  C   UNL     1      38.118 -24.630 -12.807  0.00  0.00    +0.146 C 
ATOM     29  C   UNL     1      38.140 -25.293 -15.121  0.00  0.00    +0.004 C 
ATOM     30  C   UNL     1      38.819 -25.063 -13.929  0.00  0.00    +0.030 C 
ATOM     31  H   UNL     1      34.151 -23.491 -11.054  0.00  0.00    +0.173 HD
ENDBRANCH  17  21
ENDBRANCH   1  17
TORSDOF 6
ENDMDL
MODEL 8
REMARK VINA RESULT:     -10.8      4.298      9.169
REMARK  Name = 448890
REMARK  6 active torsions:
REMARK  status: ('A' for Active; 'I' for Inactive)
REMARK    1  A    between atoms: C_1  and  C_2
REMARK    2  A    between atoms: C_1  and  C_17
REMARK    3  A    between atoms: C_2  and  C_3
REMARK    4  A    between atoms: C_3  and  N_4
REMARK    5  A    between atoms: C_8  and  C_11
REMARK    6  A    between atoms: C_17  and  N_21
REMARK                            x       y       z     vdW  Elec       q    Type
REMARK                         _______ _______ _______ _____ _____    ______ ____
ROOT
ATOM      1  C   UNL     1      34.987 -19.054 -23.740  0.00  0.00    +0.022 C 
ENDROOT
BRANCH   1   2
ATOM      2  C   UNL     1      34.164 -18.190 -24.701  0.00  0.00    -0.021 C 
BRANCH   2   3
ATOM      3  C   UNL     1      34.758 -16.787 -24.825  0.00  0.00    -0.077 C 
BRANCH   3   4
ATOM      4  N   UNL     1      33.952 -15.827 -24.073  0.00  0.00    +0.390 N 
ATOM      5  C   UNL     1      34.710 -15.266 -22.951  0.00  0.00    -0.072 C 
ATOM      6  C   UNL     1      33.461 -14.757 -24.954  0.00  0.00    -0.051 C 
ATOM      7  C   UNL     1      33.789 -14.393 -22.085  0.00  0.00    +0.003 C 
ATOM      8  C   UNL     1      32.965 -13.419 -22.896  0.00  0.00    -0.031 C 
ATOM      9  C   UNL     1      32.827 -13.604 -24.223  0.00  0.00    -0.053 C 
ATOM     10  H   UNL     1      33.148 -16.325 -23.692  0.00  0.00    -0.079 HD
BRANCH   8  11
ATOM     11  C   UNL     1      32.325 -12.282 -22.192  0.00  0.00    -0.004 C 
ATOM     12  C   UNL     1      32.172 -11.054 -22.838  0.00  0.00    -0.000 C 
ATOM     13  C   UNL     1      31.870 -12.437 -20.880  0.00  0.00    -0.000 C 
ATOM     14  C   UNL     1      31.569  -9.985 -22.176  0.00  0.00    -0.000 C 
ATOM     15  C   UNL     1      31.267 -11.368 -20.218  0.00  0.00    -0.000 C 
ATOM     16  C   UNL     1      31.116 -10.141 -20.865  0.00  0.00    -0.000 C 
ENDBRANCH   8  11
ENDBRANCH   3   4
ENDBRANCH   2   3
ENDBRANCH   1   2
BRANCH   1  17
ATOM     17  C   UNL     1      35.088 -18.447 -22.345  0.00  0.00    +0.110 C 
BRANCH  17  21
ATOM     18  F   UNL     1      34.327 -22.920 -18.207  0.00  0.00    -0.204 F 
ATOM     19  O   UNL     1      37.755 -18.826 -21.528  0.00  0.00    -0.246 OA
ATOM     20  O   UNL     1      36.710 -22.137 -18.549  0.00  0.00    -0.267 OA
ATOM     21  N   UNL     1      35.509 -19.422 -21.342  0.00  0.00    -0.281 N 
ATOM     22  N   UNL     1      37.193 -20.471 -20.054  0.00  0.00    -0.274 N 
ATOM     23  C   UNL     1      34.526 -20.251 -20.718  0.00  0.00    +0.071 A 
ATOM     24  C   UNL     1      36.869 -19.519 -21.018  0.00  0.00    +0.330 A 
ATOM     25  C   UNL     1      34.911 -21.192 -19.756  0.00  0.00    +0.099 A 
ATOM     26  C   UNL     1      33.161 -20.158 -21.040  0.00  0.00    +0.018 C 
ATOM     27  C   UNL     1      36.332 -21.324 -19.387  0.00  0.00    +0.265 A 
ATOM     28  C   UNL     1      33.967 -22.017 -19.130  0.00  0.00    +0.146 C 
ATOM     29  C   UNL     1      32.217 -20.980 -20.417  0.00  0.00    +0.004 C 
ATOM     30  C   UNL     1      32.620 -21.908 -19.463  0.00  0.00    +0.030 C 
ATOM     31  H   UNL     1      38.147 -20.547 -19.820  0.00  0.00    +0.173 HD
ENDBRANCH  17  21
ENDBRANCH   1  17
TORSDOF 6
ENDMDL
MODEL 9
REMARK VINA RESULT:     -10.6      4.136      6.876
REMARK  Name = 448890
REMARK  6 active torsions:
REMARK  status: ('A' for Active; 'I' for Inactive)
REMARK    1  A    between atoms: C_1  and  C_2
REMARK    2  A    between atoms: C_1  and  C_17
REMARK    3  A    between atoms: C_2  and  C_3
REMARK    4  A    between atoms: C_3  and  N_4
REMARK    5  A    between atoms: C_8  and  C_11
REMARK    6  A    between atoms: C_17  and  N_21
REMARK                            x       y       z     vdW  Elec       q    Type
REMARK                         _______ _______ _______ _____ _____    ______ ____
ROOT
ATOM      1  C   UNL     1      34.044 -19.825 -21.011  0.00  0.00    +0.022 C 
ENDROOT
BRANCH   1   2
ATOM      2  C   UNL     1      34.400 -21.132 -20.294  0.00  0.00    -0.021 C 
BRANCH   2   3
ATOM      3  C   UNL     1      35.873 -21.153 -19.888  0.00  0.00    -0.077 C 
BRANCH   3   4
ATOM      4  N   UNL     1      36.059 -21.987 -18.702  0.00  0.00    +0.390 N 
ATOM      5  C   UNL     1      36.860 -21.293 -17.689  0.00  0.00    -0.072 C 
ATOM      6  C   UNL     1      34.762 -22.398 -18.145  0.00  0.00    -0.051 C 
ATOM      7  C   UNL     1      37.179 -22.250 -16.530  0.00  0.00    +0.003 C 
ATOM      8  C   UNL     1      35.964 -22.999 -16.032  0.00  0.00    -0.031 C 
ATOM      9  C   UNL     1      34.854 -23.054 -16.794  0.00  0.00    -0.053 C 
ATOM     10  H   UNL     1      36.568 -22.825 -18.984  0.00  0.00    -0.079 HD
BRANCH   8  11
ATOM     11  C   UNL     1      36.039 -23.661 -14.708  0.00  0.00    -0.004 C 
ATOM     12  C   UNL     1      34.874 -23.903 -13.978  0.00  0.00    -0.000 C 
ATOM     13  C   UNL     1      37.277 -24.046 -14.186  0.00  0.00    -0.000 C 
ATOM     14  C   UNL     1      34.945 -24.526 -12.732  0.00  0.00    -0.000 C 
ATOM     15  C   UNL     1      37.348 -24.670 -12.940  0.00  0.00    -0.000 C 
ATOM     16  C   UNL     1      36.182 -24.910 -12.213  0.00  0.00    -0.000 C 
ENDBRANCH   8  11
ENDBRANCH   3   4
ENDBRANCH   2   3
ENDBRANCH   1   2
BRANCH   1  17
ATOM     17  C   UNL     1      35.248 -19.185 -21.695  0.00  0.00    +0.110 C 
BRANCH  17  21
ATOM     18  F   UNL     1      33.663 -13.885 -24.361  0.00  0.00    -0.204 F 
ATOM     19  O   UNL     1      34.920 -20.046 -24.355  0.00  0.00    -0.246 OA
ATOM     20  O   UNL     1      33.782 -15.892 -25.898  0.00  0.00    -0.267 OA
ATOM     21  N   UNL     1      34.861 -18.311 -22.799  0.00  0.00    -0.281 N 
ATOM     22  N   UNL     1      34.357 -17.961 -25.084  0.00  0.00    -0.274 N 
ATOM     23  C   UNL     1      34.626 -16.925 -22.543  0.00  0.00    +0.071 A 
ATOM     24  C   UNL     1      34.730 -18.857 -24.084  0.00  0.00    +0.330 A 
ATOM     25  C   UNL     1      34.255 -16.072 -23.590  0.00  0.00    +0.099 A 
ATOM     26  C   UNL     1      34.757 -16.372 -21.258  0.00  0.00    +0.018 C 
ATOM     27  C   UNL     1      34.105 -16.607 -24.954  0.00  0.00    +0.265 A 
ATOM     28  C   UNL     1      34.020 -14.708 -23.365  0.00  0.00    +0.146 C 
ATOM     29  C   UNL     1      34.523 -15.013 -21.031  0.00  0.00    +0.004 C 
ATOM     30  C   UNL     1      34.154 -14.182 -22.083  0.00  0.00    +0.030 C 
ATOM     31  H   UNL     1      34.263 -18.336 -25.990  0.00  0.00    +0.173 HD
ENDBRANCH  17  21
ENDBRANCH   1  17
TORSDOF 6
ENDMDL
