MODEL 1
REMARK VINA RESULT:     -11.8      0.000      0.000
REMARK  Name = 9969613
REMARK  5 active torsions:
REMARK  status: ('A' for Active; 'I' for Inactive)
REMARK    1  A    between atoms: C_3  and  O_7
REMARK    2  A    between atoms: C_4  and  O_17
REMARK    3  A    between atoms: O_7  and  C_13
REMARK    4  A    between atoms: O_17  and  C_21
REMARK    5  A    between atoms: C_18  and  N_24
REMARK                            x       y       z     vdW  Elec       q    Type
REMARK                         _______ _______ _______ _____ _____    ______ ____
ROOT
ATOM      1  N   UNL     1      34.406 -23.331 -16.693  0.00  0.00    -0.283 NA
ATOM      2  N   UNL     1      32.038 -23.395 -17.139  0.00  0.00    -0.151 NA
ATOM      3  C   UNL     1      34.105 -23.191 -15.392  0.00  0.00    +0.296 C 
ATOM      4  C   UNL     1      33.334 -23.427 -17.503  0.00  0.00    +0.260 C 
ATOM      5  C   UNL     1      32.832 -23.143 -14.881  0.00  0.00    +0.094 C 
ATOM      6  C   UNL     1      31.822 -23.252 -15.814  0.00  0.00    +0.119 C 
ENDROOT
BRANCH   3   7
ATOM      7  O   UNL     1      35.175 -23.088 -14.518  0.00  0.00    -0.427 OA
BRANCH   7  13
ATOM      8  O   UNL     1      39.698 -24.601 -15.234  0.00  0.00    -0.435 OA
ATOM      9  O   UNL     1      39.099 -26.886 -14.761  0.00  0.00    -0.435 OA
ATOM     10  C   UNL     1      38.377 -24.738 -14.937  0.00  0.00    +0.179 C 
ATOM     11  C   UNL     1      38.035 -26.044 -14.665  0.00  0.00    +0.177 C 
ATOM     12  C   UNL     1      37.446 -23.721 -14.897  0.00  0.00    +0.078 C 
ATOM     13  C   UNL     1      36.129 -24.058 -14.570  0.00  0.00    +0.151 C 
ATOM     14  C   UNL     1      36.743 -26.403 -14.341  0.00  0.00    +0.043 C 
ATOM     15  C   UNL     1      40.149 -25.965 -15.120  0.00  0.00    +0.429 C 
ATOM     16  C   UNL     1      35.780 -25.391 -14.295  0.00  0.00    +0.041 C 
ENDBRANCH   7  13
ENDBRANCH   3   7
BRANCH   4  17
ATOM     17  O   UNL     1      33.591 -23.573 -18.847  0.00  0.00    -0.383 OA
BRANCH  17  21
ATOM     18  C   UNL     1      34.415 -20.122 -21.003  0.00  0.00    +0.057 C 
ATOM     19  C   UNL     1      35.460 -20.922 -20.541  0.00  0.00    +0.018 C 
ATOM     20  C   UNL     1      33.092 -20.482 -20.740  0.00  0.00    +0.018 C 
ATOM     21  C   UNL     1      33.864 -22.427 -19.563  0.00  0.00    +0.160 C 
ATOM     22  C   UNL     1      35.182 -22.082 -19.816  0.00  0.00    +0.040 C 
ATOM     23  C   UNL     1      32.816 -21.641 -20.015  0.00  0.00    +0.040 C 
BRANCH  18  24
ATOM     24  N   UNL     1      34.689 -18.973 -21.721  0.00  0.00    -0.246 N 
ATOM     25  N   UNL     1      34.821 -17.569 -23.447  0.00  0.00    -0.224 NA
ATOM     26  C   UNL     1      35.244 -17.817 -21.234  0.00  0.00    +0.092 C 
ATOM     27  C   UNL     1      34.453 -18.770 -23.057  0.00  0.00    +0.172 C 
ATOM     28  C   UNL     1      35.315 -16.970 -22.315  0.00  0.00    +0.117 C 
ENDBRANCH  18  24
ENDBRANCH  17  21
ENDBRANCH   4  17
TORSDOF 5
ENDMDL
MODEL 2
REMARK VINA RESULT:     -11.7      2.736      5.704
REMARK  Name = 9969613
REMARK  5 active torsions:
REMARK  status: ('A' for Active; 'I' for Inactive)
REMARK    1  A    between atoms: C_3  and  O_7
REMARK    2  A    between atoms: C_4  and  O_17
REMARK    3  A    between atoms: O_7  and  C_13
REMARK    4  A    between atoms: O_17  and  C_21
REMARK    5  A    between atoms: C_18  and  N_24
REMARK                            x       y       z     vdW  Elec       q    Type
REMARK                         _______ _______ _______ _____ _____    ______ ____
ROOT
ATOM      1  N   UNL     1      33.091 -23.414 -16.641  0.00  0.00    -0.283 NA
ATOM      2  N   UNL     1      35.449 -22.964 -16.852  0.00  0.00    -0.151 NA
ATOM      3  C   UNL     1      33.229 -23.248 -15.316  0.00  0.00    +0.296 C 
ATOM      4  C   UNL     1      34.230 -23.260 -17.343  0.00  0.00    +0.260 C 
ATOM      5  C   UNL     1      34.408 -22.944 -14.682  0.00  0.00    +0.094 C 
ATOM      6  C   UNL     1      35.502 -22.812 -15.511  0.00  0.00    +0.119 C 
ENDROOT
BRANCH   3   7
ATOM      7  O   UNL     1      32.084 -23.398 -14.552  0.00  0.00    -0.427 OA
BRANCH   7  13
ATOM      8  O   UNL     1      28.270 -22.124 -17.214  0.00  0.00    -0.435 OA
ATOM      9  O   UNL     1      27.405 -24.373 -17.205  0.00  0.00    -0.435 OA
ATOM     10  C   UNL     1      29.064 -22.981 -16.517  0.00  0.00    +0.179 C 
ATOM     11  C   UNL     1      28.571 -24.266 -16.512  0.00  0.00    +0.177 C 
ATOM     12  C   UNL     1      30.239 -22.652 -15.871  0.00  0.00    +0.078 C 
ATOM     13  C   UNL     1      30.920 -23.674 -15.203  0.00  0.00    +0.151 C 
ATOM     14  C   UNL     1      29.224 -25.292 -15.860  0.00  0.00    +0.043 C 
ATOM     15  C   UNL     1      27.221 -23.013 -17.648  0.00  0.00    +0.429 C 
ATOM     16  C   UNL     1      30.415 -24.985 -15.198  0.00  0.00    +0.041 C 
ENDBRANCH   7  13
ENDBRANCH   3   7
BRANCH   4  17
ATOM     17  O   UNL     1      34.139 -23.420 -18.706  0.00  0.00    -0.383 OA
BRANCH  17  21
ATOM     18  C   UNL     1      34.579 -20.021 -21.048  0.00  0.00    +0.057 C 
ATOM     19  C   UNL     1      33.305 -20.452 -20.676  0.00  0.00    +0.018 C 
ATOM     20  C   UNL     1      35.705 -20.732 -20.632  0.00  0.00    +0.018 C 
ATOM     21  C   UNL     1      34.285 -22.291 -19.483  0.00  0.00    +0.160 C 
ATOM     22  C   UNL     1      33.158 -21.594 -19.889  0.00  0.00    +0.040 C 
ATOM     23  C   UNL     1      35.557 -21.874 -19.845  0.00  0.00    +0.040 C 
BRANCH  18  24
ATOM     24  N   UNL     1      34.726 -18.889 -21.827  0.00  0.00    -0.246 N 
ATOM     25  N   UNL     1      35.172 -16.777 -22.382  0.00  0.00    -0.224 NA
ATOM     26  C   UNL     1      34.501 -18.791 -23.177  0.00  0.00    +0.092 C 
ATOM     27  C   UNL     1      35.128 -17.649 -21.399  0.00  0.00    +0.172 C 
ATOM     28  C   UNL     1      34.782 -17.482 -23.493  0.00  0.00    +0.117 C 
ENDBRANCH  18  24
ENDBRANCH  17  21
ENDBRANCH   4  17
TORSDOF 5
ENDMDL
MODEL 3
REMARK VINA RESULT:     -11.5      4.425      8.426
REMARK  Name = 9969613
REMARK  5 active torsions:
REMARK  status: ('A' for Active; 'I' for Inactive)
REMARK    1  A    between atoms: C_3  and  O_7
REMARK    2  A    between atoms: C_4  and  O_17
REMARK    3  A    between atoms: O_7  and  C_13
REMARK    4  A    between atoms: O_17  and  C_21
REMARK    5  A    between atoms: C_18  and  N_24
REMARK                            x       y       z     vdW  Elec       q    Type
REMARK                         _______ _______ _______ _____ _____    ______ ____
ROOT
ATOM      1  N   UNL     1      35.539 -17.529 -22.970  0.00  0.00    -0.283 NA
ATOM      2  N   UNL     1      34.206 -17.429 -24.976  0.00  0.00    -0.151 NA
ATOM      3  C   UNL     1      35.194 -18.823 -22.867  0.00  0.00    +0.296 C 
ATOM      4  C   UNL     1      35.015 -16.898 -24.038  0.00  0.00    +0.260 C 
ATOM      5  C   UNL     1      34.381 -19.492 -23.748  0.00  0.00    +0.094 C 
ATOM      6  C   UNL     1      33.909 -18.734 -24.799  0.00  0.00    +0.119 C 
ENDROOT
BRANCH   3   7
ATOM      7  O   UNL     1      35.710 -19.515 -21.783  0.00  0.00    -0.427 OA
BRANCH   7  13
ATOM      8  O   UNL     1      34.690 -22.903 -18.507  0.00  0.00    -0.435 OA
ATOM      9  O   UNL     1      32.326 -22.461 -18.660  0.00  0.00    -0.435 OA
ATOM     10  C   UNL     1      34.406 -21.915 -19.399  0.00  0.00    +0.179 C 
ATOM     11  C   UNL     1      33.055 -21.662 -19.486  0.00  0.00    +0.177 C 
ATOM     12  C   UNL     1      35.325 -21.216 -20.153  0.00  0.00    +0.078 C 
ATOM     13  C   UNL     1      34.840 -20.231 -21.019  0.00  0.00    +0.151 C 
ATOM     14  C   UNL     1      32.551 -20.696 -20.333  0.00  0.00    +0.043 C 
ATOM     15  C   UNL     1      33.369 -23.244 -18.043  0.00  0.00    +0.429 C 
ATOM     16  C   UNL     1      33.461 -19.974 -21.109  0.00  0.00    +0.041 C 
ENDBRANCH   7  13
ENDBRANCH   3   7
BRANCH   4  17
ATOM     17  O   UNL     1      35.340 -15.570 -24.188  0.00  0.00    -0.383 OA
BRANCH  17  21
ATOM     18  C   UNL     1      32.802 -12.792 -22.434  0.00  0.00    +0.057 C 
ATOM     19  C   UNL     1      33.337 -13.828 -21.669  0.00  0.00    +0.018 C 
ATOM     20  C   UNL     1      33.120 -12.689 -23.789  0.00  0.00    +0.018 C 
ATOM     21  C   UNL     1      34.497 -14.647 -23.605  0.00  0.00    +0.160 C 
ATOM     22  C   UNL     1      34.190 -14.761 -22.259  0.00  0.00    +0.040 C 
ATOM     23  C   UNL     1      33.973 -13.623 -24.378  0.00  0.00    +0.040 C 
BRANCH  18  24
ATOM     24  N   UNL     1      31.957 -11.866 -21.850  0.00  0.00    -0.246 N 
ATOM     25  N   UNL     1      30.848  -9.960 -21.530  0.00  0.00    -0.224 NA
ATOM     26  C   UNL     1      31.214 -12.042 -20.711  0.00  0.00    +0.092 C 
ATOM     27  C   UNL     1      31.699 -10.597 -22.303  0.00  0.00    +0.172 C 
ATOM     28  C   UNL     1      30.541 -10.855 -20.536  0.00  0.00    +0.117 C 
ENDBRANCH  18  24
ENDBRANCH  17  21
ENDBRANCH   4  17
TORSDOF 5
ENDMDL
MODEL 4
REMARK VINA RESULT:     -10.9      1.509      2.271
REMARK  Name = 9969613
REMARK  5 active torsions:
REMARK  status: ('A' for Active; 'I' for Inactive)
REMARK    1  A    between atoms: C_3  and  O_7
REMARK    2  A    between atoms: C_4  and  O_17
REMARK    3  A    between atoms: O_7  and  C_13
REMARK    4  A    between atoms: O_17  and  C_21
REMARK    5  A    between atoms: C_18  and  N_24
REMARK                            x       y       z     vdW  Elec       q    Type
REMARK                         _______ _______ _______ _____ _____    ______ ____
ROOT
ATOM      1  N   UNL     1      35.725 -22.383 -17.568  0.00  0.00    -0.283 NA
ATOM      2  N   UNL     1      34.214 -22.245 -19.442  0.00  0.00    -0.151 NA
ATOM      3  C   UNL     1      34.729 -22.954 -16.872  0.00  0.00    +0.296 C 
ATOM      4  C   UNL     1      35.402 -22.057 -18.835  0.00  0.00    +0.260 C 
ATOM      5  C   UNL     1      33.472 -23.205 -17.363  0.00  0.00    +0.094 C 
ATOM      6  C   UNL     1      33.267 -22.825 -18.673  0.00  0.00    +0.119 C 
ENDROOT
BRANCH   3   7
ATOM      7  O   UNL     1      35.013 -23.306 -15.564  0.00  0.00    -0.427 OA
BRANCH   7  13
ATOM      8  O   UNL     1      39.598 -24.582 -14.787  0.00  0.00    -0.435 OA
ATOM      9  O   UNL     1      39.027 -26.922 -14.724  0.00  0.00    -0.435 OA
ATOM     10  C   UNL     1      38.268 -24.794 -14.975  0.00  0.00    +0.179 C 
ATOM     11  C   UNL     1      37.940 -26.130 -14.938  0.00  0.00    +0.177 C 
ATOM     12  C   UNL     1      37.313 -23.819 -15.182  0.00  0.00    +0.078 C 
ATOM     13  C   UNL     1      35.990 -24.233 -15.356  0.00  0.00    +0.151 C 
ATOM     14  C   UNL     1      36.642 -26.565 -15.108  0.00  0.00    +0.043 C 
ATOM     15  C   UNL     1      40.073 -25.933 -14.628  0.00  0.00    +0.429 C 
ATOM     16  C   UNL     1      35.657 -25.597 -15.320  0.00  0.00    +0.041 C 
ENDBRANCH   7  13
ENDBRANCH   3   7
BRANCH   4  17
ATOM     17  O   UNL     1      36.390 -21.469 -19.589  0.00  0.00    -0.383 OA
BRANCH  17  21
ATOM     18  C   UNL     1      35.214 -18.601 -22.350  0.00  0.00    +0.057 C 
ATOM     19  C   UNL     1      34.303 -19.563 -21.912  0.00  0.00    +0.018 C 
ATOM     20  C   UNL     1      36.521 -18.604 -21.861  0.00  0.00    +0.018 C 
ATOM     21  C   UNL     1      36.000 -20.517 -20.506  0.00  0.00    +0.160 C 
ATOM     22  C   UNL     1      34.699 -20.526 -20.984  0.00  0.00    +0.040 C 
ATOM     23  C   UNL     1      36.916 -19.567 -20.932  0.00  0.00    +0.040 C 
BRANCH  18  24
ATOM     24  N   UNL     1      34.823 -17.646 -23.270  0.00  0.00    -0.246 N 
ATOM     25  N   UNL     1      34.009 -16.762 -25.147  0.00  0.00    -0.224 NA
ATOM     26  C   UNL     1      34.901 -16.285 -23.118  0.00  0.00    +0.092 C 
ATOM     27  C   UNL     1      34.279 -17.878 -24.508  0.00  0.00    +0.172 C 
ATOM     28  C   UNL     1      34.395 -15.765 -24.286  0.00  0.00    +0.117 C 
ENDBRANCH  18  24
ENDBRANCH  17  21
ENDBRANCH   4  17
TORSDOF 5
ENDMDL
MODEL 5
REMARK VINA RESULT:     -10.6      3.701      7.303
REMARK  Name = 9969613
REMARK  5 active torsions:
REMARK  status: ('A' for Active; 'I' for Inactive)
REMARK    1  A    between atoms: C_3  and  O_7
REMARK    2  A    between atoms: C_4  and  O_17
REMARK    3  A    between atoms: O_7  and  C_13
REMARK    4  A    between atoms: O_17  and  C_21
REMARK    5  A    between atoms: C_18  and  N_24
REMARK                            x       y       z     vdW  Elec       q    Type
REMARK                         _______ _______ _______ _____ _____    ______ ____
ROOT
ATOM      1  N   UNL     1      34.035 -24.400 -14.841  0.00  0.00    -0.283 NA
ATOM      2  N   UNL     1      34.439 -24.009 -12.497  0.00  0.00    -0.151 NA
ATOM      3  C   UNL     1      35.243 -23.868 -15.086  0.00  0.00    +0.296 C 
ATOM      4  C   UNL     1      33.699 -24.439 -13.537  0.00  0.00    +0.260 C 
ATOM      5  C   UNL     1      36.101 -23.392 -14.126  0.00  0.00    +0.094 C 
ATOM      6  C   UNL     1      35.640 -23.489 -12.829  0.00  0.00    +0.119 C 
ENDROOT
BRANCH   3   7
ATOM      7  O   UNL     1      35.633 -23.806 -16.414  0.00  0.00    -0.427 OA
BRANCH   7  13
ATOM      8  O   UNL     1      34.766 -20.913 -20.173  0.00  0.00    -0.435 OA
ATOM      9  O   UNL     1      32.387 -21.250 -19.993  0.00  0.00    -0.435 OA
ATOM     10  C   UNL     1      34.438 -21.747 -19.149  0.00  0.00    +0.179 C 
ATOM     11  C   UNL     1      33.079 -21.941 -19.046  0.00  0.00    +0.177 C 
ATOM     12  C   UNL     1      35.325 -22.356 -18.284  0.00  0.00    +0.078 C 
ATOM     13  C   UNL     1      34.797 -23.184 -17.290  0.00  0.00    +0.151 C 
ATOM     14  C   UNL     1      32.533 -22.753 -18.073  0.00  0.00    +0.043 C 
ATOM     15  C   UNL     1      33.462 -20.603 -20.703  0.00  0.00    +0.429 C 
ATOM     16  C   UNL     1      33.409 -23.380 -17.185  0.00  0.00    +0.041 C 
ENDBRANCH   7  13
ENDBRANCH   3   7
BRANCH   4  17
ATOM     17  O   UNL     1      32.469 -24.976 -13.236  0.00  0.00    -0.383 OA
BRANCH  17  21
ATOM     18  C   UNL     1      29.234 -23.685 -15.494  0.00  0.00    +0.057 C 
ATOM     19  C   UNL     1      30.140 -22.758 -14.980  0.00  0.00    +0.018 C 
ATOM     20  C   UNL     1      29.414 -25.047 -15.248  0.00  0.00    +0.018 C 
ATOM     21  C   UNL     1      31.395 -24.548 -13.986  0.00  0.00    +0.160 C 
ATOM     22  C   UNL     1      31.228 -23.193 -14.222  0.00  0.00    +0.040 C 
ATOM     23  C   UNL     1      30.502 -25.481 -14.490  0.00  0.00    +0.040 C 
BRANCH  18  24
ATOM     24  N   UNL     1      28.156 -23.256 -16.246  0.00  0.00    -0.246 N 
ATOM     25  N   UNL     1      26.787 -23.016 -17.988  0.00  0.00    -0.224 NA
ATOM     26  C   UNL     1      27.147 -22.427 -15.829  0.00  0.00    +0.092 C 
ATOM     27  C   UNL     1      27.890 -23.582 -17.552  0.00  0.00    +0.172 C 
ATOM     28  C   UNL     1      26.318 -22.294 -16.919  0.00  0.00    +0.117 C 
ENDBRANCH  18  24
ENDBRANCH  17  21
ENDBRANCH   4  17
TORSDOF 5
ENDMDL
MODEL 6
REMARK VINA RESULT:     -10.5      3.075      5.342
REMARK  Name = 9969613
REMARK  5 active torsions:
REMARK  status: ('A' for Active; 'I' for Inactive)
REMARK    1  A    between atoms: C_3  and  O_7
REMARK    2  A    between atoms: C_4  and  O_17
REMARK    3  A    between atoms: O_7  and  C_13
REMARK    4  A    between atoms: O_17  and  C_21
REMARK    5  A    between atoms: C_18  and  N_24
REMARK                            x       y       z     vdW  Elec       q    Type
REMARK                         _______ _______ _______ _____ _____    ______ ____
ROOT
ATOM      1  N   UNL     1      35.208 -21.450 -19.897  0.00  0.00    -0.283 NA
ATOM      2  N   UNL     1      33.508 -20.084 -20.923  0.00  0.00    -0.151 NA
ATOM      3  C   UNL     1      34.224 -22.110 -19.264  0.00  0.00    +0.296 C 
ATOM      4  C   UNL     1      34.783 -20.459 -20.703  0.00  0.00    +0.260 C 
ATOM      5  C   UNL     1      32.886 -21.835 -19.394  0.00  0.00    +0.094 C 
ATOM      6  C   UNL     1      32.581 -20.797 -20.249  0.00  0.00    +0.119 C 
ENDROOT
BRANCH   3   7
ATOM      7  O   UNL     1      34.613 -23.139 -18.422  0.00  0.00    -0.427 OA
BRANCH   7  13
ATOM      8  O   UNL     1      30.682 -23.741 -15.694  0.00  0.00    -0.435 OA
ATOM      9  O   UNL     1      31.964 -23.579 -13.660  0.00  0.00    -0.435 OA
ATOM     10  C   UNL     1      32.007 -23.546 -15.933  0.00  0.00    +0.179 C 
ATOM     11  C   UNL     1      32.741 -23.454 -14.771  0.00  0.00    +0.177 C 
ATOM     12  C   UNL     1      32.601 -23.445 -17.174  0.00  0.00    +0.078 C 
ATOM     13  C   UNL     1      33.983 -23.244 -17.219  0.00  0.00    +0.151 C 
ATOM     14  C   UNL     1      34.106 -23.255 -14.788  0.00  0.00    +0.043 C 
ATOM     15  C   UNL     1      30.662 -23.761 -14.253  0.00  0.00    +0.429 C 
ATOM     16  C   UNL     1      34.731 -23.149 -16.033  0.00  0.00    +0.041 C 
ENDBRANCH   7  13
ENDBRANCH   3   7
BRANCH   4  17
ATOM     17  O   UNL     1      35.755 -19.754 -21.374  0.00  0.00    -0.383 OA
BRANCH  17  21
ATOM     18  C   UNL     1      34.537 -16.407 -23.507  0.00  0.00    +0.057 C 
ATOM     19  C   UNL     1      34.642 -17.642 -24.147  0.00  0.00    +0.018 C 
ATOM     20  C   UNL     1      34.841 -16.297 -22.149  0.00  0.00    +0.018 C 
ATOM     21  C   UNL     1      35.350 -18.642 -22.082  0.00  0.00    +0.160 C 
ATOM     22  C   UNL     1      35.051 -18.766 -23.430  0.00  0.00    +0.040 C 
ATOM     23  C   UNL     1      35.251 -17.422 -21.433  0.00  0.00    +0.040 C 
BRANCH  18  24
ATOM     24  N   UNL     1      34.131 -15.292 -24.216  0.00  0.00    -0.246 N 
ATOM     25  N   UNL     1      33.327 -14.058 -25.890  0.00  0.00    -0.224 NA
ATOM     26  C   UNL     1      34.155 -13.992 -23.780  0.00  0.00    +0.092 C 
ATOM     27  C   UNL     1      33.624 -15.276 -25.491  0.00  0.00    +0.172 C 
ATOM     28  C   UNL     1      33.657 -13.253 -24.828  0.00  0.00    +0.117 C 
ENDBRANCH  18  24
ENDBRANCH  17  21
ENDBRANCH   4  17
TORSDOF 5
ENDMDL
MODEL 7
REMARK VINA RESULT:     -10.4      9.115     14.379
REMARK  Name = 9969613
REMARK  5 active torsions:
REMARK  status: ('A' for Active; 'I' for Inactive)
REMARK    1  A    between atoms: C_3  and  O_7
REMARK    2  A    between atoms: C_4  and  O_17
REMARK    3  A    between atoms: O_7  and  C_13
REMARK    4  A    between atoms: O_17  and  C_21
REMARK    5  A    between atoms: C_18  and  N_24
REMARK                            x       y       z     vdW  Elec       q    Type
REMARK                         _______ _______ _______ _____ _____    ______ ____
ROOT
ATOM      1  N   UNL     1      33.112 -10.146 -25.193  0.00  0.00    -0.283 NA
ATOM      2  N   UNL     1      35.141 -10.947 -26.217  0.00  0.00    -0.151 NA
ATOM      3  C   UNL     1      33.747  -8.986 -24.961  0.00  0.00    +0.296 C 
ATOM      4  C   UNL     1      33.861 -11.074 -25.818  0.00  0.00    +0.260 C 
ATOM      5  C   UNL     1      35.047  -8.719 -25.312  0.00  0.00    +0.094 C 
ATOM      6  C   UNL     1      35.706  -9.751 -25.947  0.00  0.00    +0.119 C 
ENDROOT
BRANCH   3   7
ATOM      7  O   UNL     1      33.016  -8.000 -24.319  0.00  0.00    -0.427 OA
BRANCH   7  13
ATOM      8  O   UNL     1      30.815 -10.427 -20.781  0.00  0.00    -0.435 OA
ATOM      9  O   UNL     1      31.659  -8.917 -19.103  0.00  0.00    -0.435 OA
ATOM     10  C   UNL     1      31.586  -9.441 -21.314  0.00  0.00    +0.179 C 
ATOM     11  C   UNL     1      32.069  -8.579 -20.356  0.00  0.00    +0.177 C 
ATOM     12  C   UNL     1      31.883  -9.278 -22.652  0.00  0.00    +0.078 C 
ATOM     13  C   UNL     1      32.697  -8.200 -23.010  0.00  0.00    +0.151 C 
ATOM     14  C   UNL     1      32.874  -7.506 -20.683  0.00  0.00    +0.043 C 
ATOM     15  C   UNL     1      30.865 -10.089 -19.381  0.00  0.00    +0.429 C 
ATOM     16  C   UNL     1      33.188  -7.319 -22.032  0.00  0.00    +0.041 C 
ENDBRANCH   7  13
ENDBRANCH   3   7
BRANCH   4  17
ATOM     17  O   UNL     1      33.253 -12.280 -26.078  0.00  0.00    -0.383 OA
BRANCH  17  21
ATOM     18  C   UNL     1      34.377 -15.513 -23.729  0.00  0.00    +0.057 C 
ATOM     19  C   UNL     1      34.003 -15.713 -25.058  0.00  0.00    +0.018 C 
ATOM     20  C   UNL     1      34.373 -14.227 -23.190  0.00  0.00    +0.018 C 
ATOM     21  C   UNL     1      33.627 -13.354 -25.298  0.00  0.00    +0.160 C 
ATOM     22  C   UNL     1      33.626 -14.626 -25.847  0.00  0.00    +0.040 C 
ATOM     23  C   UNL     1      33.996 -13.140 -23.979  0.00  0.00    +0.040 C 
BRANCH  18  24
ATOM     24  N   UNL     1      34.751 -16.590 -22.946  0.00  0.00    -0.246 N 
ATOM     25  N   UNL     1      35.284 -17.769 -21.132  0.00  0.00    -0.224 NA
ATOM     26  C   UNL     1      35.013 -17.864 -23.380  0.00  0.00    +0.092 C 
ATOM     27  C   UNL     1      34.929 -16.587 -21.586  0.00  0.00    +0.172 C 
ATOM     28  C   UNL     1      35.339 -18.569 -22.245  0.00  0.00    +0.117 C 
ENDBRANCH  18  24
ENDBRANCH  17  21
ENDBRANCH   4  17
TORSDOF 5
ENDMDL
MODEL 8
REMARK VINA RESULT:     -10.3      3.545      9.780
REMARK  Name = 9969613
REMARK  5 active torsions:
REMARK  status: ('A' for Active; 'I' for Inactive)
REMARK    1  A    between atoms: C_3  and  O_7
REMARK    2  A    between atoms: C_4  and  O_17
REMARK    3  A    between atoms: O_7  and  C_13
REMARK    4  A    between atoms: O_17  and  C_21
REMARK    5  A    between atoms: C_18  and  N_24
REMARK                            x       y       z     vdW  Elec       q    Type
REMARK                         _______ _______ _______ _____ _____    ______ ____
ROOT
ATOM      1  N   UNL     1      35.388 -20.883 -20.332  0.00  0.00    -0.283 NA
ATOM      2  N   UNL     1      33.146 -21.516 -19.712  0.00  0.00    -0.151 NA
ATOM      3  C   UNL     1      34.847 -19.985 -21.172  0.00  0.00    +0.296 C 
ATOM      4  C   UNL     1      34.488 -21.608 -19.640  0.00  0.00    +0.260 C 
ATOM      5  C   UNL     1      33.501 -19.784 -21.345  0.00  0.00    +0.094 C 
ATOM      6  C   UNL     1      32.685 -20.589 -20.578  0.00  0.00    +0.119 C 
ENDROOT
BRANCH   3   7
ATOM      7  O   UNL     1      35.734 -19.215 -21.906  0.00  0.00    -0.427 OA
BRANCH   7  13
ATOM      8  O   UNL     1      34.687 -14.867 -23.710  0.00  0.00    -0.435 OA
ATOM      9  O   UNL     1      33.698 -15.829 -25.685  0.00  0.00    -0.435 OA
ATOM     10  C   UNL     1      34.730 -16.226 -23.699  0.00  0.00    +0.179 C 
ATOM     11  C   UNL     1      34.166 -16.777 -24.827  0.00  0.00    +0.177 C 
ATOM     12  C   UNL     1      35.265 -17.012 -22.699  0.00  0.00    +0.078 C 
ATOM     13  C   UNL     1      35.218 -18.399 -22.867  0.00  0.00    +0.151 C 
ATOM     14  C   UNL     1      34.105 -18.143 -25.017  0.00  0.00    +0.043 C 
ATOM     15  C   UNL     1      34.032 -14.622 -24.970  0.00  0.00    +0.429 C 
ATOM     16  C   UNL     1      34.640 -18.960 -24.018  0.00  0.00    +0.041 C 
ENDBRANCH   7  13
ENDBRANCH   3   7
BRANCH   4  17
ATOM     17  O   UNL     1      34.994 -22.541 -18.766  0.00  0.00    -0.383 OA
BRANCH  17  21
ATOM     18  C   UNL     1      32.560 -23.693 -15.606  0.00  0.00    +0.057 C 
ATOM     19  C   UNL     1      33.922 -23.481 -15.396  0.00  0.00    +0.018 C 
ATOM     20  C   UNL     1      32.015 -23.519 -16.879  0.00  0.00    +0.018 C 
ATOM     21  C   UNL     1      34.186 -22.924 -17.717  0.00  0.00    +0.160 C 
ATOM     22  C   UNL     1      34.740 -23.093 -16.458  0.00  0.00    +0.040 C 
ATOM     23  C   UNL     1      32.834 -23.131 -17.940  0.00  0.00    +0.040 C 
BRANCH  18  24
ATOM     24  N   UNL     1      31.749 -24.077 -14.554  0.00  0.00    -0.246 N 
ATOM     25  N   UNL     1      30.526 -23.929 -12.697  0.00  0.00    -0.224 NA
ATOM     26  C   UNL     1      31.259 -25.336 -14.316  0.00  0.00    +0.092 C 
ATOM     27  C   UNL     1      31.277 -23.269 -13.550  0.00  0.00    +0.172 C 
ATOM     28  C   UNL     1      30.511 -25.218 -13.168  0.00  0.00    +0.117 C 
ENDBRANCH  18  24
ENDBRANCH  17  21
ENDBRANCH   4  17
TORSDOF 5
ENDMDL
MODEL 9
REMARK VINA RESULT:     -10.3      9.544     15.771
REMARK  Name = 9969613
REMARK  5 active torsions:
REMARK  status: ('A' for Active; 'I' for Inactive)
REMARK    1  A    between atoms: C_3  and  O_7
REMARK    2  A    between atoms: C_4  and  O_17
REMARK    3  A    between atoms: O_7  and  C_13
REMARK    4  A    between atoms: O_17  and  C_21
REMARK    5  A    between atoms: C_18  and  N_24
REMARK                            x       y       z     vdW  Elec       q    Type
REMARK                         _______ _______ _______ _____ _____    ______ ____
ROOT
ATOM      1  N   UNL     1      34.232 -10.442 -24.434  0.00  0.00    -0.283 NA
ATOM      2  N   UNL     1      34.393 -11.559 -26.564  0.00  0.00    -0.151 NA
ATOM      3  C   UNL     1      35.125  -9.550 -24.892  0.00  0.00    +0.296 C 
ATOM      4  C   UNL     1      33.913 -11.411 -25.314  0.00  0.00    +0.260 C 
ATOM      5  C   UNL     1      35.695  -9.580 -26.141  0.00  0.00    +0.094 C 
ATOM      6  C   UNL     1      35.286 -10.621 -26.947  0.00  0.00    +0.119 C 
ENDROOT
BRANCH   3   7
ATOM      7  O   UNL     1      35.485  -8.535 -24.022  0.00  0.00    -0.427 OA
BRANCH   7  13
ATOM      8  O   UNL     1      33.738  -4.333 -25.618  0.00  0.00    -0.435 OA
ATOM      9  O   UNL     1      32.209  -4.166 -23.764  0.00  0.00    -0.435 OA
ATOM     10  C   UNL     1      33.839  -5.391 -24.769  0.00  0.00    +0.179 C 
ATOM     11  C   UNL     1      32.965  -5.297 -23.710  0.00  0.00    +0.177 C 
ATOM     12  C   UNL     1      34.698  -6.462 -24.907  0.00  0.00    +0.078 C 
ATOM     13  C   UNL     1      34.656  -7.459 -23.928  0.00  0.00    +0.151 C 
ATOM     14  C   UNL     1      32.903  -6.266 -22.730  0.00  0.00    +0.043 C 
ATOM     15  C   UNL     1      32.705  -3.561 -24.976  0.00  0.00    +0.429 C 
ATOM     16  C   UNL     1      33.764  -7.361 -22.846  0.00  0.00    +0.041 C 
ENDBRANCH   7  13
ENDBRANCH   3   7
BRANCH   4  17
ATOM     17  O   UNL     1      33.000 -12.348 -24.892  0.00  0.00    -0.383 OA
BRANCH  17  21
ATOM     18  C   UNL     1      34.505 -15.868 -23.287  0.00  0.00    +0.057 C 
ATOM     19  C   UNL     1      34.409 -14.725 -22.493  0.00  0.00    +0.018 C 
ATOM     20  C   UNL     1      34.096 -15.829 -24.620  0.00  0.00    +0.018 C 
ATOM     21  C   UNL     1      33.499 -13.517 -24.359  0.00  0.00    +0.160 C 
ATOM     22  C   UNL     1      33.902 -13.543 -23.033  0.00  0.00    +0.040 C 
ATOM     23  C   UNL     1      33.590 -14.646 -25.159  0.00  0.00    +0.040 C 
BRANCH  18  24
ATOM     24  N   UNL     1      35.006 -17.041 -22.752  0.00  0.00    -0.246 N 
ATOM     25  N   UNL     1      35.677 -18.525 -21.231  0.00  0.00    -0.224 NA
ATOM     26  C   UNL     1      35.420 -18.146 -23.451  0.00  0.00    +0.092 C 
ATOM     27  C   UNL     1      35.182 -17.322 -21.421  0.00  0.00    +0.172 C 
ATOM     28  C   UNL     1      35.828 -19.044 -22.492  0.00  0.00    +0.117 C 
ENDBRANCH  18  24
ENDBRANCH  17  21
ENDBRANCH   4  17
TORSDOF 5
ENDMDL
