MODEL 1
REMARK VINA RESULT:     -11.9      0.000      0.000
REMARK  Name = 58212050
REMARK  2 active torsions:
REMARK  status: ('A' for Active; 'I' for Inactive)
REMARK    1  A    between atoms: C_2  and  C_13
REMARK    2  A    between atoms: C_10  and  C_26
REMARK                            x       y       z     vdW  Elec       q    Type
REMARK                         _______ _______ _______ _____ _____    ______ ____
ROOT
ATOM      1  N   UNL     1      36.829 -23.109 -16.922  0.00  0.00    +0.389 N 
ATOM      2  C   UNL     1      34.386 -23.345 -17.239  0.00  0.00    +0.023 C 
ATOM      3  C   UNL     1      35.546 -23.236 -16.221  0.00  0.00    -0.068 C 
ATOM      4  C   UNL     1      34.498 -22.336 -18.375  0.00  0.00    -0.026 C 
ATOM      5  C   UNL     1      35.703 -21.636 -18.577  0.00  0.00    -0.047 C 
ATOM      6  C   UNL     1      36.874 -21.825 -17.641  0.00  0.00    -0.050 C 
ATOM      7  C   UNL     1      33.444 -22.150 -19.286  0.00  0.00    -0.004 C 
ATOM      8  C   UNL     1      35.807 -20.718 -19.633  0.00  0.00    -0.005 C 
ATOM      9  C   UNL     1      37.945 -23.202 -15.980  0.00  0.00    -0.100 C 
ATOM     10  C   UNL     1      34.741 -20.523 -20.509  0.00  0.00    +0.019 C 
ATOM     11  C   UNL     1      33.563 -21.244 -20.339  0.00  0.00    +0.001 C 
ATOM     12  H   UNL     1      36.916 -23.873 -17.593  0.00  0.00    -0.079 HD
ENDROOT
BRANCH   2  13
ATOM     13  C   UNL     1      33.057 -23.303 -16.492  0.00  0.00    -0.020 C 
ATOM     14  C   UNL     1      31.866 -23.131 -17.198  0.00  0.00    -0.004 C 
ATOM     15  C   UNL     1      33.035 -23.436 -15.108  0.00  0.00    -0.004 C 
ATOM     16  C   UNL     1      30.635 -23.090 -16.525  0.00  0.00    -0.000 C 
ATOM     17  C   UNL     1      30.612 -23.224 -15.116  0.00  0.00    -0.000 C 
ATOM     18  C   UNL     1      31.820 -23.396 -14.422  0.00  0.00    -0.000 C 
ATOM     19  C   UNL     1      29.426 -22.917 -17.219  0.00  0.00    -0.000 C 
ATOM     20  C   UNL     1      29.380 -23.181 -14.442  0.00  0.00    -0.000 C 
ATOM     21  C   UNL     1      28.211 -22.877 -16.534  0.00  0.00    -0.000 C 
ATOM     22  C   UNL     1      28.188 -23.009 -15.148  0.00  0.00    -0.000 C 
ENDBRANCH   2  13
BRANCH  10  26
ATOM     23  N   UNL     1      35.628 -18.496 -21.344  0.00  0.00    -0.147 NA
ATOM     24  N   UNL     1      35.794 -17.558 -22.315  0.00  0.00    -0.133 NA
ATOM     25  N   UNL     1      35.359 -16.758 -24.519  0.00  0.00    -0.341 N 
ATOM     26  C   UNL     1      34.861 -19.578 -21.598  0.00  0.00    +0.103 C 
ATOM     27  C   UNL     1      34.229 -19.783 -22.808  0.00  0.00    +0.024 C 
ATOM     28  C   UNL     1      34.398 -18.829 -23.796  0.00  0.00    +0.037 C 
ATOM     29  C   UNL     1      35.187 -17.734 -23.509  0.00  0.00    +0.147 C 
ATOM     30  H   UNL     1      35.915 -15.965 -24.347  0.00  0.00    +0.144 HD
ATOM     31  H   UNL     1      34.922 -16.873 -25.393  0.00  0.00    +0.144 HD
ENDBRANCH  10  26
TORSDOF 2
ENDMDL
MODEL 2
REMARK VINA RESULT:     -11.5      8.262     13.876
REMARK  Name = 58212050
REMARK  2 active torsions:
REMARK  status: ('A' for Active; 'I' for Inactive)
REMARK    1  A    between atoms: C_2  and  C_13
REMARK    2  A    between atoms: C_10  and  C_26
REMARK                            x       y       z     vdW  Elec       q    Type
REMARK                         _______ _______ _______ _____ _____    ______ ____
ROOT
ATOM      1  N   UNL     1      30.950 -10.548 -20.781  0.00  0.00    +0.389 N 
ATOM      2  C   UNL     1      31.908  -9.844 -22.952  0.00  0.00    +0.023 C 
ATOM      3  C   UNL     1      31.596  -9.438 -21.492  0.00  0.00    -0.068 C 
ATOM      4  C   UNL     1      32.521 -11.235 -23.062  0.00  0.00    -0.026 C 
ATOM      5  C   UNL     1      32.486 -12.108 -21.958  0.00  0.00    -0.047 C 
ATOM      6  C   UNL     1      31.900 -11.663 -20.638  0.00  0.00    -0.050 C 
ATOM      7  C   UNL     1      33.050 -11.699 -24.278  0.00  0.00    -0.004 C 
ATOM      8  C   UNL     1      33.040 -13.392 -22.067  0.00  0.00    -0.005 C 
ATOM      9  C   UNL     1      30.475 -10.114 -19.467  0.00  0.00    -0.100 C 
ATOM     10  C   UNL     1      33.588 -13.827 -23.273  0.00  0.00    +0.019 C 
ATOM     11  C   UNL     1      33.586 -12.983 -24.379  0.00  0.00    +0.001 C 
ATOM     12  H   UNL     1      30.144 -10.861 -21.321  0.00  0.00    -0.079 HD
ENDROOT
BRANCH   2  13
ATOM     13  C   UNL     1      32.728  -8.743 -23.615  0.00  0.00    -0.020 C 
ATOM     14  C   UNL     1      32.087  -7.727 -24.323  0.00  0.00    -0.004 C 
ATOM     15  C   UNL     1      34.115  -8.753 -23.513  0.00  0.00    -0.004 C 
ATOM     16  C   UNL     1      32.827  -6.706 -24.940  0.00  0.00    -0.000 C 
ATOM     17  C   UNL     1      34.239  -6.716 -24.837  0.00  0.00    -0.000 C 
ATOM     18  C   UNL     1      34.867  -7.747 -24.120  0.00  0.00    -0.000 C 
ATOM     19  C   UNL     1      32.198  -5.675 -25.657  0.00  0.00    -0.000 C 
ATOM     20  C   UNL     1      34.980  -5.695 -25.454  0.00  0.00    -0.000 C 
ATOM     21  C   UNL     1      32.950  -4.668 -26.264  0.00  0.00    -0.000 C 
ATOM     22  C   UNL     1      34.338  -4.679 -26.163  0.00  0.00    -0.000 C 
ENDBRANCH   2  13
BRANCH  10  26
ATOM     23  N   UNL     1      34.624 -15.675 -22.223  0.00  0.00    -0.147 NA
ATOM     24  N   UNL     1      35.169 -16.921 -22.232  0.00  0.00    -0.133 NA
ATOM     25  N   UNL     1      35.790 -18.902 -23.405  0.00  0.00    -0.341 N 
ATOM     26  C   UNL     1      34.150 -15.156 -23.376  0.00  0.00    +0.103 C 
ATOM     27  C   UNL     1      34.192 -15.833 -24.578  0.00  0.00    +0.024 C 
ATOM     28  C   UNL     1      34.747 -17.101 -24.587  0.00  0.00    +0.037 C 
ATOM     29  C   UNL     1      35.223 -17.606 -23.395  0.00  0.00    +0.147 C 
ATOM     30  H   UNL     1      36.139 -19.293 -22.571  0.00  0.00    +0.144 HD
ATOM     31  H   UNL     1      35.836 -19.413 -24.245  0.00  0.00    +0.144 HD
ENDBRANCH  10  26
TORSDOF 2
ENDMDL
MODEL 3
REMARK VINA RESULT:     -11.3      8.385     14.110
REMARK  Name = 58212050
REMARK  2 active torsions:
REMARK  status: ('A' for Active; 'I' for Inactive)
REMARK    1  A    between atoms: C_2  and  C_13
REMARK    2  A    between atoms: C_10  and  C_26
REMARK                            x       y       z     vdW  Elec       q    Type
REMARK                         _______ _______ _______ _____ _____    ______ ____
ROOT
ATOM      1  N   UNL     1      31.139 -10.404 -20.908  0.00  0.00    +0.389 N 
ATOM      2  C   UNL     1      31.990  -9.620 -23.097  0.00  0.00    +0.023 C 
ATOM      3  C   UNL     1      31.818  -9.298 -21.592  0.00  0.00    -0.068 C 
ATOM      4  C   UNL     1      32.481 -11.041 -23.345  0.00  0.00    -0.026 C 
ATOM      5  C   UNL     1      32.456 -11.986 -22.302  0.00  0.00    -0.047 C 
ATOM      6  C   UNL     1      32.005 -11.594 -20.913  0.00  0.00    -0.050 C 
ATOM      7  C   UNL     1      32.881 -11.455 -24.627  0.00  0.00    -0.004 C 
ATOM      8  C   UNL     1      32.896 -13.297 -22.538  0.00  0.00    -0.005 C 
ATOM      9  C   UNL     1      30.797 -10.031 -19.535  0.00  0.00    -0.100 C 
ATOM     10  C   UNL     1      33.318 -13.683 -23.809  0.00  0.00    +0.019 C 
ATOM     11  C   UNL     1      33.304 -12.764 -24.854  0.00  0.00    +0.001 C 
ATOM     12  H   UNL     1      30.273 -10.617 -21.403  0.00  0.00    -0.079 HD
ENDROOT
BRANCH   2  13
ATOM     13  C   UNL     1      32.845  -8.538 -23.747  0.00  0.00    -0.020 C 
ATOM     14  C   UNL     1      32.240  -7.525 -24.490  0.00  0.00    -0.004 C 
ATOM     15  C   UNL     1      34.228  -8.564 -23.599  0.00  0.00    -0.004 C 
ATOM     16  C   UNL     1      33.013  -6.522 -25.096  0.00  0.00    -0.000 C 
ATOM     17  C   UNL     1      34.420  -6.547 -24.947  0.00  0.00    -0.000 C 
ATOM     18  C   UNL     1      35.012  -7.575 -24.195  0.00  0.00    -0.000 C 
ATOM     19  C   UNL     1      32.420  -5.494 -25.848  0.00  0.00    -0.000 C 
ATOM     20  C   UNL     1      35.194  -5.544 -25.554  0.00  0.00    -0.000 C 
ATOM     21  C   UNL     1      33.204  -4.505 -26.444  0.00  0.00    -0.000 C 
ATOM     22  C   UNL     1      34.588  -4.531 -26.297  0.00  0.00    -0.000 C 
ENDBRANCH   2  13
BRANCH  10  26
ATOM     23  N   UNL     1      33.334 -15.600 -25.194  0.00  0.00    -0.147 NA
ATOM     24  N   UNL     1      33.708 -16.874 -25.491  0.00  0.00    -0.133 NA
ATOM     25  N   UNL     1      34.888 -18.870 -24.934  0.00  0.00    -0.341 N 
ATOM     26  C   UNL     1      33.764 -15.039 -24.043  0.00  0.00    +0.103 C 
ATOM     27  C   UNL     1      34.572 -15.702 -23.141  0.00  0.00    +0.024 C 
ATOM     28  C   UNL     1      34.952 -16.998 -23.443  0.00  0.00    +0.037 C 
ATOM     29  C   UNL     1      34.499 -17.545 -24.626  0.00  0.00    +0.147 C 
ATOM     30  H   UNL     1      34.582 -19.290 -25.771  0.00  0.00    +0.144 HD
ATOM     31  H   UNL     1      35.463 -19.371 -24.313  0.00  0.00    +0.144 HD
ENDBRANCH  10  26
TORSDOF 2
ENDMDL
MODEL 4
REMARK VINA RESULT:      -9.5      9.765     15.811
REMARK  Name = 58212050
REMARK  2 active torsions:
REMARK  status: ('A' for Active; 'I' for Inactive)
REMARK    1  A    between atoms: C_2  and  C_13
REMARK    2  A    between atoms: C_10  and  C_26
REMARK                            x       y       z     vdW  Elec       q    Type
REMARK                         _______ _______ _______ _____ _____    ______ ____
ROOT
ATOM      1  N   UNL     1      31.541  -8.278 -21.912  0.00  0.00    +0.389 N 
ATOM      2  C   UNL     1      32.454  -7.822 -24.168  0.00  0.00    +0.023 C 
ATOM      3  C   UNL     1      32.305  -7.315 -22.713  0.00  0.00    -0.068 C 
ATOM      4  C   UNL     1      32.834  -9.295 -24.244  0.00  0.00    -0.026 C 
ATOM      5  C   UNL     1      32.733 -10.108 -23.099  0.00  0.00    -0.047 C 
ATOM      6  C   UNL     1      32.312  -9.524 -21.770  0.00  0.00    -0.050 C 
ATOM      7  C   UNL     1      33.203  -9.886 -25.465  0.00  0.00    -0.004 C 
ATOM      8  C   UNL     1      33.071 -11.467 -23.177  0.00  0.00    -0.005 C 
ATOM      9  C   UNL     1      31.226  -7.723 -20.596  0.00  0.00    -0.100 C 
ATOM     10  C   UNL     1      33.464 -12.031 -24.389  0.00  0.00    +0.019 C 
ATOM     11  C   UNL     1      33.523 -11.241 -25.534  0.00  0.00    +0.001 C 
ATOM     12  H   UNL     1      30.662  -8.480 -22.389  0.00  0.00    -0.079 HD
ENDROOT
BRANCH   2  13
ATOM     13  C   UNL     1      33.392  -6.892 -24.930  0.00  0.00    -0.020 C 
ATOM     14  C   UNL     1      32.899  -5.716 -25.495  0.00  0.00    -0.004 C 
ATOM     15  C   UNL     1      34.738  -7.218 -25.061  0.00  0.00    -0.004 C 
ATOM     16  C   UNL     1      33.749  -4.850 -26.201  0.00  0.00    -0.000 C 
ATOM     17  C   UNL     1      35.118  -5.182 -26.335  0.00  0.00    -0.000 C 
ATOM     18  C   UNL     1      35.597  -6.369 -25.759  0.00  0.00    -0.000 C 
ATOM     19  C   UNL     1      33.269  -3.662 -26.778  0.00  0.00    -0.000 C 
ATOM     20  C   UNL     1      35.969  -4.315 -27.042  0.00  0.00    -0.000 C 
ATOM     21  C   UNL     1      34.129  -2.813 -27.476  0.00  0.00    -0.000 C 
ATOM     22  C   UNL     1      35.475  -3.139 -27.608  0.00  0.00    -0.000 C 
ENDBRANCH   2  13
BRANCH  10  26
ATOM     23  N   UNL     1      34.585 -13.893 -23.458  0.00  0.00    -0.147 NA
ATOM     24  N   UNL     1      34.950 -15.203 -23.449  0.00  0.00    -0.133 NA
ATOM     25  N   UNL     1      34.901 -17.375 -24.432  0.00  0.00    -0.341 N 
ATOM     26  C   UNL     1      33.803 -13.435 -24.460  0.00  0.00    +0.103 C 
ATOM     27  C   UNL     1      33.351 -14.239 -25.486  0.00  0.00    +0.024 C 
ATOM     28  C   UNL     1      33.722 -15.572 -25.477  0.00  0.00    +0.037 C 
ATOM     29  C   UNL     1      34.521 -16.012 -24.441  0.00  0.00    +0.147 C 
ATOM     30  H   UNL     1      35.471 -17.722 -23.708  0.00  0.00    +0.144 HD
ATOM     31  H   UNL     1      34.596 -17.976 -25.150  0.00  0.00    +0.144 HD
ENDBRANCH  10  26
TORSDOF 2
ENDMDL
MODEL 5
REMARK VINA RESULT:      -9.3      2.224      5.699
REMARK  Name = 58212050
REMARK  2 active torsions:
REMARK  status: ('A' for Active; 'I' for Inactive)
REMARK    1  A    between atoms: C_2  and  C_13
REMARK    2  A    between atoms: C_10  and  C_26
REMARK                            x       y       z     vdW  Elec       q    Type
REMARK                         _______ _______ _______ _____ _____    ______ ____
ROOT
ATOM      1  N   UNL     1      32.168 -23.619 -16.179  0.00  0.00    +0.389 N 
ATOM      2  C   UNL     1      34.611 -23.640 -15.779  0.00  0.00    +0.023 C 
ATOM      3  C   UNL     1      33.295 -24.452 -15.742  0.00  0.00    -0.068 C 
ATOM      4  C   UNL     1      34.764 -22.819 -17.054  0.00  0.00    -0.026 C 
ATOM      5  C   UNL     1      33.658 -22.627 -17.903  0.00  0.00    -0.047 C 
ATOM      6  C   UNL     1      32.328 -23.279 -17.602  0.00  0.00    -0.050 C 
ATOM      7  C   UNL     1      35.974 -22.172 -17.358  0.00  0.00    -0.004 C 
ATOM      8  C   UNL     1      33.800 -21.859 -19.069  0.00  0.00    -0.005 C 
ATOM      9  C   UNL     1      30.898 -24.311 -15.962  0.00  0.00    -0.100 C 
ATOM     10  C   UNL     1      35.016 -21.249 -19.371  0.00  0.00    +0.019 C 
ATOM     11  C   UNL     1      36.100 -21.400 -18.512  0.00  0.00    +0.001 C 
ATOM     12  H   UNL     1      32.159 -22.761 -15.627  0.00  0.00    -0.079 HD
ENDROOT
BRANCH   2  13
ATOM     13  C   UNL     1      35.783 -24.570 -15.488  0.00  0.00    -0.020 C 
ATOM     14  C   UNL     1      37.062 -24.044 -15.305  0.00  0.00    -0.004 C 
ATOM     15  C   UNL     1      35.577 -25.944 -15.406  0.00  0.00    -0.004 C 
ATOM     16  C   UNL     1      38.152 -24.887 -15.038  0.00  0.00    -0.000 C 
ATOM     17  C   UNL     1      37.942 -26.284 -14.954  0.00  0.00    -0.000 C 
ATOM     18  C   UNL     1      36.649 -26.796 -15.141  0.00  0.00    -0.000 C 
ATOM     19  C   UNL     1      39.447 -24.374 -14.852  0.00  0.00    -0.000 C 
ATOM     20  C   UNL     1      39.033 -27.128 -14.687  0.00  0.00    -0.000 C 
ATOM     21  C   UNL     1      40.519 -25.227 -14.587  0.00  0.00    -0.000 C 
ATOM     22  C   UNL     1      40.313 -26.601 -14.505  0.00  0.00    -0.000 C 
ENDBRANCH   2  13
BRANCH  10  26
ATOM     23  N   UNL     1      36.331 -19.819 -20.720  0.00  0.00    -0.147 NA
ATOM     24  N   UNL     1      36.538 -19.050 -21.822  0.00  0.00    -0.133 NA
ATOM     25  N   UNL     1      35.769 -18.141 -23.889  0.00  0.00    -0.341 N 
ATOM     26  C   UNL     1      35.148 -20.454 -20.573  0.00  0.00    +0.103 C 
ATOM     27  C   UNL     1      34.126 -20.361 -21.496  0.00  0.00    +0.024 C 
ATOM     28  C   UNL     1      34.337 -19.578 -22.617  0.00  0.00    +0.037 C 
ATOM     29  C   UNL     1      35.555 -18.941 -22.742  0.00  0.00    +0.147 C 
ATOM     30  H   UNL     1      36.627 -17.673 -24.008  0.00  0.00    +0.144 HD
ATOM     31  H   UNL     1      35.061 -18.052 -24.566  0.00  0.00    +0.144 HD
ENDBRANCH  10  26
TORSDOF 2
ENDMDL
MODEL 6
REMARK VINA RESULT:      -9.3      8.682     13.233
REMARK  Name = 58212050
REMARK  2 active torsions:
REMARK  status: ('A' for Active; 'I' for Inactive)
REMARK    1  A    between atoms: C_2  and  C_13
REMARK    2  A    between atoms: C_10  and  C_26
REMARK                            x       y       z     vdW  Elec       q    Type
REMARK                         _______ _______ _______ _____ _____    ______ ____
ROOT
ATOM      1  N   UNL     1      31.263 -10.533 -21.111  0.00  0.00    +0.389 N 
ATOM      2  C   UNL     1      33.035 -11.675 -22.409  0.00  0.00    +0.023 C 
ATOM      3  C   UNL     1      31.639 -11.799 -21.751  0.00  0.00    -0.068 C 
ATOM      4  C   UNL     1      33.205 -10.382 -23.197  0.00  0.00    -0.026 C 
ATOM      5  C   UNL     1      32.278  -9.335 -23.038  0.00  0.00    -0.047 C 
ATOM      6  C   UNL     1      31.074  -9.497 -22.139  0.00  0.00    -0.050 C 
ATOM      7  C   UNL     1      34.325 -10.179 -24.021  0.00  0.00    -0.004 C 
ATOM      8  C   UNL     1      32.446  -8.141 -23.755  0.00  0.00    -0.005 C 
ATOM      9  C   UNL     1      30.042 -10.694 -20.322  0.00  0.00    -0.100 C 
ATOM     10  C   UNL     1      33.547  -7.966 -24.592  0.00  0.00    +0.019 C 
ATOM     11  C   UNL     1      34.489  -8.982 -24.719  0.00  0.00    +0.001 C 
ATOM     12  H   UNL     1      32.012 -10.247 -20.480  0.00  0.00    -0.079 HD
ENDROOT
BRANCH   2  13
ATOM     13  C   UNL     1      33.326 -12.940 -23.209  0.00  0.00    -0.020 C 
ATOM     14  C   UNL     1      33.955 -14.023 -22.595  0.00  0.00    -0.004 C 
ATOM     15  C   UNL     1      32.965 -13.012 -24.550  0.00  0.00    -0.004 C 
ATOM     16  C   UNL     1      34.231 -15.195 -23.318  0.00  0.00    -0.000 C 
ATOM     17  C   UNL     1      33.864 -15.268 -24.683  0.00  0.00    -0.000 C 
ATOM     18  C   UNL     1      33.232 -14.169 -25.284  0.00  0.00    -0.000 C 
ATOM     19  C   UNL     1      34.864 -16.295 -22.716  0.00  0.00    -0.000 C 
ATOM     20  C   UNL     1      34.141 -16.440 -25.406  0.00  0.00    -0.000 C 
ATOM     21  C   UNL     1      35.131 -17.451 -23.449  0.00  0.00    -0.000 C 
ATOM     22  C   UNL     1      34.770 -17.524 -24.792  0.00  0.00    -0.000 C 
ENDBRANCH   2  13
BRANCH  10  26
ATOM     23  N   UNL     1      32.569  -6.091 -25.649  0.00  0.00    -0.147 NA
ATOM     24  N   UNL     1      32.637  -4.919 -26.336  0.00  0.00    -0.133 NA
ATOM     25  N   UNL     1      33.919  -3.204 -27.386  0.00  0.00    -0.341 N 
ATOM     26  C   UNL     1      33.713  -6.728 -25.321  0.00  0.00    +0.103 C 
ATOM     27  C   UNL     1      34.964  -6.245 -25.651  0.00  0.00    +0.024 C 
ATOM     28  C   UNL     1      35.033  -5.052 -26.349  0.00  0.00    +0.037 C 
ATOM     29  C   UNL     1      33.848  -4.423 -26.672  0.00  0.00    +0.147 C 
ATOM     30  H   UNL     1      33.092  -2.728 -27.632  0.00  0.00    +0.144 HD
ATOM     31  H   UNL     1      34.795  -2.831 -27.638  0.00  0.00    +0.144 HD
ENDBRANCH  10  26
TORSDOF 2
ENDMDL
MODEL 7
REMARK VINA RESULT:      -9.2      3.329      8.353
REMARK  Name = 58212050
REMARK  2 active torsions:
REMARK  status: ('A' for Active; 'I' for Inactive)
REMARK    1  A    between atoms: C_2  and  C_13
REMARK    2  A    between atoms: C_10  and  C_26
REMARK                            x       y       z     vdW  Elec       q    Type
REMARK                         _______ _______ _______ _____ _____    ______ ____
ROOT
ATOM      1  N   UNL     1      30.967 -23.180 -17.106  0.00  0.00    +0.389 N 
ATOM      2  C   UNL     1      32.856 -22.638 -18.613  0.00  0.00    +0.023 C 
ATOM      3  C   UNL     1      31.410 -22.289 -18.185  0.00  0.00    -0.068 C 
ATOM      4  C   UNL     1      33.786 -22.864 -17.427  0.00  0.00    -0.026 C 
ATOM      5  C   UNL     1      33.250 -23.028 -16.135  0.00  0.00    -0.047 C 
ATOM      6  C   UNL     1      31.762 -22.922 -15.894  0.00  0.00    -0.050 C 
ATOM      7  C   UNL     1      35.172 -22.998 -17.609  0.00  0.00    -0.004 C 
ATOM      8  C   UNL     1      34.109 -23.249 -15.048  0.00  0.00    -0.005 C 
ATOM      9  C   UNL     1      29.543 -22.990 -16.829  0.00  0.00    -0.100 C 
ATOM     10  C   UNL     1      35.486 -23.350 -15.242  0.00  0.00    +0.019 C 
ATOM     11  C   UNL     1      36.016 -23.231 -16.523  0.00  0.00    +0.001 C 
ATOM     12  H   UNL     1      31.107 -24.147 -17.399  0.00  0.00    -0.079 HD
ENDROOT
BRANCH   2  13
ATOM     13  C   UNL     1      33.350 -21.595 -19.608  0.00  0.00    -0.020 C 
ATOM     14  C   UNL     1      34.715 -21.326 -19.715  0.00  0.00    -0.004 C 
ATOM     15  C   UNL     1      32.440 -20.912 -20.408  0.00  0.00    -0.004 C 
ATOM     16  C   UNL     1      35.187 -20.368 -20.626  0.00  0.00    -0.000 C 
ATOM     17  C   UNL     1      34.261 -19.672 -21.440  0.00  0.00    -0.000 C 
ATOM     18  C   UNL     1      32.892 -19.956 -21.319  0.00  0.00    -0.000 C 
ATOM     19  C   UNL     1      36.557 -20.084 -20.746  0.00  0.00    -0.000 C 
ATOM     20  C   UNL     1      34.733 -18.713 -22.351  0.00  0.00    -0.000 C 
ATOM     21  C   UNL     1      37.008 -19.128 -21.657  0.00  0.00    -0.000 C 
ATOM     22  C   UNL     1      36.098 -18.444 -22.457  0.00  0.00    -0.000 C 
ENDBRANCH   2  13
BRANCH  10  26
ATOM     23  N   UNL     1      37.620 -23.960 -14.427  0.00  0.00    -0.147 NA
ATOM     24  N   UNL     1      38.508 -24.200 -13.425  0.00  0.00    -0.133 NA
ATOM     25  N   UNL     1      39.030 -24.308 -11.101  0.00  0.00    -0.341 N 
ATOM     26  C   UNL     1      36.361 -23.585 -14.115  0.00  0.00    +0.103 C 
ATOM     27  C   UNL     1      35.924 -23.431 -12.814  0.00  0.00    +0.024 C 
ATOM     28  C   UNL     1      36.827 -23.676 -11.795  0.00  0.00    +0.037 C 
ATOM     29  C   UNL     1      38.107 -24.058 -12.144  0.00  0.00    +0.147 C 
ATOM     30  H   UNL     1      39.951 -24.583 -11.315  0.00  0.00    +0.144 HD
ATOM     31  H   UNL     1      38.751 -24.209 -10.162  0.00  0.00    +0.144 HD
ENDBRANCH  10  26
TORSDOF 2
ENDMDL
