MODEL 1
REMARK VINA RESULT:     -11.4      0.000      0.000
REMARK  Name = 445770
REMARK  5 active torsions:
REMARK  status: ('A' for Active; 'I' for Inactive)
REMARK    1  A    between atoms: N_2  and  C_17
REMARK    2  A    between atoms: C_3  and  C_5
REMARK    3  A    between atoms: C_6  and  S_11
REMARK    4  A    between atoms: S_11  and  N_14
REMARK    5  A    between atoms: C_17  and  C_23
REMARK                            x       y       z     vdW  Elec       q    Type
REMARK                         _______ _______ _______ _____ _____    ______ ____
ROOT
ATOM      1  O   UNL     1      36.995 -18.676 -21.811  0.00  0.00    -0.270 OA
ATOM      2  N   UNL     1      34.915 -18.184 -22.707  0.00  0.00    -0.297 N 
ATOM      3  C   UNL     1      35.772 -18.893 -21.858  0.00  0.00    +0.246 C 
ATOM      4  H   UNL     1      33.956 -18.407 -22.694  0.00  0.00    +0.150 HD
ENDROOT
BRANCH   3   5
ATOM      5  C   UNL     1      35.174 -19.932 -21.034  0.00  0.00    +0.053 C 
ATOM      6  C   UNL     1      34.027 -21.924 -19.455  0.00  0.00    +0.122 C 
ATOM      7  C   UNL     1      35.987 -20.786 -20.290  0.00  0.00    +0.006 C 
ATOM      8  C   UNL     1      33.787 -20.073 -20.989  0.00  0.00    +0.006 C 
ATOM      9  C   UNL     1      35.413 -21.783 -19.501  0.00  0.00    +0.020 C 
ATOM     10  C   UNL     1      33.213 -21.070 -20.199  0.00  0.00    +0.020 C 
BRANCH   6  11
ATOM     11  S   UNL     1      33.308 -23.170 -18.465  0.00  0.00    +0.057 S 
ATOM     12  O   UNL     1      33.463 -24.449 -19.146  0.00  0.00    -0.153 OA
ATOM     13  O   UNL     1      31.984 -22.726 -18.055  0.00  0.00    -0.153 OA
BRANCH  11  14
ATOM     14  N   UNL     1      34.343 -23.144 -17.106  0.00  0.00    -0.203 NA
ATOM     15  H   UNL     1      33.788 -23.223 -16.254  0.00  0.00    +0.144 HD
ATOM     16  H   UNL     1      34.864 -22.266 -17.092  0.00  0.00    +0.144 HD
ENDBRANCH  11  14
ENDBRANCH   6  11
ENDBRANCH   3   5
BRANCH   2  17
ATOM     17  C   UNL     1      35.361 -17.139 -23.602  0.00  0.00    +0.121 C 
BRANCH  17  23
ATOM     18  F   UNL     1      34.125 -15.870 -25.802  0.00  0.00    -0.202 F 
ATOM     19  F   UNL     1      34.914 -15.874 -21.120  0.00  0.00    -0.202 F 
ATOM     20  F   UNL     1      33.414 -13.611 -20.872  0.00  0.00    -0.199 F 
ATOM     21  F   UNL     1      32.624 -13.610 -25.541  0.00  0.00    -0.199 F 
ATOM     22  F   UNL     1      32.266 -12.476 -23.078  0.00  0.00    -0.199 F 
ATOM     23  C   UNL     1      34.532 -15.890 -23.463  0.00  0.00    +0.057 A 
ATOM     24  C   UNL     1      33.954 -15.323 -24.591  0.00  0.00    +0.170 A 
ATOM     25  C   UNL     1      34.356 -15.324 -22.208  0.00  0.00    +0.170 A 
ATOM     26  C   UNL     1      33.588 -14.167 -22.078  0.00  0.00    +0.197 A 
ATOM     27  C   UNL     1      33.187 -14.166 -24.460  0.00  0.00    +0.197 A 
ATOM     28  C   UNL     1      33.003 -13.587 -23.204  0.00  0.00    +0.199 A 
ENDBRANCH  17  23
ENDBRANCH   2  17
TORSDOF 5
ENDMDL
MODEL 2
REMARK VINA RESULT:     -11.4      0.026      2.338
REMARK  Name = 445770
REMARK  5 active torsions:
REMARK  status: ('A' for Active; 'I' for Inactive)
REMARK    1  A    between atoms: N_2  and  C_17
REMARK    2  A    between atoms: C_3  and  C_5
REMARK    3  A    between atoms: C_6  and  S_11
REMARK    4  A    between atoms: S_11  and  N_14
REMARK    5  A    between atoms: C_17  and  C_23
REMARK                            x       y       z     vdW  Elec       q    Type
REMARK                         _______ _______ _______ _____ _____    ______ ____
ROOT
ATOM      1  O   UNL     1      37.006 -18.666 -21.785  0.00  0.00    -0.270 OA
ATOM      2  N   UNL     1      34.930 -18.192 -22.700  0.00  0.00    -0.297 N 
ATOM      3  C   UNL     1      35.785 -18.893 -21.842  0.00  0.00    +0.246 C 
ATOM      4  H   UNL     1      33.972 -18.423 -22.694  0.00  0.00    +0.150 HD
ENDROOT
BRANCH   3   5
ATOM      5  C   UNL     1      35.188 -19.934 -21.020  0.00  0.00    +0.053 C 
ATOM      6  C   UNL     1      34.043 -21.931 -19.444  0.00  0.00    +0.122 C 
ATOM      7  C   UNL     1      33.802 -20.085 -20.984  0.00  0.00    +0.006 C 
ATOM      8  C   UNL     1      36.002 -20.780 -20.267  0.00  0.00    +0.006 C 
ATOM      9  C   UNL     1      33.230 -21.083 -20.196  0.00  0.00    +0.020 C 
ATOM     10  C   UNL     1      35.429 -21.779 -19.479  0.00  0.00    +0.020 C 
BRANCH   6  11
ATOM     11  S   UNL     1      33.327 -23.181 -18.458  0.00  0.00    +0.057 S 
ATOM     12  O   UNL     1      33.457 -24.452 -19.157  0.00  0.00    -0.153 OA
ATOM     13  O   UNL     1      32.015 -22.727 -18.021  0.00  0.00    -0.153 OA
BRANCH  11  14
ATOM     14  N   UNL     1      34.384 -23.183 -17.116  0.00  0.00    -0.203 NA
ATOM     15  H   UNL     1      34.079 -22.482 -16.441  0.00  0.00    +0.144 HD
ATOM     16  H   UNL     1      35.331 -22.964 -17.428  0.00  0.00    +0.144 HD
ENDBRANCH  11  14
ENDBRANCH   6  11
ENDBRANCH   3   5
BRANCH   2  17
ATOM     17  C   UNL     1      35.376 -17.147 -23.595  0.00  0.00    +0.121 C 
BRANCH  17  23
ATOM     18  F   UNL     1      34.908 -15.879 -21.115  0.00  0.00    -0.202 F 
ATOM     19  F   UNL     1      34.150 -15.887 -25.802  0.00  0.00    -0.202 F 
ATOM     20  F   UNL     1      32.637 -13.632 -25.554  0.00  0.00    -0.199 F 
ATOM     21  F   UNL     1      33.397 -13.622 -20.880  0.00  0.00    -0.199 F 
ATOM     22  F   UNL     1      32.259 -12.496 -23.097  0.00  0.00    -0.199 F 
ATOM     23  C   UNL     1      34.541 -15.901 -23.460  0.00  0.00    +0.057 A 
ATOM     24  C   UNL     1      34.356 -15.334 -22.207  0.00  0.00    +0.170 A 
ATOM     25  C   UNL     1      33.970 -15.338 -24.592  0.00  0.00    +0.170 A 
ATOM     26  C   UNL     1      33.196 -14.183 -24.469  0.00  0.00    +0.197 A 
ATOM     27  C   UNL     1      33.582 -14.180 -22.084  0.00  0.00    +0.197 A 
ATOM     28  C   UNL     1      33.002 -13.604 -23.215  0.00  0.00    +0.199 A 
ENDBRANCH  17  23
ENDBRANCH   2  17
TORSDOF 5
ENDMDL
MODEL 3
REMARK VINA RESULT:     -10.2      6.434     10.416
REMARK  Name = 445770
REMARK  5 active torsions:
REMARK  status: ('A' for Active; 'I' for Inactive)
REMARK    1  A    between atoms: N_2  and  C_17
REMARK    2  A    between atoms: C_3  and  C_5
REMARK    3  A    between atoms: C_6  and  S_11
REMARK    4  A    between atoms: S_11  and  N_14
REMARK    5  A    between atoms: C_17  and  C_23
REMARK                            x       y       z     vdW  Elec       q    Type
REMARK                         _______ _______ _______ _____ _____    ______ ____
ROOT
ATOM      1  O   UNL     1      33.380 -24.212 -18.920  0.00  0.00    -0.270 OA
ATOM      2  N   UNL     1      33.974 -22.995 -17.039  0.00  0.00    -0.297 N 
ATOM      3  C   UNL     1      33.842 -23.171 -18.421  0.00  0.00    +0.246 C 
ATOM      4  H   UNL     1      34.349 -22.145 -16.711  0.00  0.00    +0.150 HD
ENDROOT
BRANCH   3   5
ATOM      5  C   UNL     1      34.299 -22.083 -19.272  0.00  0.00    +0.053 C 
ATOM      6  C   UNL     1      35.174 -19.998 -20.904  0.00  0.00    +0.122 C 
ATOM      7  C   UNL     1      35.662 -21.814 -19.388  0.00  0.00    +0.006 C 
ATOM      8  C   UNL     1      33.372 -21.310 -19.971  0.00  0.00    +0.006 C 
ATOM      9  C   UNL     1      36.099 -20.771 -20.204  0.00  0.00    +0.020 C 
ATOM     10  C   UNL     1      33.810 -20.267 -20.788  0.00  0.00    +0.020 C 
BRANCH   6  11
ATOM     11  S   UNL     1      35.721 -18.693 -21.927  0.00  0.00    +0.057 S 
ATOM     12  O   UNL     1      35.273 -17.433 -21.349  0.00  0.00    -0.153 OA
ATOM     13  O   UNL     1      35.383 -19.016 -23.306  0.00  0.00    -0.153 OA
BRANCH  11  14
ATOM     14  N   UNL     1      37.414 -18.815 -21.732  0.00  0.00    -0.203 NA
ATOM     15  H   UNL     1      37.845 -19.033 -22.630  0.00  0.00    +0.144 HD
ATOM     16  H   UNL     1      37.627 -19.556 -21.063  0.00  0.00    +0.144 HD
ENDBRANCH  11  14
ENDBRANCH   6  11
ENDBRANCH   3   5
BRANCH   2  17
ATOM     17  C   UNL     1      33.588 -23.992 -16.065  0.00  0.00    +0.121 C 
BRANCH  17  23
ATOM     18  F   UNL     1      32.972 -24.752 -13.416  0.00  0.00    -0.202 F 
ATOM     19  F   UNL     1      36.339 -23.600 -16.559  0.00  0.00    -0.202 F 
ATOM     20  F   UNL     1      38.240 -23.927 -14.632  0.00  0.00    -0.199 F 
ATOM     21  F   UNL     1      34.882 -25.081 -11.499  0.00  0.00    -0.199 F 
ATOM     22  F   UNL     1      37.517 -24.668 -12.103  0.00  0.00    -0.199 F 
ATOM     23  C   UNL     1      34.640 -24.174 -15.003  0.00  0.00    +0.057 A 
ATOM     24  C   UNL     1      34.260 -24.550 -13.721  0.00  0.00    +0.170 A 
ATOM     25  C   UNL     1      35.974 -23.963 -15.321  0.00  0.00    +0.170 A 
ATOM     26  C   UNL     1      36.949 -24.130 -14.338  0.00  0.00    +0.197 A 
ATOM     27  C   UNL     1      35.235 -24.716 -12.739  0.00  0.00    +0.197 A 
ATOM     28  C   UNL     1      36.580 -24.507 -13.046  0.00  0.00    +0.199 A 
ENDBRANCH  17  23
ENDBRANCH   2  17
TORSDOF 5
ENDMDL
MODEL 4
REMARK VINA RESULT:     -10.2      6.429     10.342
REMARK  Name = 445770
REMARK  5 active torsions:
REMARK  status: ('A' for Active; 'I' for Inactive)
REMARK    1  A    between atoms: N_2  and  C_17
REMARK    2  A    between atoms: C_3  and  C_5
REMARK    3  A    between atoms: C_6  and  S_11
REMARK    4  A    between atoms: S_11  and  N_14
REMARK    5  A    between atoms: C_17  and  C_23
REMARK                            x       y       z     vdW  Elec       q    Type
REMARK                         _______ _______ _______ _____ _____    ______ ____
ROOT
ATOM      1  O   UNL     1      33.365 -24.209 -18.930  0.00  0.00    -0.270 OA
ATOM      2  N   UNL     1      33.972 -22.996 -17.050  0.00  0.00    -0.297 N 
ATOM      3  C   UNL     1      33.834 -23.170 -18.432  0.00  0.00    +0.246 C 
ATOM      4  H   UNL     1      34.352 -22.149 -16.723  0.00  0.00    +0.150 HD
ENDROOT
BRANCH   3   5
ATOM      5  C   UNL     1      34.292 -22.084 -19.283  0.00  0.00    +0.053 C 
ATOM      6  C   UNL     1      35.171 -20.000 -20.916  0.00  0.00    +0.122 C 
ATOM      7  C   UNL     1      33.367 -21.309 -19.983  0.00  0.00    +0.006 C 
ATOM      8  C   UNL     1      35.656 -21.818 -19.400  0.00  0.00    +0.006 C 
ATOM      9  C   UNL     1      33.807 -20.267 -20.800  0.00  0.00    +0.020 C 
ATOM     10  C   UNL     1      36.096 -20.775 -20.216  0.00  0.00    +0.020 C 
BRANCH   6  11
ATOM     11  S   UNL     1      35.722 -18.695 -21.937  0.00  0.00    +0.057 S 
ATOM     12  O   UNL     1      35.274 -17.435 -21.360  0.00  0.00    -0.153 OA
ATOM     13  O   UNL     1      35.387 -19.018 -23.317  0.00  0.00    -0.153 OA
BRANCH  11  14
ATOM     14  N   UNL     1      37.414 -18.818 -21.738  0.00  0.00    -0.203 NA
ATOM     15  H   UNL     1      37.754 -18.015 -21.210  0.00  0.00    +0.144 HD
ATOM     16  H   UNL     1      37.863 -18.838 -22.654  0.00  0.00    +0.144 HD
ENDBRANCH  11  14
ENDBRANCH   6  11
ENDBRANCH   3   5
BRANCH   2  17
ATOM     17  C   UNL     1      33.585 -23.993 -16.076  0.00  0.00    +0.121 C 
BRANCH  17  23
ATOM     18  F   UNL     1      36.338 -23.586 -16.560  0.00  0.00    -0.202 F 
ATOM     19  F   UNL     1      32.964 -24.768 -13.435  0.00  0.00    -0.202 F 
ATOM     20  F   UNL     1      34.870 -25.097 -11.513  0.00  0.00    -0.199 F 
ATOM     21  F   UNL     1      38.234 -23.915 -14.629  0.00  0.00    -0.199 F 
ATOM     22  F   UNL     1      37.504 -24.671 -12.104  0.00  0.00    -0.199 F 
ATOM     23  C   UNL     1      34.636 -24.174 -15.013  0.00  0.00    +0.057 A 
ATOM     24  C   UNL     1      35.971 -23.956 -15.326  0.00  0.00    +0.170 A 
ATOM     25  C   UNL     1      34.254 -24.557 -13.735  0.00  0.00    +0.170 A 
ATOM     26  C   UNL     1      35.226 -24.725 -12.749  0.00  0.00    +0.197 A 
ATOM     27  C   UNL     1      36.943 -24.125 -14.340  0.00  0.00    +0.197 A 
ATOM     28  C   UNL     1      36.571 -24.509 -13.051  0.00  0.00    +0.199 A 
ENDBRANCH  17  23
ENDBRANCH   2  17
TORSDOF 5
ENDMDL
MODEL 5
REMARK VINA RESULT:     -10.1      4.882      7.412
REMARK  Name = 445770
REMARK  5 active torsions:
REMARK  status: ('A' for Active; 'I' for Inactive)
REMARK    1  A    between atoms: N_2  and  C_17
REMARK    2  A    between atoms: C_3  and  C_5
REMARK    3  A    between atoms: C_6  and  S_11
REMARK    4  A    between atoms: S_11  and  N_14
REMARK    5  A    between atoms: C_17  and  C_23
REMARK                            x       y       z     vdW  Elec       q    Type
REMARK                         _______ _______ _______ _____ _____    ______ ____
ROOT
ATOM      1  O   UNL     1      32.399 -23.436 -16.426  0.00  0.00    -0.270 OA
ATOM      2  N   UNL     1      34.222 -22.857 -17.735  0.00  0.00    -0.297 N 
ATOM      3  C   UNL     1      33.628 -23.280 -16.541  0.00  0.00    +0.246 C 
ATOM      4  H   UNL     1      35.202 -22.753 -17.757  0.00  0.00    +0.150 HD
ENDROOT
BRANCH   3   5
ATOM      5  C   UNL     1      34.511 -23.508 -15.409  0.00  0.00    +0.053 C 
ATOM      6  C   UNL     1      36.206 -23.947 -13.237  0.00  0.00    +0.122 C 
ATOM      7  C   UNL     1      33.999 -24.023 -14.218  0.00  0.00    +0.006 C 
ATOM      8  C   UNL     1      35.870 -23.212 -15.514  0.00  0.00    +0.006 C 
ATOM      9  C   UNL     1      34.846 -24.242 -13.132  0.00  0.00    +0.020 C 
ATOM     10  C   UNL     1      36.718 -23.433 -14.428  0.00  0.00    +0.020 C 
BRANCH   6  11
ATOM     11  S   UNL     1      37.267 -24.223 -11.878  0.00  0.00    +0.057 S 
ATOM     12  O   UNL     1      38.205 -23.112 -11.791  0.00  0.00    -0.153 OA
ATOM     13  O   UNL     1      37.767 -25.588 -11.955  0.00  0.00    -0.153 OA
BRANCH  11  14
ATOM     14  N   UNL     1      36.164 -24.113 -10.577  0.00  0.00    -0.203 NA
ATOM     15  H   UNL     1      35.835 -23.152 -10.490  0.00  0.00    +0.144 HD
ATOM     16  H   UNL     1      36.629 -24.393  -9.713  0.00  0.00    +0.144 HD
ENDBRANCH  11  14
ENDBRANCH   6  11
ENDBRANCH   3   5
BRANCH   2  17
ATOM     17  C   UNL     1      33.477 -22.566 -18.940  0.00  0.00    +0.121 C 
BRANCH  17  23
ATOM     18  F   UNL     1      36.257 -22.092 -18.784  0.00  0.00    -0.202 F 
ATOM     19  F   UNL     1      32.127 -20.986 -20.849  0.00  0.00    -0.202 F 
ATOM     20  F   UNL     1      33.407 -19.153 -22.410  0.00  0.00    -0.199 F 
ATOM     21  F   UNL     1      37.526 -20.259 -20.353  0.00  0.00    -0.199 F 
ATOM     22  F   UNL     1      36.104 -18.787 -22.167  0.00  0.00    -0.199 F 
ATOM     23  C   UNL     1      34.182 -21.554 -19.804  0.00  0.00    +0.057 A 
ATOM     24  C   UNL     1      35.553 -21.376 -19.671  0.00  0.00    +0.170 A 
ATOM     25  C   UNL     1      33.451 -20.813 -20.722  0.00  0.00    +0.170 A 
ATOM     26  C   UNL     1      34.102 -19.875 -21.523  0.00  0.00    +0.197 A 
ATOM     27  C   UNL     1      36.204 -20.438 -20.471  0.00  0.00    +0.197 A 
ATOM     28  C   UNL     1      35.479 -19.687 -21.398  0.00  0.00    +0.199 A 
ENDBRANCH  17  23
ENDBRANCH   2  17
TORSDOF 5
ENDMDL
MODEL 6
REMARK VINA RESULT:      -9.9      5.877      9.377
REMARK  Name = 445770
REMARK  5 active torsions:
REMARK  status: ('A' for Active; 'I' for Inactive)
REMARK    1  A    between atoms: N_2  and  C_17
REMARK    2  A    between atoms: C_3  and  C_5
REMARK    3  A    between atoms: C_6  and  S_11
REMARK    4  A    between atoms: S_11  and  N_14
REMARK    5  A    between atoms: C_17  and  C_23
REMARK                            x       y       z     vdW  Elec       q    Type
REMARK                         _______ _______ _______ _____ _____    ______ ____
ROOT
ATOM      1  O   UNL     1      33.763 -24.057 -19.472  0.00  0.00    -0.270 OA
ATOM      2  N   UNL     1      33.840 -22.740 -17.566  0.00  0.00    -0.297 N 
ATOM      3  C   UNL     1      33.920 -22.940 -18.949  0.00  0.00    +0.246 C 
ATOM      4  H   UNL     1      33.975 -21.828 -17.218  0.00  0.00    +0.150 HD
ENDROOT
BRANCH   3   5
ATOM      5  C   UNL     1      34.225 -21.777 -19.768  0.00  0.00    +0.053 C 
ATOM      6  C   UNL     1      34.811 -19.547 -21.338  0.00  0.00    +0.122 C 
ATOM      7  C   UNL     1      33.191 -21.028 -20.329  0.00  0.00    +0.006 C 
ATOM      8  C   UNL     1      35.553 -21.411 -19.992  0.00  0.00    +0.006 C 
ATOM      9  C   UNL     1      33.484 -19.913 -21.114  0.00  0.00    +0.020 C 
ATOM     10  C   UNL     1      35.846 -20.295 -20.777  0.00  0.00    +0.020 C 
BRANCH   6  11
ATOM     11  S   UNL     1      35.178 -18.150 -22.319  0.00  0.00    +0.057 S 
ATOM     12  O   UNL     1      35.060 -16.958 -21.491  0.00  0.00    -0.153 OA
ATOM     13  O   UNL     1      34.420 -18.248 -23.559  0.00  0.00    -0.153 OA
BRANCH  11  14
ATOM     14  N   UNL     1      36.830 -18.418 -22.662  0.00  0.00    -0.203 NA
ATOM     15  H   UNL     1      36.966 -19.389 -22.942  0.00  0.00    +0.144 HD
ATOM     16  H   UNL     1      37.386 -18.223 -21.829  0.00  0.00    +0.144 HD
ENDBRANCH  11  14
ENDBRANCH   6  11
ENDBRANCH   3   5
BRANCH   2  17
ATOM     17  C   UNL     1      33.569 -23.799 -16.620  0.00  0.00    +0.121 C 
BRANCH  17  23
ATOM     18  F   UNL     1      31.505 -22.431 -17.979  0.00  0.00    -0.202 F 
ATOM     19  F   UNL     1      32.759 -25.061 -14.230  0.00  0.00    -0.202 F 
ATOM     20  F   UNL     1      30.193 -24.962 -13.312  0.00  0.00    -0.199 F 
ATOM     21  F   UNL     1      28.942 -22.343 -17.054  0.00  0.00    -0.199 F 
ATOM     22  F   UNL     1      28.282 -23.606 -14.720  0.00  0.00    -0.199 F 
ATOM     23  C   UNL     1      32.153 -23.747 -16.112  0.00  0.00    +0.057 A 
ATOM     24  C   UNL     1      31.191 -23.055 -16.836  0.00  0.00    +0.170 A 
ATOM     25  C   UNL     1      31.829 -24.392 -14.927  0.00  0.00    +0.170 A 
ATOM     26  C   UNL     1      30.517 -24.345 -14.455  0.00  0.00    +0.197 A 
ATOM     27  C   UNL     1      29.880 -23.007 -16.363  0.00  0.00    +0.197 A 
ATOM     28  C   UNL     1      29.542 -23.652 -15.173  0.00  0.00    +0.199 A 
ENDBRANCH  17  23
ENDBRANCH   2  17
TORSDOF 5
ENDMDL
MODEL 7
REMARK VINA RESULT:      -9.9      5.874      9.573
REMARK  Name = 445770
REMARK  5 active torsions:
REMARK  status: ('A' for Active; 'I' for Inactive)
REMARK    1  A    between atoms: N_2  and  C_17
REMARK    2  A    between atoms: C_3  and  C_5
REMARK    3  A    between atoms: C_6  and  S_11
REMARK    4  A    between atoms: S_11  and  N_14
REMARK    5  A    between atoms: C_17  and  C_23
REMARK                            x       y       z     vdW  Elec       q    Type
REMARK                         _______ _______ _______ _____ _____    ______ ____
ROOT
ATOM      1  O   UNL     1      33.762 -24.057 -19.485  0.00  0.00    -0.270 OA
ATOM      2  N   UNL     1      33.846 -22.747 -17.575  0.00  0.00    -0.297 N 
ATOM      3  C   UNL     1      33.922 -22.942 -18.959  0.00  0.00    +0.246 C 
ATOM      4  H   UNL     1      33.984 -21.836 -17.224  0.00  0.00    +0.150 HD
ENDROOT
BRANCH   3   5
ATOM      5  C   UNL     1      34.226 -21.776 -19.774  0.00  0.00    +0.053 C 
ATOM      6  C   UNL     1      34.810 -19.542 -21.338  0.00  0.00    +0.122 C 
ATOM      7  C   UNL     1      33.191 -21.026 -20.332  0.00  0.00    +0.006 C 
ATOM      8  C   UNL     1      35.553 -21.410 -19.998  0.00  0.00    +0.006 C 
ATOM      9  C   UNL     1      33.483 -19.909 -21.114  0.00  0.00    +0.020 C 
ATOM     10  C   UNL     1      35.845 -20.292 -20.780  0.00  0.00    +0.020 C 
BRANCH   6  11
ATOM     11  S   UNL     1      35.175 -18.142 -22.316  0.00  0.00    +0.057 S 
ATOM     12  O   UNL     1      35.060 -16.953 -21.483  0.00  0.00    -0.153 OA
ATOM     13  O   UNL     1      34.414 -18.235 -23.554  0.00  0.00    -0.153 OA
BRANCH  11  14
ATOM     14  N   UNL     1      36.827 -18.411 -22.663  0.00  0.00    -0.203 NA
ATOM     15  H   UNL     1      37.327 -17.523 -22.645  0.00  0.00    +0.144 HD
ATOM     16  H   UNL     1      36.915 -18.832 -23.589  0.00  0.00    +0.144 HD
ENDBRANCH  11  14
ENDBRANCH   6  11
ENDBRANCH   3   5
BRANCH   2  17
ATOM     17  C   UNL     1      33.576 -23.809 -16.631  0.00  0.00    +0.121 C 
BRANCH  17  23
ATOM     18  F   UNL     1      32.794 -25.031 -14.208  0.00  0.00    -0.202 F 
ATOM     19  F   UNL     1      31.502 -22.454 -17.981  0.00  0.00    -0.202 F 
ATOM     20  F   UNL     1      28.952 -22.340 -17.022  0.00  0.00    -0.199 F 
ATOM     21  F   UNL     1      30.242 -24.907 -13.257  0.00  0.00    -0.199 F 
ATOM     22  F   UNL     1      28.318 -23.563 -14.661  0.00  0.00    -0.199 F 
ATOM     23  C   UNL     1      32.168 -23.743 -16.102  0.00  0.00    +0.057 A 
ATOM     24  C   UNL     1      31.858 -24.369 -14.902  0.00  0.00    +0.170 A 
ATOM     25  C   UNL     1      31.200 -23.058 -16.823  0.00  0.00    +0.170 A 
ATOM     26  C   UNL     1      29.895 -22.997 -16.334  0.00  0.00    +0.197 A 
ATOM     27  C   UNL     1      30.553 -24.308 -14.415  0.00  0.00    +0.197 A 
ATOM     28  C   UNL     1      29.571 -23.622 -15.130  0.00  0.00    +0.199 A 
ENDBRANCH  17  23
ENDBRANCH   2  17
TORSDOF 5
ENDMDL
MODEL 8
REMARK VINA RESULT:      -9.8      9.226     11.215
REMARK  Name = 445770
REMARK  5 active torsions:
REMARK  status: ('A' for Active; 'I' for Inactive)
REMARK    1  A    between atoms: N_2  and  C_17
REMARK    2  A    between atoms: C_3  and  C_5
REMARK    3  A    between atoms: C_6  and  S_11
REMARK    4  A    between atoms: S_11  and  N_14
REMARK    5  A    between atoms: C_17  and  C_23
REMARK                            x       y       z     vdW  Elec       q    Type
REMARK                         _______ _______ _______ _____ _____    ______ ____
ROOT
ATOM      1  O   UNL     1      34.618 -25.059 -11.417  0.00  0.00    -0.270 OA
ATOM      2  N   UNL     1      34.013 -23.982 -13.378  0.00  0.00    -0.297 N 
ATOM      3  C   UNL     1      34.912 -24.680 -12.565  0.00  0.00    +0.246 C 
ATOM      4  H   UNL     1      34.311 -23.711 -14.277  0.00  0.00    +0.150 HD
ENDROOT
BRANCH   3   5
ATOM      5  C   UNL     1      36.237 -24.930 -13.109  0.00  0.00    +0.053 C 
ATOM      6  C   UNL     1      38.780 -25.409 -14.151  0.00  0.00    +0.122 C 
ATOM      7  C   UNL     1      36.545 -24.528 -14.408  0.00  0.00    +0.006 C 
ATOM      8  C   UNL     1      37.200 -25.572 -12.330  0.00  0.00    +0.006 C 
ATOM      9  C   UNL     1      37.817 -24.768 -14.929  0.00  0.00    +0.020 C 
ATOM     10  C   UNL     1      38.472 -25.811 -12.851  0.00  0.00    +0.020 C 
BRANCH   6  11
ATOM     11  S   UNL     1      40.372 -25.708 -14.803  0.00  0.00    +0.057 S 
ATOM     12  O   UNL     1      40.951 -26.848 -14.107  0.00  0.00    -0.153 OA
ATOM     13  O   UNL     1      41.095 -24.445 -14.847  0.00  0.00    -0.153 OA
BRANCH  11  14
ATOM     14  N   UNL     1      39.987 -26.177 -16.400  0.00  0.00    -0.203 NA
ATOM     15  H   UNL     1      40.610 -26.929 -16.693  0.00  0.00    +0.144 HD
ATOM     16  H   UNL     1      40.098 -25.379 -17.025  0.00  0.00    +0.144 HD
ENDBRANCH  11  14
ENDBRANCH   6  11
ENDBRANCH   3   5
BRANCH   2  17
ATOM     17  C   UNL     1      32.668 -23.637 -12.972  0.00  0.00    +0.121 C 
BRANCH  17  23
ATOM     18  F   UNL     1      30.118 -24.835 -12.784  0.00  0.00    -0.202 F 
ATOM     19  F   UNL     1      33.262 -22.540 -15.503  0.00  0.00    -0.202 F 
ATOM     20  F   UNL     1      31.513 -22.635 -17.593  0.00  0.00    -0.199 F 
ATOM     21  F   UNL     1      28.376 -24.920 -14.880  0.00  0.00    -0.199 F 
ATOM     22  F   UNL     1      29.071 -23.822 -17.286  0.00  0.00    -0.199 F 
ATOM     23  C   UNL     1      31.704 -23.687 -14.127  0.00  0.00    +0.057 A 
ATOM     24  C   UNL     1      30.466 -24.293 -13.959  0.00  0.00    +0.170 A 
ATOM     25  C   UNL     1      32.066 -23.125 -15.343  0.00  0.00    +0.170 A 
ATOM     26  C   UNL     1      31.174 -23.171 -16.414  0.00  0.00    +0.197 A 
ATOM     27  C   UNL     1      29.574 -24.339 -15.030  0.00  0.00    +0.197 A 
ATOM     28  C   UNL     1      29.927 -23.778 -16.258  0.00  0.00    +0.199 A 
ENDBRANCH  17  23
ENDBRANCH   2  17
TORSDOF 5
ENDMDL
MODEL 9
REMARK VINA RESULT:      -9.8      9.157     11.066
REMARK  Name = 445770
REMARK  5 active torsions:
REMARK  status: ('A' for Active; 'I' for Inactive)
REMARK    1  A    between atoms: N_2  and  C_17
REMARK    2  A    between atoms: C_3  and  C_5
REMARK    3  A    between atoms: C_6  and  S_11
REMARK    4  A    between atoms: S_11  and  N_14
REMARK    5  A    between atoms: C_17  and  C_23
REMARK                            x       y       z     vdW  Elec       q    Type
REMARK                         _______ _______ _______ _____ _____    ______ ____
ROOT
ATOM      1  O   UNL     1      34.640 -25.016 -11.406  0.00  0.00    -0.270 OA
ATOM      2  N   UNL     1      33.973 -24.107 -13.431  0.00  0.00    -0.297 N 
ATOM      3  C   UNL     1      34.906 -24.712 -12.582  0.00  0.00    +0.246 C 
ATOM      4  H   UNL     1      34.250 -23.892 -14.352  0.00  0.00    +0.150 HD
ENDROOT
BRANCH   3   5
ATOM      5  C   UNL     1      36.234 -24.955 -13.126  0.00  0.00    +0.053 C 
ATOM      6  C   UNL     1      38.779 -25.420 -14.168  0.00  0.00    +0.122 C 
ATOM      7  C   UNL     1      36.377 -25.429 -14.430  0.00  0.00    +0.006 C 
ATOM      8  C   UNL     1      37.362 -24.714 -12.342  0.00  0.00    +0.006 C 
ATOM      9  C   UNL     1      37.650 -25.661 -14.950  0.00  0.00    +0.020 C 
ATOM     10  C   UNL     1      38.635 -24.946 -12.864  0.00  0.00    +0.020 C 
BRANCH   6  11
ATOM     11  S   UNL     1      40.372 -25.710 -14.820  0.00  0.00    +0.057 S 
ATOM     12  O   UNL     1      40.951 -26.857 -14.135  0.00  0.00    -0.153 OA
ATOM     13  O   UNL     1      41.094 -24.445 -14.849  0.00  0.00    -0.153 OA
BRANCH  11  14
ATOM     14  N   UNL     1      39.990 -26.162 -16.423  0.00  0.00    -0.203 NA
ATOM     15  H   UNL     1      39.680 -25.342 -16.943  0.00  0.00    +0.144 HD
ATOM     16  H   UNL     1      39.245 -26.859 -16.411  0.00  0.00    +0.144 HD
ENDBRANCH  11  14
ENDBRANCH   6  11
ENDBRANCH   3   5
BRANCH   2  17
ATOM     17  C   UNL     1      32.622 -23.780 -13.031  0.00  0.00    +0.121 C 
BRANCH  17  23
ATOM     18  F   UNL     1      33.360 -22.692 -15.531  0.00  0.00    -0.202 F 
ATOM     19  F   UNL     1      29.983 -24.772 -12.920  0.00  0.00    -0.202 F 
ATOM     20  F   UNL     1      28.288 -24.682 -15.054  0.00  0.00    -0.199 F 
ATOM     21  F   UNL     1      31.658 -22.612 -17.659  0.00  0.00    -0.199 F 
ATOM     22  F   UNL     1      29.120 -23.605 -17.424  0.00  0.00    -0.199 F 
ATOM     23  C   UNL     1      31.686 -23.733 -14.208  0.00  0.00    +0.057 A 
ATOM     24  C   UNL     1      32.119 -23.183 -15.407  0.00  0.00    +0.170 A 
ATOM     25  C   UNL     1      30.401 -24.241 -14.078  0.00  0.00    +0.170 A 
ATOM     26  C   UNL     1      29.531 -24.198 -15.168  0.00  0.00    +0.197 A 
ATOM     27  C   UNL     1      31.250 -23.139 -16.496  0.00  0.00    +0.197 A 
ATOM     28  C   UNL     1      29.955 -23.647 -16.378  0.00  0.00    +0.199 A 
ENDBRANCH  17  23
ENDBRANCH   2  17
TORSDOF 5
ENDMDL
