MODEL 1
REMARK VINA RESULT:     -10.9      0.000      0.000
REMARK  Name = 8969
REMARK  3 active torsions:
REMARK  status: ('A' for Active; 'I' for Inactive)
REMARK    1  A    between atoms: C_7  and  C_27
REMARK    2  A    between atoms: C_10  and  O_24
REMARK    3  A    between atoms: C_27  and  O_28
REMARK                            x       y       z     vdW  Elec       q    Type
REMARK                         _______ _______ _______ _____ _____    ______ ____
ROOT
ATOM      1  N   UNL     1      33.975 -23.224 -16.557  0.00  0.00    +0.392 N 
ATOM      2  N   UNL     1      32.775 -21.757 -19.784  0.00  0.00    -0.358 N 
ATOM      3  C   UNL     1      31.158 -23.887 -16.113  0.00  0.00    +0.009 C 
ATOM      4  C   UNL     1      32.215 -23.934 -14.989  0.00  0.00    -0.020 C 
ATOM      5  C   UNL     1      31.607 -22.878 -17.186  0.00  0.00    -0.015 C 
ATOM      6  C   UNL     1      33.017 -23.220 -17.697  0.00  0.00    -0.019 C 
ATOM      7  C   UNL     1      29.773 -23.556 -15.524  0.00  0.00    +0.126 C 
ATOM      8  C   UNL     1      33.609 -24.239 -15.561  0.00  0.00    -0.077 C 
ATOM      9  C   UNL     1      31.824 -24.944 -13.903  0.00  0.00    +0.000 C 
ATOM     10  C   UNL     1      29.372 -24.557 -14.426  0.00  0.00    +0.121 C 
ATOM     11  C   UNL     1      30.439 -24.633 -13.332  0.00  0.00    +0.030 C 
ATOM     12  C   UNL     1      33.500 -22.260 -18.741  0.00  0.00    +0.010 A 
ATOM     13  C   UNL     1      35.372 -23.391 -17.012  0.00  0.00    -0.072 C 
ATOM     14  C   UNL     1      34.793 -21.793 -18.846  0.00  0.00    -0.013 A 
ATOM     15  C   UNL     1      35.835 -22.181 -17.857  0.00  0.00    +0.005 C 
ATOM     16  C   UNL     1      34.854 -20.942 -19.983  0.00  0.00    +0.013 A 
ATOM     17  C   UNL     1      33.576 -20.937 -20.552  0.00  0.00    +0.056 A 
ATOM     18  C   UNL     1      35.869 -20.176 -20.589  0.00  0.00    +0.001 C 
ATOM     19  C   UNL     1      33.266 -20.201 -21.702  0.00  0.00    +0.017 C 
ATOM     20  C   UNL     1      35.572 -19.434 -21.739  0.00  0.00    +0.000 C 
ATOM     21  C   UNL     1      34.291 -19.448 -22.285  0.00  0.00    +0.001 C 
ATOM     22  H   UNL     1      33.916 -22.310 -16.107  0.00  0.00    -0.079 HD
ATOM     23  H   UNL     1      31.826 -21.949 -19.961  0.00  0.00    +0.166 HD
ENDROOT
BRANCH  10  24
ATOM     24  O   UNL     1      29.207 -25.856 -14.997  0.00  0.00    -0.384 OA
ATOM     25  H   UNL     1      28.530 -26.343 -14.503  0.00  0.00    +0.210 HD
ENDBRANCH  10  24
BRANCH   7  27
ATOM     26  O   UNL     1      28.369 -24.543 -17.216  0.00  0.00    -0.250 OA
ATOM     27  C   UNL     1      28.711 -23.551 -16.586  0.00  0.00    +0.319 C 
BRANCH  27  28
ATOM     28  O   UNL     1      28.209 -22.292 -16.723  0.00  0.00    -0.444 OA
ATOM     29  C   UNL     1      26.795 -22.212 -16.923  0.00  0.00    +0.256 C 
ENDBRANCH  27  28
ENDBRANCH   7  27
TORSDOF 3
ENDMDL
MODEL 2
REMARK VINA RESULT:      -9.6     10.505     14.761
REMARK  Name = 8969
REMARK  3 active torsions:
REMARK  status: ('A' for Active; 'I' for Inactive)
REMARK    1  A    between atoms: C_7  and  C_27
REMARK    2  A    between atoms: C_10  and  O_24
REMARK    3  A    between atoms: C_27  and  O_28
REMARK                            x       y       z     vdW  Elec       q    Type
REMARK                         _______ _______ _______ _____ _____    ______ ____
ROOT
ATOM      1  N   UNL     1      33.124 -10.654 -25.853  0.00  0.00    +0.392 N 
ATOM      2  N   UNL     1      34.146 -12.920 -23.055  0.00  0.00    -0.358 N 
ATOM      3  C   UNL     1      32.660  -8.682 -23.738  0.00  0.00    +0.009 C 
ATOM      4  C   UNL     1      32.126  -8.507 -25.176  0.00  0.00    -0.020 C 
ATOM      5  C   UNL     1      32.828 -10.184 -23.441  0.00  0.00    -0.015 C 
ATOM      6  C   UNL     1      33.719 -10.851 -24.502  0.00  0.00    -0.019 C 
ATOM      7  C   UNL     1      31.726  -7.976 -22.737  0.00  0.00    +0.126 C 
ATOM      8  C   UNL     1      33.032  -9.227 -26.188  0.00  0.00    -0.077 C 
ATOM      9  C   UNL     1      31.963  -7.024 -25.529  0.00  0.00    +0.000 C 
ATOM     10  C   UNL     1      31.546  -6.488 -23.085  0.00  0.00    +0.121 C 
ATOM     11  C   UNL     1      31.055  -6.313 -24.523  0.00  0.00    +0.030 C 
ATOM     12  C   UNL     1      33.907 -12.317 -24.258  0.00  0.00    +0.010 A 
ATOM     13  C   UNL     1      33.856 -11.409 -26.893  0.00  0.00    -0.072 C 
ATOM     14  C   UNL     1      33.940 -13.284 -25.240  0.00  0.00    -0.013 A 
ATOM     15  C   UNL     1      33.728 -12.934 -26.671  0.00  0.00    +0.005 C 
ATOM     16  C   UNL     1      34.176 -14.535 -24.609  0.00  0.00    +0.013 A 
ATOM     17  C   UNL     1      34.301 -14.278 -23.239  0.00  0.00    +0.056 A 
ATOM     18  C   UNL     1      34.301 -15.862 -25.064  0.00  0.00    +0.001 C 
ATOM     19  C   UNL     1      34.546 -15.290 -22.302  0.00  0.00    +0.017 C 
ATOM     20  C   UNL     1      34.544 -16.883 -24.137  0.00  0.00    +0.000 C 
ATOM     21  C   UNL     1      34.665 -16.599 -22.779  0.00  0.00    +0.001 C 
ATOM     22  H   UNL     1      32.175 -11.029 -25.825  0.00  0.00    -0.079 HD
ATOM     23  H   UNL     1      34.198 -12.456 -22.188  0.00  0.00    +0.166 HD
ENDROOT
BRANCH  10  24
ATOM     24  O   UNL     1      32.793  -5.806 -22.940  0.00  0.00    -0.384 OA
ATOM     25  H   UNL     1      32.724  -4.919 -23.325  0.00  0.00    +0.210 HD
ENDBRANCH  10  24
BRANCH   7  27
ATOM     26  O   UNL     1      33.294  -7.585 -20.948  0.00  0.00    -0.250 OA
ATOM     27  C   UNL     1      32.244  -8.084 -21.331  0.00  0.00    +0.319 C 
BRANCH  27  28
ATOM     28  O   UNL     1      31.372  -8.813 -20.579  0.00  0.00    -0.444 OA
ATOM     29  C   UNL     1      31.971  -9.726 -19.655  0.00  0.00    +0.256 C 
ENDBRANCH  27  28
ENDBRANCH   7  27
TORSDOF 3
ENDMDL
MODEL 3
REMARK VINA RESULT:      -8.7     10.060     14.017
REMARK  Name = 8969
REMARK  3 active torsions:
REMARK  status: ('A' for Active; 'I' for Inactive)
REMARK    1  A    between atoms: C_7  and  C_27
REMARK    2  A    between atoms: C_10  and  O_24
REMARK    3  A    between atoms: C_27  and  O_28
REMARK                            x       y       z     vdW  Elec       q    Type
REMARK                         _______ _______ _______ _____ _____    ______ ____
ROOT
ATOM      1  N   UNL     1      32.186 -11.585 -21.493  0.00  0.00    +0.392 N 
ATOM      2  N   UNL     1      33.951 -13.973 -23.772  0.00  0.00    -0.358 N 
ATOM      3  C   UNL     1      32.470  -9.680 -23.698  0.00  0.00    +0.009 C 
ATOM      4  C   UNL     1      32.088  -9.250 -22.265  0.00  0.00    -0.020 C 
ATOM      5  C   UNL     1      33.277 -10.991 -23.634  0.00  0.00    -0.015 C 
ATOM      6  C   UNL     1      32.496 -12.071 -22.867  0.00  0.00    -0.019 C 
ATOM      7  C   UNL     1      33.233  -8.543 -24.407  0.00  0.00    +0.126 C 
ATOM      8  C   UNL     1      31.348 -10.381 -21.534  0.00  0.00    -0.077 C 
ATOM      9  C   UNL     1      31.263  -7.958 -22.277  0.00  0.00    +0.000 C 
ATOM     10  C   UNL     1      32.419  -7.238 -24.417  0.00  0.00    +0.121 C 
ATOM     11  C   UNL     1      32.007  -6.832 -23.001  0.00  0.00    +0.030 C 
ATOM     12  C   UNL     1      33.244 -13.366 -22.773  0.00  0.00    +0.010 A 
ATOM     13  C   UNL     1      31.575 -12.643 -20.660  0.00  0.00    -0.072 C 
ATOM     14  C   UNL     1      33.269 -14.185 -21.664  0.00  0.00    -0.013 A 
ATOM     15  C   UNL     1      32.569 -13.802 -20.408  0.00  0.00    +0.005 C 
ATOM     16  C   UNL     1      34.050 -15.327 -21.988  0.00  0.00    +0.013 A 
ATOM     17  C   UNL     1      34.466 -15.169 -23.315  0.00  0.00    +0.056 A 
ATOM     18  C   UNL     1      34.445 -16.484 -21.287  0.00  0.00    +0.001 C 
ATOM     19  C   UNL     1      35.259 -16.116 -23.974  0.00  0.00    +0.017 C 
ATOM     20  C   UNL     1      35.239 -17.438 -21.934  0.00  0.00    +0.000 C 
ATOM     21  C   UNL     1      35.638 -17.255 -23.256  0.00  0.00    +0.001 C 
ATOM     22  H   UNL     1      33.072 -11.334 -21.053  0.00  0.00    -0.079 HD
ATOM     23  H   UNL     1      34.075 -13.614 -24.680  0.00  0.00    +0.166 HD
ENDROOT
BRANCH  10  24
ATOM     24  O   UNL     1      31.241  -7.412 -25.206  0.00  0.00    -0.384 OA
ATOM     25  H   UNL     1      30.457  -7.251 -24.658  0.00  0.00    +0.210 HD
ENDBRANCH  10  24
BRANCH   7  27
ATOM     26  O   UNL     1      32.764  -9.324 -26.639  0.00  0.00    -0.250 OA
ATOM     27  C   UNL     1      33.577  -8.911 -25.821  0.00  0.00    +0.319 C 
BRANCH  27  28
ATOM     28  O   UNL     1      34.908  -8.713 -26.033  0.00  0.00    -0.444 OA
ATOM     29  C   UNL     1      35.680  -9.898 -26.252  0.00  0.00    +0.256 C 
ENDBRANCH  27  28
ENDBRANCH   7  27
TORSDOF 3
ENDMDL
