MODEL 1
REMARK VINA RESULT:     -11.7      0.000      0.000
REMARK  Name = 24812758
REMARK  9 active torsions:
REMARK  status: ('A' for Active; 'I' for Inactive)
REMARK    1  A    between atoms: C_1  and  C_11
REMARK    2  A    between atoms: C_4  and  C_23
REMARK    3  A    between atoms: C_9  and  O_14
REMARK    4  A    between atoms: C_10  and  O_16
REMARK    5  A    between atoms: C_12  and  O_18
REMARK    6  A    between atoms: C_13  and  C_20
REMARK    7  A    between atoms: C_20  and  O_21
REMARK    8  A    between atoms: C_23  and  C_25
REMARK    9  A    between atoms: C_27  and  C_30
REMARK                            x       y       z     vdW  Elec       q    Type
REMARK                         _______ _______ _______ _____ _____    ______ ____
ROOT
ATOM      1  C   UNL     1      34.104 -24.263 -14.557  0.00  0.00    +0.007 C 
ATOM      2  C   UNL     1      33.896 -24.119 -15.929  0.00  0.00    -0.006 C 
ATOM      3  C   UNL     1      33.096 -23.911 -13.659  0.00  0.00    -0.002 C 
ATOM      4  C   UNL     1      32.682 -23.623 -16.403  0.00  0.00    -0.021 C 
ATOM      5  C   UNL     1      31.675 -23.271 -15.504  0.00  0.00    -0.025 C 
ATOM      6  C   UNL     1      31.882 -23.415 -14.133  0.00  0.00    -0.005 C 
ATOM      7  C   UNL     1      30.366 -22.738 -15.987  0.00  0.00    +0.031 C 
ENDROOT
BRANCH   1  11
ATOM      8  O   UNL     1      36.136 -23.712 -13.448  0.00  0.00    -0.347 OA
ATOM      9  C   UNL     1      36.254 -25.453 -15.160  0.00  0.00    +0.171 C 
ATOM     10  C   UNL     1      37.645 -25.844 -14.653  0.00  0.00    +0.169 C 
ATOM     11  C   UNL     1      35.423 -24.802 -14.043  0.00  0.00    +0.167 C 
ATOM     12  C   UNL     1      38.307 -24.691 -13.902  0.00  0.00    +0.169 C 
ATOM     13  C   UNL     1      37.363 -24.119 -12.842  0.00  0.00    +0.174 C 
BRANCH   9  14
ATOM     14  O   UNL     1      35.576 -26.626 -15.609  0.00  0.00    -0.379 OA
ATOM     15  H   UNL     1      35.648 -27.319 -14.934  0.00  0.00    +0.211 HD
ENDBRANCH   9  14
BRANCH  10  16
ATOM     16  O   UNL     1      38.476 -26.183 -15.764  0.00  0.00    -0.379 OA
ATOM     17  H   UNL     1      39.406 -26.037 -15.529  0.00  0.00    +0.211 HD
ENDBRANCH  10  16
BRANCH  12  18
ATOM     18  O   UNL     1      39.494 -25.162 -13.268  0.00  0.00    -0.379 OA
ATOM     19  H   UNL     1      40.030 -24.405 -12.982  0.00  0.00    +0.211 HD
ENDBRANCH  12  18
BRANCH  13  20
ATOM     20  C   UNL     1      37.961 -22.896 -12.153  0.00  0.00    +0.169 C 
BRANCH  20  21
ATOM     21  O   UNL     1      37.016 -22.395 -11.225  0.00  0.00    -0.379 OA
ATOM     22  H   UNL     1      37.315 -22.587 -10.322  0.00  0.00    +0.211 HD
ENDBRANCH  20  21
ENDBRANCH  13  20
ENDBRANCH   1  11
BRANCH   4  23
ATOM     23  C   UNL     1      32.482 -23.478 -17.876  0.00  0.00    +0.059 C 
BRANCH  23  25
ATOM     24  S   UNL     1      33.100 -21.594 -19.838  0.00  0.00    -0.091 S 
ATOM     25  C   UNL     1      33.545 -22.642 -18.558  0.00  0.00    +0.012 C 
ATOM     26  C   UNL     1      34.895 -22.587 -18.291  0.00  0.00    +0.003 C 
ATOM     27  C   UNL     1      34.716 -21.066 -20.039  0.00  0.00    +0.029 C 
ATOM     28  C   UNL     1      35.574 -21.674 -19.150  0.00  0.00    +0.007 C 
BRANCH  27  30
ATOM     29  F   UNL     1      35.848 -17.303 -23.991  0.00  0.00    -0.204 F 
ATOM     30  C   UNL     1      35.010 -20.091 -21.063  0.00  0.00    +0.006 C 
ATOM     31  C   UNL     1      34.047 -19.776 -22.023  0.00  0.00    +0.003 C 
ATOM     32  C   UNL     1      36.255 -19.463 -21.093  0.00  0.00    +0.003 C 
ATOM     33  C   UNL     1      34.330 -18.835 -23.012  0.00  0.00    +0.030 C 
ATOM     34  C   UNL     1      36.538 -18.522 -22.082  0.00  0.00    +0.030 C 
ATOM     35  C   UNL     1      35.576 -18.207 -23.042  0.00  0.00    +0.140 C 
ENDBRANCH  27  30
ENDBRANCH  23  25
ENDBRANCH   4  23
TORSDOF 9
ENDMDL
MODEL 2
REMARK VINA RESULT:     -11.6      0.918      2.300
REMARK  Name = 24812758
REMARK  9 active torsions:
REMARK  status: ('A' for Active; 'I' for Inactive)
REMARK    1  A    between atoms: C_1  and  C_11
REMARK    2  A    between atoms: C_4  and  C_23
REMARK    3  A    between atoms: C_9  and  O_14
REMARK    4  A    between atoms: C_10  and  O_16
REMARK    5  A    between atoms: C_12  and  O_18
REMARK    6  A    between atoms: C_13  and  C_20
REMARK    7  A    between atoms: C_20  and  O_21
REMARK    8  A    between atoms: C_23  and  C_25
REMARK    9  A    between atoms: C_27  and  C_30
REMARK                            x       y       z     vdW  Elec       q    Type
REMARK                         _______ _______ _______ _____ _____    ______ ____
ROOT
ATOM      1  C   UNL     1      34.178 -23.906 -14.883  0.00  0.00    +0.007 C 
ATOM      2  C   UNL     1      33.815 -23.628 -16.201  0.00  0.00    -0.006 C 
ATOM      3  C   UNL     1      33.212 -23.892 -13.876  0.00  0.00    -0.002 C 
ATOM      4  C   UNL     1      32.488 -23.337 -16.513  0.00  0.00    -0.021 C 
ATOM      5  C   UNL     1      31.522 -23.323 -15.506  0.00  0.00    -0.025 C 
ATOM      6  C   UNL     1      31.885 -23.600 -14.188  0.00  0.00    -0.005 C 
ATOM      7  C   UNL     1      30.094 -23.014 -15.815  0.00  0.00    +0.031 C 
ENDROOT
BRANCH   1  11
ATOM      8  O   UNL     1      35.903 -25.539 -15.032  0.00  0.00    -0.347 OA
ATOM      9  C   UNL     1      35.892 -24.130 -13.035  0.00  0.00    +0.171 C 
ATOM     10  C   UNL     1      37.308 -24.608 -12.701  0.00  0.00    +0.169 C 
ATOM     11  C   UNL     1      35.621 -24.223 -14.545  0.00  0.00    +0.167 C 
ATOM     12  C   UNL     1      37.610 -25.952 -13.361  0.00  0.00    +0.169 C 
ATOM     13  C   UNL     1      37.269 -25.915 -14.852  0.00  0.00    +0.174 C 
BRANCH   9  14
ATOM     14  O   UNL     1      35.754 -22.768 -12.630  0.00  0.00    -0.379 OA
ATOM     15  H   UNL     1      36.154 -22.189 -13.298  0.00  0.00    +0.211 HD
ENDBRANCH   9  14
BRANCH  10  16
ATOM     16  O   UNL     1      37.431 -24.772 -11.287  0.00  0.00    -0.379 OA
ATOM     17  H   UNL     1      37.630 -23.916 -10.878  0.00  0.00    +0.211 HD
ENDBRANCH  10  16
BRANCH  12  18
ATOM     18  O   UNL     1      38.995 -26.253 -13.203  0.00  0.00    -0.379 OA
ATOM     19  H   UNL     1      39.093 -27.169 -12.897  0.00  0.00    +0.211 HD
ENDBRANCH  12  18
BRANCH  13  20
ATOM     20  C   UNL     1      37.459 -27.278 -15.510  0.00  0.00    +0.169 C 
BRANCH  20  21
ATOM     21  O   UNL     1      36.496 -27.420 -16.538  0.00  0.00    -0.379 OA
ATOM     22  H   UNL     1      36.889 -27.899 -17.285  0.00  0.00    +0.211 HD
ENDBRANCH  20  21
ENDBRANCH  13  20
ENDBRANCH   1  11
BRANCH   4  23
ATOM     23  C   UNL     1      32.123 -23.043 -17.931  0.00  0.00    +0.059 C 
BRANCH  23  25
ATOM     24  S   UNL     1      32.810 -21.192 -19.901  0.00  0.00    -0.091 S 
ATOM     25  C   UNL     1      33.222 -22.359 -18.717  0.00  0.00    +0.012 C 
ATOM     26  C   UNL     1      34.584 -22.538 -18.619  0.00  0.00    +0.003 C 
ATOM     27  C   UNL     1      34.456 -20.924 -20.287  0.00  0.00    +0.029 C 
ATOM     28  C   UNL     1      35.299 -21.706 -19.530  0.00  0.00    +0.007 C 
BRANCH  27  30
ATOM     29  F   UNL     1      35.724 -17.207 -24.242  0.00  0.00    -0.204 F 
ATOM     30  C   UNL     1      34.785 -19.961 -21.312  0.00  0.00    +0.006 C 
ATOM     31  C   UNL     1      33.888 -19.715 -22.352  0.00  0.00    +0.003 C 
ATOM     32  C   UNL     1      36.000 -19.277 -21.262  0.00  0.00    +0.003 C 
ATOM     33  C   UNL     1      34.205 -18.785 -23.341  0.00  0.00    +0.030 C 
ATOM     34  C   UNL     1      36.317 -18.347 -22.252  0.00  0.00    +0.030 C 
ATOM     35  C   UNL     1      35.419 -18.100 -23.292  0.00  0.00    +0.140 C 
ENDBRANCH  27  30
ENDBRANCH  23  25
ENDBRANCH   4  23
TORSDOF 9
ENDMDL
MODEL 3
REMARK VINA RESULT:     -11.1      3.026      5.409
REMARK  Name = 24812758
REMARK  9 active torsions:
REMARK  status: ('A' for Active; 'I' for Inactive)
REMARK    1  A    between atoms: C_1  and  C_11
REMARK    2  A    between atoms: C_4  and  C_23
REMARK    3  A    between atoms: C_9  and  O_14
REMARK    4  A    between atoms: C_10  and  O_16
REMARK    5  A    between atoms: C_12  and  O_18
REMARK    6  A    between atoms: C_13  and  C_20
REMARK    7  A    between atoms: C_20  and  O_21
REMARK    8  A    between atoms: C_23  and  C_25
REMARK    9  A    between atoms: C_27  and  C_30
REMARK                            x       y       z     vdW  Elec       q    Type
REMARK                         _______ _______ _______ _____ _____    ______ ____
ROOT
ATOM      1  C   UNL     1      33.583 -23.376 -16.170  0.00  0.00    +0.007 C 
ATOM      2  C   UNL     1      34.109 -23.214 -17.452  0.00  0.00    -0.006 C 
ATOM      3  C   UNL     1      34.284 -22.899 -15.063  0.00  0.00    -0.002 C 
ATOM      4  C   UNL     1      35.336 -22.574 -17.626  0.00  0.00    -0.021 C 
ATOM      5  C   UNL     1      36.037 -22.097 -16.518  0.00  0.00    -0.025 C 
ATOM      6  C   UNL     1      35.511 -22.259 -15.237  0.00  0.00    -0.005 C 
ATOM      7  C   UNL     1      37.353 -21.408 -16.679  0.00  0.00    +0.031 C 
ENDROOT
BRANCH   1  11
ATOM      8  O   UNL     1      31.227 -23.187 -16.453  0.00  0.00    -0.347 OA
ATOM      9  C   UNL     1      32.004 -24.457 -14.514  0.00  0.00    +0.171 C 
ATOM     10  C   UNL     1      30.589 -25.009 -14.321  0.00  0.00    +0.169 C 
ATOM     11  C   UNL     1      32.249 -24.071 -15.981  0.00  0.00    +0.167 C 
ATOM     12  C   UNL     1      29.544 -24.100 -14.965  0.00  0.00    +0.169 C 
ATOM     13  C   UNL     1      29.926 -23.773 -16.410  0.00  0.00    +0.174 C 
BRANCH   9  14
ATOM     14  O   UNL     1      32.949 -25.459 -14.141  0.00  0.00    -0.379 OA
ATOM     15  H   UNL     1      32.663 -26.318 -14.489  0.00  0.00    +0.211 HD
ENDBRANCH   9  14
BRANCH  10  16
ATOM     16  O   UNL     1      30.300 -25.094 -12.925  0.00  0.00    -0.379 OA
ATOM     17  H   UNL     1      31.005 -25.587 -12.477  0.00  0.00    +0.211 HD
ENDBRANCH  10  16
BRANCH  12  18
ATOM     18  O   UNL     1      28.278 -24.753 -14.950  0.00  0.00    -0.379 OA
ATOM     19  H   UNL     1      27.758 -24.433 -14.195  0.00  0.00    +0.211 HD
ENDBRANCH  12  18
BRANCH  13  20
ATOM     20  C   UNL     1      28.955 -22.779 -17.040  0.00  0.00    +0.169 C 
BRANCH  20  21
ATOM     21  O   UNL     1      27.973 -23.501 -17.761  0.00  0.00    -0.379 OA
ATOM     22  H   UNL     1      28.277 -24.413 -17.897  0.00  0.00    +0.211 HD
ENDBRANCH  20  21
ENDBRANCH  13  20
ENDBRANCH   1  11
BRANCH   4  23
ATOM     23  C   UNL     1      35.880 -22.411 -19.007  0.00  0.00    +0.059 C 
BRANCH  23  25
ATOM     24  S   UNL     1      35.918 -20.411 -20.951  0.00  0.00    -0.091 S 
ATOM     25  C   UNL     1      35.089 -21.446 -19.866  0.00  0.00    +0.012 C 
ATOM     26  C   UNL     1      33.726 -21.262 -19.916  0.00  0.00    +0.003 C 
ATOM     27  C   UNL     1      34.450 -19.712 -21.489  0.00  0.00    +0.029 C 
ATOM     28  C   UNL     1      33.355 -20.257 -20.856  0.00  0.00    +0.007 C 
BRANCH  27  30
ATOM     29  F   UNL     1      34.631 -15.720 -25.374  0.00  0.00    -0.204 F 
ATOM     30  C   UNL     1      34.497 -18.678 -22.496  0.00  0.00    +0.006 C 
ATOM     31  C   UNL     1      34.041 -18.940 -23.788  0.00  0.00    +0.003 C 
ATOM     32  C   UNL     1      34.998 -17.415 -22.176  0.00  0.00    +0.003 C 
ATOM     33  C   UNL     1      34.086 -17.941 -24.760  0.00  0.00    +0.030 C 
ATOM     34  C   UNL     1      35.043 -16.417 -23.148  0.00  0.00    +0.030 C 
ATOM     35  C   UNL     1      34.587 -16.679 -24.441  0.00  0.00    +0.140 C 
ENDBRANCH  27  30
ENDBRANCH  23  25
ENDBRANCH   4  23
TORSDOF 9
ENDMDL
MODEL 4
REMARK VINA RESULT:     -10.3     12.042     16.263
REMARK  Name = 24812758
REMARK  9 active torsions:
REMARK  status: ('A' for Active; 'I' for Inactive)
REMARK    1  A    between atoms: C_1  and  C_11
REMARK    2  A    between atoms: C_4  and  C_23
REMARK    3  A    between atoms: C_9  and  O_14
REMARK    4  A    between atoms: C_10  and  O_16
REMARK    5  A    between atoms: C_12  and  O_18
REMARK    6  A    between atoms: C_13  and  C_20
REMARK    7  A    between atoms: C_20  and  O_21
REMARK    8  A    between atoms: C_23  and  C_25
REMARK    9  A    between atoms: C_27  and  C_30
REMARK                            x       y       z     vdW  Elec       q    Type
REMARK                         _______ _______ _______ _____ _____    ______ ____
ROOT
ATOM      1  C   UNL     1      32.727  -7.464 -22.015  0.00  0.00    +0.007 C 
ATOM      2  C   UNL     1      32.202  -8.652 -22.523  0.00  0.00    -0.006 C 
ATOM      3  C   UNL     1      32.802  -7.269 -20.635  0.00  0.00    -0.002 C 
ATOM      4  C   UNL     1      31.750  -9.644 -21.654  0.00  0.00    -0.021 C 
ATOM      5  C   UNL     1      31.825  -9.449 -20.274  0.00  0.00    -0.025 C 
ATOM      6  C   UNL     1      32.351  -8.261 -19.766  0.00  0.00    -0.005 C 
ATOM      7  C   UNL     1      31.349 -10.496 -19.322  0.00  0.00    +0.031 C 
ENDROOT
BRANCH   1  11
ATOM      8  O   UNL     1      32.075  -5.840 -23.628  0.00  0.00    -0.347 OA
ATOM      9  C   UNL     1      34.235  -6.930 -23.976  0.00  0.00    +0.171 C 
ATOM     10  C   UNL     1      34.593  -5.867 -25.018  0.00  0.00    +0.169 C 
ATOM     11  C   UNL     1      33.218  -6.386 -22.961  0.00  0.00    +0.167 C 
ATOM     12  C   UNL     1      33.340  -5.214 -25.599  0.00  0.00    +0.169 C 
ATOM     13  C   UNL     1      32.404  -4.745 -24.483  0.00  0.00    +0.174 C 
BRANCH   9  14
ATOM     14  O   UNL     1      35.419  -7.312 -23.276  0.00  0.00    -0.379 OA
ATOM     15  H   UNL     1      35.697  -6.588 -22.693  0.00  0.00    +0.211 HD
ENDBRANCH   9  14
BRANCH  10  16
ATOM     16  O   UNL     1      35.311  -6.477 -26.091  0.00  0.00    -0.379 OA
ATOM     17  H   UNL     1      35.990  -7.068 -25.731  0.00  0.00    +0.211 HD
ENDBRANCH  10  16
BRANCH  12  18
ATOM     18  O   UNL     1      33.719  -4.094 -26.395  0.00  0.00    -0.379 OA
ATOM     19  H   UNL     1      32.932  -3.565 -26.604  0.00  0.00    +0.211 HD
ENDBRANCH  12  18
BRANCH  13  20
ATOM     20  C   UNL     1      31.097  -4.189 -25.038  0.00  0.00    +0.169 C 
BRANCH  20  21
ATOM     21  O   UNL     1      30.338  -3.662 -23.963  0.00  0.00    -0.379 OA
ATOM     22  H   UNL     1      29.468  -4.090 -23.941  0.00  0.00    +0.211 HD
ENDBRANCH  20  21
ENDBRANCH  13  20
ENDBRANCH   1  11
BRANCH   4  23
ATOM     23  C   UNL     1      31.192 -10.908 -22.221  0.00  0.00    +0.059 C 
BRANCH  23  25
ATOM     24  S   UNL     1      32.349 -13.445 -22.143  0.00  0.00    -0.091 S 
ATOM     25  C   UNL     1      32.245 -11.852 -22.764  0.00  0.00    +0.012 C 
ATOM     26  C   UNL     1      33.185 -11.616 -23.742  0.00  0.00    +0.003 C 
ATOM     27  C   UNL     1      33.656 -13.822 -23.182  0.00  0.00    +0.029 C 
ATOM     28  C   UNL     1      34.004 -12.757 -23.984  0.00  0.00    +0.007 C 
BRANCH  27  30
ATOM     29  F   UNL     1      35.901 -18.918 -22.946  0.00  0.00    -0.204 F 
ATOM     30  C   UNL     1      34.238 -15.142 -23.121  0.00  0.00    +0.006 C 
ATOM     31  C   UNL     1      34.573 -15.701 -21.887  0.00  0.00    +0.003 C 
ATOM     32  C   UNL     1      34.465 -15.860 -24.296  0.00  0.00    +0.003 C 
ATOM     33  C   UNL     1      35.135 -16.976 -21.828  0.00  0.00    +0.030 C 
ATOM     34  C   UNL     1      35.026 -17.135 -24.236  0.00  0.00    +0.030 C 
ATOM     35  C   UNL     1      35.361 -17.693 -23.002  0.00  0.00    +0.140 C 
ENDBRANCH  27  30
ENDBRANCH  23  25
ENDBRANCH   4  23
TORSDOF 9
ENDMDL
MODEL 5
REMARK VINA RESULT:     -10.2      1.603      2.078
REMARK  Name = 24812758
REMARK  9 active torsions:
REMARK  status: ('A' for Active; 'I' for Inactive)
REMARK    1  A    between atoms: C_1  and  C_11
REMARK    2  A    between atoms: C_4  and  C_23
REMARK    3  A    between atoms: C_9  and  O_14
REMARK    4  A    between atoms: C_10  and  O_16
REMARK    5  A    between atoms: C_12  and  O_18
REMARK    6  A    between atoms: C_13  and  C_20
REMARK    7  A    between atoms: C_20  and  O_21
REMARK    8  A    between atoms: C_23  and  C_25
REMARK    9  A    between atoms: C_27  and  C_30
REMARK                            x       y       z     vdW  Elec       q    Type
REMARK                         _______ _______ _______ _____ _____    ______ ____
ROOT
ATOM      1  C   UNL     1      33.960 -23.699 -14.917  0.00  0.00    +0.007 C 
ATOM      2  C   UNL     1      34.031 -23.777 -16.308  0.00  0.00    -0.006 C 
ATOM      3  C   UNL     1      32.776 -23.294 -14.300  0.00  0.00    -0.002 C 
ATOM      4  C   UNL     1      32.919 -23.449 -17.083  0.00  0.00    -0.021 C 
ATOM      5  C   UNL     1      31.735 -23.044 -16.466  0.00  0.00    -0.025 C 
ATOM      6  C   UNL     1      31.664 -22.966 -15.075  0.00  0.00    -0.005 C 
ATOM      7  C   UNL     1      30.530 -22.688 -17.273  0.00  0.00    +0.031 C 
ENDROOT
BRANCH   1  11
ATOM      8  O   UNL     1      34.695 -24.534 -12.812  0.00  0.00    -0.347 OA
ATOM      9  C   UNL     1      36.112 -22.857 -13.886  0.00  0.00    +0.171 C 
ATOM     10  C   UNL     1      37.238 -23.193 -12.904  0.00  0.00    +0.169 C 
ATOM     11  C   UNL     1      35.170 -24.055 -14.075  0.00  0.00    +0.167 C 
ATOM     12  C   UNL     1      36.691 -23.832 -11.629  0.00  0.00    +0.169 C 
ATOM     13  C   UNL     1      35.748 -24.990 -11.962  0.00  0.00    +0.174 C 
BRANCH   9  14
ATOM     14  O   UNL     1      36.683 -22.521 -15.150  0.00  0.00    -0.379 OA
ATOM     15  H   UNL     1      37.090 -21.642 -15.098  0.00  0.00    +0.211 HD
ENDBRANCH   9  14
BRANCH  10  16
ATOM     16  O   UNL     1      37.923 -21.995 -12.539  0.00  0.00    -0.379 OA
ATOM     17  H   UNL     1      37.385 -21.494 -11.906  0.00  0.00    +0.211 HD
ENDBRANCH  10  16
BRANCH  12  18
ATOM     18  O   UNL     1      37.776 -24.321 -10.844  0.00  0.00    -0.379 OA
ATOM     19  H   UNL     1      37.447 -24.595  -9.973  0.00  0.00    +0.211 HD
ENDBRANCH  12  18
BRANCH  13  20
ATOM     20  C   UNL     1      35.103 -25.573 -10.709  0.00  0.00    +0.169 C 
BRANCH  20  21
ATOM     21  O   UNL     1      35.176 -24.609  -9.674  0.00  0.00    -0.379 OA
ATOM     22  H   UNL     1      34.657 -23.827  -9.923  0.00  0.00    +0.211 HD
ENDBRANCH  20  21
ENDBRANCH  13  20
ENDBRANCH   1  11
BRANCH   4  23
ATOM     23  C   UNL     1      33.018 -23.539 -18.570  0.00  0.00    +0.059 C 
BRANCH  23  25
ATOM     24  S   UNL     1      33.313 -21.474 -20.420  0.00  0.00    -0.091 S 
ATOM     25  C   UNL     1      33.923 -22.494 -19.188  0.00  0.00    +0.012 C 
ATOM     26  C   UNL     1      35.240 -22.218 -18.893  0.00  0.00    +0.003 C 
ATOM     27  C   UNL     1      34.813 -20.660 -20.563  0.00  0.00    +0.029 C 
ATOM     28  C   UNL     1      35.755 -21.155 -19.690  0.00  0.00    +0.007 C 
BRANCH  27  30
ATOM     29  F   UNL     1      35.301 -16.549 -24.294  0.00  0.00    -0.204 F 
ATOM     30  C   UNL     1      34.940 -19.594 -21.530  0.00  0.00    +0.006 C 
ATOM     31  C   UNL     1      34.118 -19.574 -22.657  0.00  0.00    +0.003 C 
ATOM     32  C   UNL     1      35.883 -18.585 -21.336  0.00  0.00    +0.003 C 
ATOM     33  C   UNL     1      34.240 -18.546 -23.591  0.00  0.00    +0.030 C 
ATOM     34  C   UNL     1      36.005 -17.557 -22.270  0.00  0.00    +0.030 C 
ATOM     35  C   UNL     1      35.184 -17.537 -23.398  0.00  0.00    +0.140 C 
ENDBRANCH  27  30
ENDBRANCH  23  25
ENDBRANCH   4  23
TORSDOF 9
ENDMDL
MODEL 6
REMARK VINA RESULT:      -9.7      6.043      9.892
REMARK  Name = 24812758
REMARK  9 active torsions:
REMARK  status: ('A' for Active; 'I' for Inactive)
REMARK    1  A    between atoms: C_1  and  C_11
REMARK    2  A    between atoms: C_4  and  C_23
REMARK    3  A    between atoms: C_9  and  O_14
REMARK    4  A    between atoms: C_10  and  O_16
REMARK    5  A    between atoms: C_12  and  O_18
REMARK    6  A    between atoms: C_13  and  C_20
REMARK    7  A    between atoms: C_20  and  O_21
REMARK    8  A    between atoms: C_23  and  C_25
REMARK    9  A    between atoms: C_27  and  C_30
REMARK                            x       y       z     vdW  Elec       q    Type
REMARK                         _______ _______ _______ _____ _____    ______ ____
ROOT
ATOM      1  C   UNL     1      34.486 -19.560 -21.175  0.00  0.00    +0.007 C 
ATOM      2  C   UNL     1      35.410 -20.465 -20.654  0.00  0.00    -0.006 C 
ATOM      3  C   UNL     1      33.123 -19.735 -20.929  0.00  0.00    -0.002 C 
ATOM      4  C   UNL     1      34.974 -21.545 -19.888  0.00  0.00    -0.021 C 
ATOM      5  C   UNL     1      33.612 -21.720 -19.642  0.00  0.00    -0.025 C 
ATOM      6  C   UNL     1      32.687 -20.816 -20.163  0.00  0.00    -0.005 C 
ATOM      7  C   UNL     1      33.120 -22.869 -18.824  0.00  0.00    +0.031 C 
ENDROOT
BRANCH   1  11
ATOM      8  O   UNL     1      34.459 -17.191 -21.401  0.00  0.00    -0.347 OA
ATOM      9  C   UNL     1      34.497 -18.493 -23.469  0.00  0.00    +0.171 C 
ATOM     10  C   UNL     1      34.849 -17.224 -24.251  0.00  0.00    +0.169 C 
ATOM     11  C   UNL     1      34.960 -18.386 -22.008  0.00  0.00    +0.167 C 
ATOM     12  C   UNL     1      34.418 -15.968 -23.495  0.00  0.00    +0.169 C 
ATOM     13  C   UNL     1      34.920 -16.005 -22.050  0.00  0.00    +0.174 C 
BRANCH   9  14
ATOM     14  O   UNL     1      35.151 -19.608 -24.076  0.00  0.00    -0.379 OA
ATOM     15  H   UNL     1      36.074 -19.642 -23.779  0.00  0.00    +0.211 HD
ENDBRANCH   9  14
BRANCH  10  16
ATOM     16  O   UNL     1      34.169 -17.237 -25.507  0.00  0.00    -0.379 OA
ATOM     17  H   UNL     1      34.781 -16.965 -26.209  0.00  0.00    +0.211 HD
ENDBRANCH  10  16
BRANCH  12  18
ATOM     18  O   UNL     1      34.952 -14.819 -24.148  0.00  0.00    -0.379 OA
ATOM     19  H   UNL     1      35.442 -15.095 -24.938  0.00  0.00    +0.211 HD
ENDBRANCH  12  18
BRANCH  13  20
ATOM     20  C   UNL     1      34.411 -14.815 -21.243  0.00  0.00    +0.169 C 
BRANCH  20  21
ATOM     21  O   UNL     1      33.393 -14.169 -21.987  0.00  0.00    -0.379 OA
ATOM     22  H   UNL     1      32.925 -14.822 -22.530  0.00  0.00    +0.211 HD
ENDBRANCH  20  21
ENDBRANCH  13  20
ENDBRANCH   1  11
BRANCH   4  23
ATOM     23  C   UNL     1      35.982 -22.501 -19.340  0.00  0.00    +0.059 C 
BRANCH  23  25
ATOM     24  S   UNL     1      35.563 -23.444 -16.748  0.00  0.00    -0.091 S 
ATOM     25  C   UNL     1      36.244 -22.331 -17.858  0.00  0.00    +0.012 C 
ATOM     26  C   UNL     1      36.994 -21.364 -17.226  0.00  0.00    +0.003 C 
ATOM     27  C   UNL     1      36.269 -22.631 -15.417  0.00  0.00    +0.029 C 
ATOM     28  C   UNL     1      37.008 -21.538 -15.811  0.00  0.00    +0.007 C 
BRANCH  27  30
ATOM     29  F   UNL     1      35.368 -24.592 -10.279  0.00  0.00    -0.204 F 
ATOM     30  C   UNL     1      36.036 -23.139 -14.085  0.00  0.00    +0.006 C 
ATOM     31  C   UNL     1      34.883 -23.876 -13.812  0.00  0.00    +0.003 C 
ATOM     32  C   UNL     1      36.963 -22.894 -13.072  0.00  0.00    +0.003 C 
ATOM     33  C   UNL     1      34.657 -24.366 -12.527  0.00  0.00    +0.030 C 
ATOM     34  C   UNL     1      36.737 -23.385 -11.787  0.00  0.00    +0.030 C 
ATOM     35  C   UNL     1      35.584 -24.121 -11.514  0.00  0.00    +0.140 C 
ENDBRANCH  27  30
ENDBRANCH  23  25
ENDBRANCH   4  23
TORSDOF 9
ENDMDL
MODEL 7
REMARK VINA RESULT:      -9.6      8.970     13.750
REMARK  Name = 24812758
REMARK  9 active torsions:
REMARK  status: ('A' for Active; 'I' for Inactive)
REMARK    1  A    between atoms: C_1  and  C_11
REMARK    2  A    between atoms: C_4  and  C_23
REMARK    3  A    between atoms: C_9  and  O_14
REMARK    4  A    between atoms: C_10  and  O_16
REMARK    5  A    between atoms: C_12  and  O_18
REMARK    6  A    between atoms: C_13  and  C_20
REMARK    7  A    between atoms: C_20  and  O_21
REMARK    8  A    between atoms: C_23  and  C_25
REMARK    9  A    between atoms: C_27  and  C_30
REMARK                            x       y       z     vdW  Elec       q    Type
REMARK                         _______ _______ _______ _____ _____    ______ ____
ROOT
ATOM      1  C   UNL     1      32.769 -10.720 -24.161  0.00  0.00    +0.007 C 
ATOM      2  C   UNL     1      32.921 -12.095 -24.337  0.00  0.00    -0.006 C 
ATOM      3  C   UNL     1      33.289  -9.834 -25.106  0.00  0.00    -0.002 C 
ATOM      4  C   UNL     1      33.592 -12.586 -25.457  0.00  0.00    -0.021 C 
ATOM      5  C   UNL     1      34.111 -11.700 -26.402  0.00  0.00    -0.025 C 
ATOM      6  C   UNL     1      33.960 -10.325 -26.226  0.00  0.00    -0.005 C 
ATOM      7  C   UNL     1      34.833 -12.201 -27.610  0.00  0.00    +0.031 C 
ENDROOT
BRANCH   1  11
ATOM      8  O   UNL     1      32.725  -9.009 -22.508  0.00  0.00    -0.347 OA
ATOM      9  C   UNL     1      31.970 -11.227 -21.815  0.00  0.00    +0.171 C 
ATOM     10  C   UNL     1      31.374 -10.618 -20.543  0.00  0.00    +0.169 C 
ATOM     11  C   UNL     1      32.040 -10.188 -22.944  0.00  0.00    +0.167 C 
ATOM     12  C   UNL     1      32.044  -9.289 -20.198  0.00  0.00    +0.169 C 
ATOM     13  C   UNL     1      32.073  -8.362 -21.415  0.00  0.00    +0.174 C 
BRANCH   9  14
ATOM     14  O   UNL     1      31.143 -12.310 -22.242  0.00  0.00    -0.379 OA
ATOM     15  H   UNL     1      30.862 -12.160 -23.158  0.00  0.00    +0.211 HD
ENDBRANCH   9  14
BRANCH  10  16
ATOM     16  O   UNL     1      31.577 -11.512 -19.448  0.00  0.00    -0.379 OA
ATOM     17  H   UNL     1      32.378 -12.036 -19.602  0.00  0.00    +0.211 HD
ENDBRANCH  10  16
BRANCH  12  18
ATOM     18  O   UNL     1      31.322  -8.657 -19.143  0.00  0.00    -0.379 OA
ATOM     19  H   UNL     1      30.547  -8.203 -19.510  0.00  0.00    +0.211 HD
ENDBRANCH  12  18
BRANCH  13  20
ATOM     20  C   UNL     1      32.834  -7.072 -21.126  0.00  0.00    +0.169 C 
BRANCH  20  21
ATOM     21  O   UNL     1      33.468  -7.195 -19.865  0.00  0.00    -0.379 OA
ATOM     22  H   UNL     1      33.317  -8.086 -19.513  0.00  0.00    +0.211 HD
ENDBRANCH  20  21
ENDBRANCH  13  20
ENDBRANCH   1  11
BRANCH   4  23
ATOM     23  C   UNL     1      33.742 -14.062 -25.625  0.00  0.00    +0.059 C 
BRANCH  23  25
ATOM     24  S   UNL     1      34.492 -16.459 -24.411  0.00  0.00    -0.091 S 
ATOM     25  C   UNL     1      34.124 -14.787 -24.351  0.00  0.00    +0.012 C 
ATOM     26  C   UNL     1      34.231 -14.280 -23.075  0.00  0.00    +0.003 C 
ATOM     27  C   UNL     1      34.795 -16.508 -22.727  0.00  0.00    +0.029 C 
ATOM     28  C   UNL     1      34.619 -15.277 -22.134  0.00  0.00    +0.007 C 
BRANCH  27  30
ATOM     29  F   UNL     1      36.285 -21.345 -20.395  0.00  0.00    -0.204 F 
ATOM     30  C   UNL     1      35.181 -17.762 -22.123  0.00  0.00    +0.006 C 
ATOM     31  C   UNL     1      36.522 -18.010 -21.828  0.00  0.00    +0.003 C 
ATOM     32  C   UNL     1      34.213 -18.724 -21.834  0.00  0.00    +0.003 C 
ATOM     33  C   UNL     1      36.895 -19.220 -21.245  0.00  0.00    +0.030 C 
ATOM     34  C   UNL     1      34.587 -19.934 -21.250  0.00  0.00    +0.030 C 
ATOM     35  C   UNL     1      35.928 -20.183 -20.955  0.00  0.00    +0.140 C 
ENDBRANCH  27  30
ENDBRANCH  23  25
ENDBRANCH   4  23
TORSDOF 9
ENDMDL
MODEL 8
REMARK VINA RESULT:      -9.6     12.671     17.047
REMARK  Name = 24812758
REMARK  9 active torsions:
REMARK  status: ('A' for Active; 'I' for Inactive)
REMARK    1  A    between atoms: C_1  and  C_11
REMARK    2  A    between atoms: C_4  and  C_23
REMARK    3  A    between atoms: C_9  and  O_14
REMARK    4  A    between atoms: C_10  and  O_16
REMARK    5  A    between atoms: C_12  and  O_18
REMARK    6  A    between atoms: C_13  and  C_20
REMARK    7  A    between atoms: C_20  and  O_21
REMARK    8  A    between atoms: C_23  and  C_25
REMARK    9  A    between atoms: C_27  and  C_30
REMARK                            x       y       z     vdW  Elec       q    Type
REMARK                         _______ _______ _______ _____ _____    ______ ____
ROOT
ATOM      1  C   UNL     1      32.353  -7.168 -23.081  0.00  0.00    +0.007 C 
ATOM      2  C   UNL     1      31.882  -8.476 -23.186  0.00  0.00    -0.006 C 
ATOM      3  C   UNL     1      32.751  -6.667 -21.841  0.00  0.00    -0.002 C 
ATOM      4  C   UNL     1      31.809  -9.285 -22.052  0.00  0.00    -0.021 C 
ATOM      5  C   UNL     1      32.208  -8.784 -20.812  0.00  0.00    -0.025 C 
ATOM      6  C   UNL     1      32.678  -7.475 -20.707  0.00  0.00    -0.005 C 
ATOM      7  C   UNL     1      32.139  -9.630 -19.583  0.00  0.00    +0.031 C 
ENDROOT
BRANCH   1  11
ATOM      8  O   UNL     1      33.815  -6.135 -24.650  0.00  0.00    -0.347 OA
ATOM      9  C   UNL     1      31.769  -4.922 -24.090  0.00  0.00    +0.171 C 
ATOM     10  C   UNL     1      32.001  -3.996 -25.287  0.00  0.00    +0.169 C 
ATOM     11  C   UNL     1      32.432  -6.289 -24.314  0.00  0.00    +0.167 C 
ATOM     12  C   UNL     1      33.473  -3.975 -25.696  0.00  0.00    +0.169 C 
ATOM     13  C   UNL     1      34.012  -5.398 -25.857  0.00  0.00    +0.174 C 
BRANCH   9  14
ATOM     14  O   UNL     1      30.365  -5.118 -23.919  0.00  0.00    -0.379 OA
ATOM     15  H   UNL     1      30.179  -6.066 -23.835  0.00  0.00    +0.211 HD
ENDBRANCH   9  14
BRANCH  10  16
ATOM     16  O   UNL     1      31.621  -2.664 -24.938  0.00  0.00    -0.379 OA
ATOM     17  H   UNL     1      32.281  -2.040 -25.278  0.00  0.00    +0.211 HD
ENDBRANCH  10  16
BRANCH  12  18
ATOM     18  O   UNL     1      33.608  -3.280 -26.933  0.00  0.00    -0.379 OA
ATOM     19  H   UNL     1      34.357  -2.665 -26.878  0.00  0.00    +0.211 HD
ENDBRANCH  12  18
BRANCH  13  20
ATOM     20  C   UNL     1      35.508  -5.405 -26.158  0.00  0.00    +0.169 C 
BRANCH  20  21
ATOM     21  O   UNL     1      35.700  -4.984 -27.497  0.00  0.00    -0.379 OA
ATOM     22  H   UNL     1      35.128  -5.502 -28.084  0.00  0.00    +0.211 HD
ENDBRANCH  20  21
ENDBRANCH  13  20
ENDBRANCH   1  11
BRANCH   4  23
ATOM     23  C   UNL     1      31.303 -10.683 -22.188  0.00  0.00    +0.059 C 
BRANCH  23  25
ATOM     24  S   UNL     1      32.345 -13.267 -22.301  0.00  0.00    -0.091 S 
ATOM     25  C   UNL     1      32.297 -11.636 -22.819  0.00  0.00    +0.012 C 
ATOM     26  C   UNL     1      33.223 -11.379 -23.805  0.00  0.00    +0.003 C 
ATOM     27  C   UNL     1      33.608 -13.634 -23.397  0.00  0.00    +0.029 C 
ATOM     28  C   UNL     1      33.983 -12.537 -24.140  0.00  0.00    +0.007 C 
BRANCH  27  30
ATOM     29  F   UNL     1      35.626 -18.827 -23.545  0.00  0.00    -0.204 F 
ATOM     30  C   UNL     1      34.131 -14.980 -23.435  0.00  0.00    +0.006 C 
ATOM     31  C   UNL     1      34.157 -15.684 -24.639  0.00  0.00    +0.003 C 
ATOM     32  C   UNL     1      34.610 -15.576 -22.269  0.00  0.00    +0.003 C 
ATOM     33  C   UNL     1      34.662 -16.983 -24.677  0.00  0.00    +0.030 C 
ATOM     34  C   UNL     1      35.115 -16.875 -22.306  0.00  0.00    +0.030 C 
ATOM     35  C   UNL     1      35.141 -17.579 -23.510  0.00  0.00    +0.140 C 
ENDBRANCH  27  30
ENDBRANCH  23  25
ENDBRANCH   4  23
TORSDOF 9
ENDMDL
MODEL 9
REMARK VINA RESULT:      -9.6      6.060     10.229
REMARK  Name = 24812758
REMARK  9 active torsions:
REMARK  status: ('A' for Active; 'I' for Inactive)
REMARK    1  A    between atoms: C_1  and  C_11
REMARK    2  A    between atoms: C_4  and  C_23
REMARK    3  A    between atoms: C_9  and  O_14
REMARK    4  A    between atoms: C_10  and  O_16
REMARK    5  A    between atoms: C_12  and  O_18
REMARK    6  A    between atoms: C_13  and  C_20
REMARK    7  A    between atoms: C_20  and  O_21
REMARK    8  A    between atoms: C_23  and  C_25
REMARK    9  A    between atoms: C_27  and  C_30
REMARK                            x       y       z     vdW  Elec       q    Type
REMARK                         _______ _______ _______ _____ _____    ______ ____
ROOT
ATOM      1  C   UNL     1      35.838 -19.068 -21.790  0.00  0.00    +0.007 C 
ATOM      2  C   UNL     1      35.190 -20.293 -21.626  0.00  0.00    -0.006 C 
ATOM      3  C   UNL     1      36.815 -18.669 -20.878  0.00  0.00    -0.002 C 
ATOM      4  C   UNL     1      35.518 -21.118 -20.551  0.00  0.00    -0.021 C 
ATOM      5  C   UNL     1      36.496 -20.718 -19.639  0.00  0.00    -0.025 C 
ATOM      6  C   UNL     1      37.144 -19.494 -19.803  0.00  0.00    -0.005 C 
ATOM      7  C   UNL     1      36.866 -21.584 -18.480  0.00  0.00    +0.031 C 
ENDROOT
BRANCH   1  11
ATOM      8  O   UNL     1      35.069 -16.908 -22.427  0.00  0.00    -0.347 OA
ATOM      9  C   UNL     1      34.375 -18.782 -23.834  0.00  0.00    +0.171 C 
ATOM     10  C   UNL     1      33.918 -17.792 -24.910  0.00  0.00    +0.169 C 
ATOM     11  C   UNL     1      35.480 -18.172 -22.959  0.00  0.00    +0.167 C 
ATOM     12  C   UNL     1      33.627 -16.417 -24.313  0.00  0.00    +0.169 C 
ATOM     13  C   UNL     1      34.793 -15.944 -23.444  0.00  0.00    +0.174 C 
BRANCH   9  14
ATOM     14  O   UNL     1      34.888 -19.953 -24.468  0.00  0.00    -0.379 OA
ATOM     15  H   UNL     1      35.079 -19.760 -25.399  0.00  0.00    +0.211 HD
ENDBRANCH   9  14
BRANCH  10  16
ATOM     16  O   UNL     1      32.718 -18.273 -25.518  0.00  0.00    -0.379 OA
ATOM     17  H   UNL     1      32.121 -17.528 -25.688  0.00  0.00    +0.211 HD
ENDBRANCH  10  16
BRANCH  12  18
ATOM     18  O   UNL     1      33.416 -15.481 -25.367  0.00  0.00    -0.379 OA
ATOM     19  H   UNL     1      33.574 -15.915 -26.221  0.00  0.00    +0.211 HD
ENDBRANCH  12  18
BRANCH  13  20
ATOM     20  C   UNL     1      34.481 -14.622 -22.748  0.00  0.00    +0.169 C 
BRANCH  20  21
ATOM     21  O   UNL     1      34.672 -13.569 -23.676  0.00  0.00    -0.379 OA
ATOM     22  H   UNL     1      33.907 -13.519 -24.271  0.00  0.00    +0.211 HD
ENDBRANCH  20  21
ENDBRANCH  13  20
ENDBRANCH   1  11
BRANCH   4  23
ATOM     23  C   UNL     1      34.812 -22.424 -20.396  0.00  0.00    +0.059 C 
BRANCH  23  25
ATOM     24  S   UNL     1      33.714 -23.367 -18.012  0.00  0.00    -0.091 S 
ATOM     25  C   UNL     1      33.660 -22.384 -19.413  0.00  0.00    +0.012 C 
ATOM     26  C   UNL     1      32.508 -21.633 -19.474  0.00  0.00    +0.003 C 
ATOM     27  C   UNL     1      32.192 -22.789 -17.483  0.00  0.00    +0.029 C 
ATOM     28  C   UNL     1      31.656 -21.867 -18.355  0.00  0.00    +0.007 C 
BRANCH  27  30
ATOM     29  F   UNL     1      30.081 -24.738 -12.707  0.00  0.00    -0.204 F 
ATOM     30  C   UNL     1      31.644 -23.294 -16.245  0.00  0.00    +0.006 C 
ATOM     31  C   UNL     1      32.490 -23.572 -15.171  0.00  0.00    +0.003 C 
ATOM     32  C   UNL     1      30.271 -23.505 -16.124  0.00  0.00    +0.003 C 
ATOM     33  C   UNL     1      31.962 -24.059 -13.976  0.00  0.00    +0.030 C 
ATOM     34  C   UNL     1      29.743 -23.992 -14.929  0.00  0.00    +0.030 C 
ATOM     35  C   UNL     1      30.589 -24.270 -13.854  0.00  0.00    +0.140 C 
ENDBRANCH  27  30
ENDBRANCH  23  25
ENDBRANCH   4  23
TORSDOF 9
ENDMDL
