MODEL 1
REMARK VINA RESULT:     -12.2      0.000      0.000
REMARK  Name = 24941249
REMARK  6 active torsions:
REMARK  status: ('A' for Active; 'I' for Inactive)
REMARK    1  A    between atoms: N_1  and  C_13
REMARK    2  A    between atoms: N_2  and  C_26
REMARK    3  A    between atoms: C_14  and  C_19
REMARK    4  A    between atoms: C_19  and  C_20
REMARK    5  A    between atoms: C_20  and  C_23
REMARK    6  A    between atoms: C_26  and  C_28
REMARK                            x       y       z     vdW  Elec       q    Type
REMARK                         _______ _______ _______ _____ _____    ______ ____
ROOT
ATOM      1  N   UNL     1      34.009 -24.217 -13.847  0.00  0.00    -0.230 N 
ATOM      2  N   UNL     1      34.610 -22.410 -18.348  0.00  0.00    -0.316 N 
ATOM      3  N   UNL     1      32.943 -24.674 -13.167  0.00  0.00    -0.169 NA
ATOM      4  N   UNL     1      32.511 -23.130 -17.487  0.00  0.00    -0.229 NA
ATOM      5  C   UNL     1      33.724 -23.793 -15.116  0.00  0.00    +0.088 A 
ATOM      6  C   UNL     1      32.357 -23.993 -15.271  0.00  0.00    +0.052 A 
ATOM      7  C   UNL     1      31.940 -24.536 -14.038  0.00  0.00    +0.082 A 
ATOM      8  C   UNL     1      34.526 -23.264 -16.120  0.00  0.00    +0.053 C 
ATOM      9  C   UNL     1      33.841 -22.955 -17.285  0.00  0.00    +0.130 C 
ATOM     10  C   UNL     1      31.761 -23.649 -16.484  0.00  0.00    +0.103 C 
ATOM     11  C   UNL     1      30.579 -24.940 -13.647  0.00  0.00    +0.054 C 
ATOM     12  H   UNL     1      35.576 -22.278 -18.212  0.00  0.00    +0.148 HD
ENDROOT
BRANCH   1  13
ATOM     13  C   UNL     1      35.263 -24.211 -13.237  0.00  0.00    +0.082 C 
ATOM     14  C   UNL     1      37.465 -25.170 -12.970  0.00  0.00    -0.020 C 
ATOM     15  C   UNL     1      36.210 -25.176 -13.580  0.00  0.00    +0.015 C 
ATOM     16  C   UNL     1      35.571 -23.240 -12.285  0.00  0.00    +0.019 C 
ATOM     17  C   UNL     1      37.773 -24.199 -12.018  0.00  0.00    -0.004 C 
ATOM     18  C   UNL     1      36.826 -23.233 -11.675  0.00  0.00    +0.001 C 
BRANCH  14  19
ATOM     19  C   UNL     1      38.477 -26.202 -13.335  0.00  0.00    +0.036 C 
BRANCH  19  20
ATOM     20  C   UNL     1      39.780 -25.581 -13.852  0.00  0.00    +0.089 C 
BRANCH  20  23
ATOM     21  O   UNL     1      40.450 -26.246 -16.087  0.00  0.00    -0.275 OA
ATOM     22  N   UNL     1      39.079 -24.416 -15.837  0.00  0.00    -0.329 N 
ATOM     23  C   UNL     1      39.824 -25.476 -15.364  0.00  0.00    +0.220 C 
ATOM     24  H   UNL     1      39.029 -24.244 -16.804  0.00  0.00    +0.145 HD
ATOM     25  H   UNL     1      38.599 -23.833 -15.206  0.00  0.00    +0.145 HD
ENDBRANCH  20  23
ENDBRANCH  19  20
ENDBRANCH  14  19
ENDBRANCH   1  13
BRANCH   2  26
ATOM     26  C   UNL     1      34.039 -22.048 -19.602  0.00  0.00    +0.093 C 
ATOM     27  C   UNL     1      32.578 -21.650 -19.398  0.00  0.00    +0.026 C 
BRANCH  26  28
ATOM     28  C   UNL     1      34.862 -20.960 -20.256  0.00  0.00    -0.005 C 
ATOM     29  C   UNL     1      36.232 -20.876 -20.008  0.00  0.00    -0.003 C 
ATOM     30  C   UNL     1      34.251 -20.041 -21.109  0.00  0.00    -0.003 C 
ATOM     31  C   UNL     1      36.991 -19.873 -20.611  0.00  0.00    -0.000 C 
ATOM     32  C   UNL     1      35.010 -19.038 -21.713  0.00  0.00    -0.000 C 
ATOM     33  C   UNL     1      36.380 -18.954 -21.464  0.00  0.00    -0.000 C 
ENDBRANCH  26  28
ENDBRANCH   2  26
TORSDOF 6
ENDMDL
MODEL 2
REMARK VINA RESULT:     -11.8      8.060     13.395
REMARK  Name = 24941249
REMARK  6 active torsions:
REMARK  status: ('A' for Active; 'I' for Inactive)
REMARK    1  A    between atoms: N_1  and  C_13
REMARK    2  A    between atoms: N_2  and  C_26
REMARK    3  A    between atoms: C_14  and  C_19
REMARK    4  A    between atoms: C_19  and  C_20
REMARK    5  A    between atoms: C_20  and  C_23
REMARK    6  A    between atoms: C_26  and  C_28
REMARK                            x       y       z     vdW  Elec       q    Type
REMARK                         _______ _______ _______ _____ _____    ______ ____
ROOT
ATOM      1  N   UNL     1      33.113 -13.601 -23.408  0.00  0.00    -0.230 N 
ATOM      2  N   UNL     1      35.058 -17.670 -21.526  0.00  0.00    -0.316 N 
ATOM      3  N   UNL     1      33.017 -13.111 -24.657  0.00  0.00    -0.169 NA
ATOM      4  N   UNL     1      35.088 -17.147 -23.848  0.00  0.00    -0.229 NA
ATOM      5  C   UNL     1      33.753 -14.807 -23.327  0.00  0.00    +0.088 A 
ATOM      6  C   UNL     1      34.101 -15.126 -24.634  0.00  0.00    +0.052 A 
ATOM      7  C   UNL     1      33.620 -14.043 -25.400  0.00  0.00    +0.082 A 
ATOM      8  C   UNL     1      34.052 -15.628 -22.246  0.00  0.00    +0.053 C 
ATOM      9  C   UNL     1      34.726 -16.790 -22.591  0.00  0.00    +0.130 C 
ATOM     10  C   UNL     1      34.779 -16.320 -24.877  0.00  0.00    +0.103 C 
ATOM     11  C   UNL     1      33.716 -13.859 -26.858  0.00  0.00    +0.054 C 
ATOM     12  H   UNL     1      34.801 -17.420 -20.609  0.00  0.00    +0.148 HD
ENDROOT
BRANCH   1  13
ATOM     13  C   UNL     1      32.577 -12.877 -22.342  0.00  0.00    +0.082 C 
ATOM     14  C   UNL     1      31.728 -10.803 -21.438  0.00  0.00    -0.020 C 
ATOM     15  C   UNL     1      32.264 -11.527 -22.504  0.00  0.00    +0.015 C 
ATOM     16  C   UNL     1      32.355 -13.503 -21.116  0.00  0.00    +0.019 C 
ATOM     17  C   UNL     1      31.505 -11.430 -20.212  0.00  0.00    -0.004 C 
ATOM     18  C   UNL     1      31.818 -12.780 -20.051  0.00  0.00    +0.001 C 
BRANCH  14  19
ATOM     19  C   UNL     1      31.394  -9.360 -21.610  0.00  0.00    +0.036 C 
BRANCH  19  20
ATOM     20  C   UNL     1      32.492  -8.595 -22.358  0.00  0.00    +0.089 C 
BRANCH  20  23
ATOM     21  O   UNL     1      32.974  -6.220 -22.258  0.00  0.00    -0.275 OA
ATOM     22  N   UNL     1      33.096  -7.460 -20.325  0.00  0.00    -0.329 N 
ATOM     23  C   UNL     1      32.873  -7.295 -21.676  0.00  0.00    +0.220 C 
ATOM     24  H   UNL     1      33.351  -6.687 -19.772  0.00  0.00    +0.145 HD
ATOM     25  H   UNL     1      33.001  -8.350 -19.916  0.00  0.00    +0.145 HD
ENDBRANCH  20  23
ENDBRANCH  19  20
ENDBRANCH  14  19
ENDBRANCH   1  13
BRANCH   2  26
ATOM     26  C   UNL     1      35.748 -18.899 -21.733  0.00  0.00    +0.093 C 
ATOM     27  C   UNL     1      37.224 -18.717 -21.385  0.00  0.00    +0.026 C 
BRANCH  26  28
ATOM     28  C   UNL     1      35.087 -20.008 -20.944  0.00  0.00    -0.005 C 
ATOM     29  C   UNL     1      35.868 -20.920 -20.233  0.00  0.00    -0.003 C 
ATOM     30  C   UNL     1      33.697 -20.120 -20.927  0.00  0.00    -0.003 C 
ATOM     31  C   UNL     1      35.259 -21.943 -19.506  0.00  0.00    -0.000 C 
ATOM     32  C   UNL     1      33.088 -21.142 -20.200  0.00  0.00    -0.000 C 
ATOM     33  C   UNL     1      33.869 -22.054 -19.489  0.00  0.00    -0.000 C 
ENDBRANCH  26  28
ENDBRANCH   2  26
TORSDOF 6
ENDMDL
MODEL 3
REMARK VINA RESULT:     -11.0      3.180      8.391
REMARK  Name = 24941249
REMARK  6 active torsions:
REMARK  status: ('A' for Active; 'I' for Inactive)
REMARK    1  A    between atoms: N_1  and  C_13
REMARK    2  A    between atoms: N_2  and  C_26
REMARK    3  A    between atoms: C_14  and  C_19
REMARK    4  A    between atoms: C_19  and  C_20
REMARK    5  A    between atoms: C_20  and  C_23
REMARK    6  A    between atoms: C_26  and  C_28
REMARK                            x       y       z     vdW  Elec       q    Type
REMARK                         _______ _______ _______ _____ _____    ______ ____
ROOT
ATOM      1  N   UNL     1      33.252 -22.368 -18.228  0.00  0.00    -0.230 N 
ATOM      2  N   UNL     1      36.225 -24.786 -15.195  0.00  0.00    -0.316 N 
ATOM      3  N   UNL     1      31.918 -22.209 -18.287  0.00  0.00    -0.169 NA
ATOM      4  N   UNL     1      33.857 -24.742 -14.962  0.00  0.00    -0.229 NA
ATOM      5  C   UNL     1      33.678 -23.146 -17.187  0.00  0.00    +0.088 A 
ATOM      6  C   UNL     1      32.522 -23.521 -16.513  0.00  0.00    +0.052 A 
ATOM      7  C   UNL     1      31.478 -22.912 -17.241  0.00  0.00    +0.082 A 
ATOM      8  C   UNL     1      34.947 -23.545 -16.784  0.00  0.00    +0.053 C 
ATOM      9  C   UNL     1      34.954 -24.348 -15.654  0.00  0.00    +0.130 C 
ATOM     10  C   UNL     1      32.635 -24.333 -15.385  0.00  0.00    +0.103 C 
ATOM     11  C   UNL     1      30.032 -22.978 -16.967  0.00  0.00    +0.054 C 
ATOM     12  H   UNL     1      37.028 -24.507 -15.691  0.00  0.00    +0.148 HD
ENDROOT
BRANCH   1  13
ATOM     13  C   UNL     1      34.061 -21.757 -19.187  0.00  0.00    +0.082 C 
ATOM     14  C   UNL     1      34.298 -20.338 -21.129  0.00  0.00    -0.020 C 
ATOM     15  C   UNL     1      33.489 -20.949 -20.170  0.00  0.00    +0.015 C 
ATOM     16  C   UNL     1      35.441 -21.954 -19.162  0.00  0.00    +0.019 C 
ATOM     17  C   UNL     1      35.678 -20.535 -21.104  0.00  0.00    -0.004 C 
ATOM     18  C   UNL     1      36.251 -21.342 -20.121  0.00  0.00    +0.001 C 
BRANCH  14  19
ATOM     19  C   UNL     1      33.686 -19.475 -22.180  0.00  0.00    +0.036 C 
BRANCH  19  20
ATOM     20  C   UNL     1      34.513 -19.460 -23.471  0.00  0.00    +0.089 C 
BRANCH  20  23
ATOM     21  O   UNL     1      33.815 -17.830 -25.127  0.00  0.00    -0.275 OA
ATOM     22  N   UNL     1      35.383 -17.218 -23.560  0.00  0.00    -0.329 N 
ATOM     23  C   UNL     1      34.511 -18.106 -24.155  0.00  0.00    +0.220 C 
ATOM     24  H   UNL     1      35.472 -16.305 -23.914  0.00  0.00    +0.145 HD
ATOM     25  H   UNL     1      35.916 -17.500 -22.782  0.00  0.00    +0.145 HD
ENDBRANCH  20  23
ENDBRANCH  19  20
ENDBRANCH  14  19
ENDBRANCH   1  13
BRANCH   2  26
ATOM     26  C   UNL     1      36.382 -25.614 -14.047  0.00  0.00    +0.093 C 
ATOM     27  C   UNL     1      37.654 -26.448 -14.193  0.00  0.00    +0.026 C 
BRANCH  26  28
ATOM     28  C   UNL     1      36.368 -24.772 -12.789  0.00  0.00    -0.005 C 
ATOM     29  C   UNL     1      35.589 -25.160 -11.699  0.00  0.00    -0.003 C 
ATOM     30  C   UNL     1      37.134 -23.609 -12.721  0.00  0.00    -0.003 C 
ATOM     31  C   UNL     1      35.576 -24.383 -10.540  0.00  0.00    -0.000 C 
ATOM     32  C   UNL     1      37.120 -22.832 -11.562  0.00  0.00    -0.000 C 
ATOM     33  C   UNL     1      36.342 -23.220 -10.471  0.00  0.00    -0.000 C 
ENDBRANCH  26  28
ENDBRANCH   2  26
TORSDOF 6
ENDMDL
MODEL 4
REMARK VINA RESULT:     -10.7      3.582      6.764
REMARK  Name = 24941249
REMARK  6 active torsions:
REMARK  status: ('A' for Active; 'I' for Inactive)
REMARK    1  A    between atoms: N_1  and  C_13
REMARK    2  A    between atoms: N_2  and  C_26
REMARK    3  A    between atoms: C_14  and  C_19
REMARK    4  A    between atoms: C_19  and  C_20
REMARK    5  A    between atoms: C_20  and  C_23
REMARK    6  A    between atoms: C_26  and  C_28
REMARK                            x       y       z     vdW  Elec       q    Type
REMARK                         _______ _______ _______ _____ _____    ______ ____
ROOT
ATOM      1  N   UNL     1      33.011 -24.067 -14.970  0.00  0.00    -0.230 N 
ATOM      2  N   UNL     1      34.825 -21.901 -18.956  0.00  0.00    -0.316 N 
ATOM      3  N   UNL     1      33.553 -24.474 -13.808  0.00  0.00    -0.169 NA
ATOM      4  N   UNL     1      36.138 -22.475 -17.057  0.00  0.00    -0.229 NA
ATOM      5  C   UNL     1      33.903 -23.493 -15.833  0.00  0.00    +0.088 A 
ATOM      6  C   UNL     1      35.126 -23.530 -15.175  0.00  0.00    +0.052 A 
ATOM      7  C   UNL     1      34.841 -24.144 -13.938  0.00  0.00    +0.082 A 
ATOM      8  C   UNL     1      33.749 -22.956 -17.106  0.00  0.00    +0.053 C 
ATOM      9  C   UNL     1      34.922 -22.463 -17.656  0.00  0.00    +0.130 C 
ATOM     10  C   UNL     1      36.250 -23.007 -15.814  0.00  0.00    +0.103 C 
ATOM     11  C   UNL     1      35.779 -24.438 -12.841  0.00  0.00    +0.054 C 
ATOM     12  H   UNL     1      33.947 -21.888 -19.401  0.00  0.00    +0.148 HD
ENDROOT
BRANCH   1  13
ATOM     13  C   UNL     1      31.647 -24.253 -15.194  0.00  0.00    +0.082 C 
ATOM     14  C   UNL     1      29.552 -23.472 -16.111  0.00  0.00    -0.020 C 
ATOM     15  C   UNL     1      30.917 -23.286 -15.886  0.00  0.00    +0.015 C 
ATOM     16  C   UNL     1      31.013 -25.404 -14.728  0.00  0.00    +0.019 C 
ATOM     17  C   UNL     1      28.919 -24.623 -15.644  0.00  0.00    -0.004 C 
ATOM     18  C   UNL     1      29.649 -25.590 -14.953  0.00  0.00    +0.001 C 
BRANCH  14  19
ATOM     19  C   UNL     1      28.771 -22.439 -16.849  0.00  0.00    +0.036 C 
BRANCH  19  20
ATOM     20  C   UNL     1      27.436 -22.983 -17.371  0.00  0.00    +0.089 C 
BRANCH  20  23
ATOM     21  O   UNL     1      25.761 -22.328 -15.743  0.00  0.00    -0.275 OA
ATOM     22  N   UNL     1      25.754 -21.320 -17.811  0.00  0.00    -0.329 N 
ATOM     23  C   UNL     1      26.241 -22.198 -16.865  0.00  0.00    +0.220 C 
ATOM     24  H   UNL     1      24.978 -20.753 -17.600  0.00  0.00    +0.145 HD
ATOM     25  H   UNL     1      26.182 -21.262 -18.695  0.00  0.00    +0.145 HD
ENDBRANCH  20  23
ENDBRANCH  19  20
ENDBRANCH  14  19
ENDBRANCH   1  13
BRANCH   2  26
ATOM     26  C   UNL     1      35.949 -21.355 -19.642  0.00  0.00    +0.093 C 
ATOM     27  C   UNL     1      36.769 -22.489 -20.255  0.00  0.00    +0.026 C 
BRANCH  26  28
ATOM     28  C   UNL     1      35.493 -20.336 -20.664  0.00  0.00    -0.005 C 
ATOM     29  C   UNL     1      34.169 -20.333 -21.105  0.00  0.00    -0.003 C 
ATOM     30  C   UNL     1      36.396 -19.400 -21.166  0.00  0.00    -0.003 C 
ATOM     31  C   UNL     1      33.750 -19.395 -22.047  0.00  0.00    -0.000 C 
ATOM     32  C   UNL     1      35.977 -18.461 -22.108  0.00  0.00    -0.000 C 
ATOM     33  C   UNL     1      34.653 -18.458 -22.548  0.00  0.00    -0.000 C 
ENDBRANCH  26  28
ENDBRANCH   2  26
TORSDOF 6
ENDMDL
MODEL 5
REMARK VINA RESULT:     -10.4      2.614      7.665
REMARK  Name = 24941249
REMARK  6 active torsions:
REMARK  status: ('A' for Active; 'I' for Inactive)
REMARK    1  A    between atoms: N_1  and  C_13
REMARK    2  A    between atoms: N_2  and  C_26
REMARK    3  A    between atoms: C_14  and  C_19
REMARK    4  A    between atoms: C_19  and  C_20
REMARK    5  A    between atoms: C_20  and  C_23
REMARK    6  A    between atoms: C_26  and  C_28
REMARK                            x       y       z     vdW  Elec       q    Type
REMARK                         _______ _______ _______ _____ _____    ______ ____
ROOT
ATOM      1  N   UNL     1      32.759 -22.634 -17.866  0.00  0.00    -0.230 N 
ATOM      2  N   UNL     1      36.791 -24.314 -15.676  0.00  0.00    -0.316 N 
ATOM      3  N   UNL     1      31.444 -22.791 -17.633  0.00  0.00    -0.169 NA
ATOM      4  N   UNL     1      34.585 -24.828 -14.948  0.00  0.00    -0.229 NA
ATOM      5  C   UNL     1      33.567 -23.299 -16.986  0.00  0.00    +0.088 A 
ATOM      6  C   UNL     1      32.703 -23.941 -16.108  0.00  0.00    +0.052 A 
ATOM      7  C   UNL     1      31.414 -23.587 -16.562  0.00  0.00    +0.082 A 
ATOM      8  C   UNL     1      34.950 -23.392 -16.884  0.00  0.00    +0.053 C 
ATOM      9  C   UNL     1      35.386 -24.181 -15.830  0.00  0.00    +0.130 C 
ATOM     10  C   UNL     1      33.240 -24.713 -15.079  0.00  0.00    +0.103 C 
ATOM     11  C   UNL     1      30.117 -23.992 -15.994  0.00  0.00    +0.054 C 
ATOM     12  H   UNL     1      37.382 -23.849 -16.313  0.00  0.00    +0.148 HD
ENDROOT
BRANCH   1  13
ATOM     13  C   UNL     1      33.178 -21.842 -18.936  0.00  0.00    +0.082 C 
ATOM     14  C   UNL     1      34.959 -20.904 -20.274  0.00  0.00    -0.020 C 
ATOM     15  C   UNL     1      34.539 -21.696 -19.204  0.00  0.00    +0.015 C 
ATOM     16  C   UNL     1      32.236 -21.197 -19.738  0.00  0.00    +0.019 C 
ATOM     17  C   UNL     1      34.017 -20.260 -21.075  0.00  0.00    -0.004 C 
ATOM     18  C   UNL     1      32.656 -20.406 -20.808  0.00  0.00    +0.001 C 
BRANCH  14  19
ATOM     19  C   UNL     1      36.414 -20.747 -20.559  0.00  0.00    +0.036 C 
BRANCH  19  20
ATOM     20  C   UNL     1      36.848 -19.276 -20.568  0.00  0.00    +0.089 C 
BRANCH  20  23
ATOM     21  O   UNL     1      36.031 -18.320 -22.643  0.00  0.00    -0.275 OA
ATOM     22  N   UNL     1      38.289 -18.684 -22.401  0.00  0.00    -0.329 N 
ATOM     23  C   UNL     1      36.980 -18.710 -21.969  0.00  0.00    +0.220 C 
ATOM     24  H   UNL     1      38.504 -18.337 -23.296  0.00  0.00    +0.145 HD
ATOM     25  H   UNL     1      39.007 -19.012 -21.814  0.00  0.00    +0.145 HD
ENDBRANCH  20  23
ENDBRANCH  19  20
ENDBRANCH  14  19
ENDBRANCH   1  13
BRANCH   2  26
ATOM     26  C   UNL     1      37.380 -25.092 -14.638  0.00  0.00    +0.093 C 
ATOM     27  C   UNL     1      38.897 -25.110 -14.815  0.00  0.00    +0.026 C 
BRANCH  26  28
ATOM     28  C   UNL     1      36.949 -24.568 -13.285  0.00  0.00    -0.005 C 
ATOM     29  C   UNL     1      37.291 -23.272 -12.897  0.00  0.00    -0.003 C 
ATOM     30  C   UNL     1      36.211 -25.381 -12.425  0.00  0.00    -0.003 C 
ATOM     31  C   UNL     1      36.894 -22.790 -11.650  0.00  0.00    -0.000 C 
ATOM     32  C   UNL     1      35.815 -24.899 -11.178  0.00  0.00    -0.000 C 
ATOM     33  C   UNL     1      36.156 -23.603 -10.790  0.00  0.00    -0.000 C 
ENDBRANCH  26  28
ENDBRANCH   2  26
TORSDOF 6
ENDMDL
MODEL 6
REMARK VINA RESULT:      -9.9      1.896      7.109
REMARK  Name = 24941249
REMARK  6 active torsions:
REMARK  status: ('A' for Active; 'I' for Inactive)
REMARK    1  A    between atoms: N_1  and  C_13
REMARK    2  A    between atoms: N_2  and  C_26
REMARK    3  A    between atoms: C_14  and  C_19
REMARK    4  A    between atoms: C_19  and  C_20
REMARK    5  A    between atoms: C_20  and  C_23
REMARK    6  A    between atoms: C_26  and  C_28
REMARK                            x       y       z     vdW  Elec       q    Type
REMARK                         _______ _______ _______ _____ _____    ______ ____
ROOT
ATOM      1  N   UNL     1      32.179 -22.519 -17.842  0.00  0.00    -0.230 N 
ATOM      2  N   UNL     1      35.588 -24.784 -15.172  0.00  0.00    -0.316 N 
ATOM      3  N   UNL     1      30.839 -22.447 -17.766  0.00  0.00    -0.169 NA
ATOM      4  N   UNL     1      33.257 -24.901 -14.706  0.00  0.00    -0.229 NA
ATOM      5  C   UNL     1      32.755 -23.283 -16.866  0.00  0.00    +0.088 A 
ATOM      6  C   UNL     1      31.699 -23.746 -16.091  0.00  0.00    +0.052 A 
ATOM      7  C   UNL     1      30.551 -23.195 -16.698  0.00  0.00    +0.082 A 
ATOM      8  C   UNL     1      34.082 -23.604 -16.599  0.00  0.00    +0.053 C 
ATOM      9  C   UNL     1      34.252 -24.423 -15.493  0.00  0.00    +0.130 C 
ATOM     10  C   UNL     1      31.975 -24.567 -14.998  0.00  0.00    +0.103 C 
ATOM     11  C   UNL     1      29.147 -23.361 -16.285  0.00  0.00    +0.054 C 
ATOM     12  H   UNL     1      36.318 -24.444 -15.738  0.00  0.00    +0.148 HD
ENDROOT
BRANCH   1  13
ATOM     13  C   UNL     1      32.847 -21.840 -18.862  0.00  0.00    +0.082 C 
ATOM     14  C   UNL     1      34.910 -21.147 -19.912  0.00  0.00    -0.020 C 
ATOM     15  C   UNL     1      34.242 -21.826 -18.892  0.00  0.00    +0.015 C 
ATOM     16  C   UNL     1      32.121 -21.176 -19.850  0.00  0.00    +0.019 C 
ATOM     17  C   UNL     1      34.184 -20.484 -20.901  0.00  0.00    -0.004 C 
ATOM     18  C   UNL     1      32.789 -20.498 -20.871  0.00  0.00    +0.001 C 
BRANCH  14  19
ATOM     19  C   UNL     1      36.401 -21.130 -19.944  0.00  0.00    +0.036 C 
BRANCH  19  20
ATOM     20  C   UNL     1      37.015 -22.000 -18.841  0.00  0.00    +0.089 C 
BRANCH  20  23
ATOM     21  O   UNL     1      36.783 -21.793 -16.435  0.00  0.00    -0.275 OA
ATOM     22  N   UNL     1      37.574 -19.996 -17.633  0.00  0.00    -0.329 N 
ATOM     23  C   UNL     1      37.100 -21.284 -17.506  0.00  0.00    +0.220 C 
ATOM     24  H   UNL     1      37.674 -19.429 -16.835  0.00  0.00    +0.145 HD
ATOM     25  H   UNL     1      37.811 -19.644 -18.521  0.00  0.00    +0.145 HD
ENDBRANCH  20  23
ENDBRANCH  19  20
ENDBRANCH  14  19
ENDBRANCH   1  13
BRANCH   2  26
ATOM     26  C   UNL     1      35.912 -25.618 -14.064  0.00  0.00    +0.093 C 
ATOM     27  C   UNL     1      37.131 -26.472 -14.410  0.00  0.00    +0.026 C 
BRANCH  26  28
ATOM     28  C   UNL     1      36.111 -24.780 -12.819  0.00  0.00    -0.005 C 
ATOM     29  C   UNL     1      35.420 -25.095 -11.648  0.00  0.00    -0.003 C 
ATOM     30  C   UNL     1      36.985 -23.694 -12.842  0.00  0.00    -0.003 C 
ATOM     31  C   UNL     1      35.603 -24.322 -10.502  0.00  0.00    -0.000 C 
ATOM     32  C   UNL     1      37.169 -22.922 -11.696  0.00  0.00    -0.000 C 
ATOM     33  C   UNL     1      36.478 -23.236 -10.525  0.00  0.00    -0.000 C 
ENDBRANCH  26  28
ENDBRANCH   2  26
TORSDOF 6
ENDMDL
MODEL 7
REMARK VINA RESULT:      -9.9     10.776     15.500
REMARK  Name = 24941249
REMARK  6 active torsions:
REMARK  status: ('A' for Active; 'I' for Inactive)
REMARK    1  A    between atoms: N_1  and  C_13
REMARK    2  A    between atoms: N_2  and  C_26
REMARK    3  A    between atoms: C_14  and  C_19
REMARK    4  A    between atoms: C_19  and  C_20
REMARK    5  A    between atoms: C_20  and  C_23
REMARK    6  A    between atoms: C_26  and  C_28
REMARK                            x       y       z     vdW  Elec       q    Type
REMARK                         _______ _______ _______ _____ _____    ______ ____
ROOT
ATOM      1  N   UNL     1      33.514 -12.236 -24.371  0.00  0.00    -0.230 N 
ATOM      2  N   UNL     1      34.054  -7.466 -23.455  0.00  0.00    -0.316 N 
ATOM      3  N   UNL     1      33.609 -12.982 -25.485  0.00  0.00    -0.169 NA
ATOM      4  N   UNL     1      34.310  -8.430 -25.616  0.00  0.00    -0.229 NA
ATOM      5  C   UNL     1      33.749 -10.903 -24.568  0.00  0.00    +0.088 A 
ATOM      6  C   UNL     1      34.019 -10.774 -25.924  0.00  0.00    +0.052 A 
ATOM      7  C   UNL     1      33.917 -12.088 -26.428  0.00  0.00    +0.082 A 
ATOM      8  C   UNL     1      33.748  -9.821 -23.694  0.00  0.00    +0.053 C 
ATOM      9  C   UNL     1      34.040  -8.608 -24.299  0.00  0.00    +0.130 C 
ATOM     10  C   UNL     1      34.302  -9.509 -26.437  0.00  0.00    +0.103 C 
ATOM     11  C   UNL     1      34.107 -12.537 -27.818  0.00  0.00    +0.054 C 
ATOM     12  H   UNL     1      33.859  -7.584 -22.498  0.00  0.00    +0.148 HD
ENDROOT
BRANCH   1  13
ATOM     13  C   UNL     1      33.200 -12.849 -23.157  0.00  0.00    +0.082 C 
ATOM     14  C   UNL     1      33.652 -14.534 -21.485  0.00  0.00    -0.020 C 
ATOM     15  C   UNL     1      33.966 -13.921 -22.698  0.00  0.00    +0.015 C 
ATOM     16  C   UNL     1      32.122 -12.388 -22.402  0.00  0.00    +0.019 C 
ATOM     17  C   UNL     1      32.573 -14.073 -20.730  0.00  0.00    -0.004 C 
ATOM     18  C   UNL     1      31.808 -13.000 -21.188  0.00  0.00    +0.001 C 
BRANCH  14  19
ATOM     19  C   UNL     1      34.468 -15.681 -20.995  0.00  0.00    +0.036 C 
BRANCH  19  20
ATOM     20  C   UNL     1      35.009 -16.541 -22.143  0.00  0.00    +0.089 C 
BRANCH  20  23
ATOM     21  O   UNL     1      36.056 -18.278 -20.812  0.00  0.00    -0.275 OA
ATOM     22  N   UNL     1      34.602 -18.887 -22.486  0.00  0.00    -0.329 N 
ATOM     23  C   UNL     1      35.295 -17.970 -21.724  0.00  0.00    +0.220 C 
ATOM     24  H   UNL     1      34.704 -19.850 -22.310  0.00  0.00    +0.145 HD
ATOM     25  H   UNL     1      34.006 -18.578 -23.205  0.00  0.00    +0.145 HD
ENDBRANCH  20  23
ENDBRANCH  19  20
ENDBRANCH  14  19
ENDBRANCH   1  13
BRANCH   2  26
ATOM     26  C   UNL     1      34.340  -6.157 -23.940  0.00  0.00    +0.093 C 
ATOM     27  C   UNL     1      35.315  -6.252 -25.113  0.00  0.00    +0.026 C 
BRANCH  26  28
ATOM     28  C   UNL     1      33.056  -5.439 -24.295  0.00  0.00    -0.005 C 
ATOM     29  C   UNL     1      31.840  -5.886 -23.776  0.00  0.00    -0.003 C 
ATOM     30  C   UNL     1      33.088  -4.330 -25.139  0.00  0.00    -0.003 C 
ATOM     31  C   UNL     1      30.657  -5.225 -24.104  0.00  0.00    -0.000 C 
ATOM     32  C   UNL     1      31.905  -3.668 -25.467  0.00  0.00    -0.000 C 
ATOM     33  C   UNL     1      30.689  -4.115 -24.949  0.00  0.00    -0.000 C 
ENDBRANCH  26  28
ENDBRANCH   2  26
TORSDOF 6
ENDMDL
MODEL 8
REMARK VINA RESULT:      -9.6     14.285     19.120
REMARK  Name = 24941249
REMARK  6 active torsions:
REMARK  status: ('A' for Active; 'I' for Inactive)
REMARK    1  A    between atoms: N_1  and  C_13
REMARK    2  A    between atoms: N_2  and  C_26
REMARK    3  A    between atoms: C_14  and  C_19
REMARK    4  A    between atoms: C_19  and  C_20
REMARK    5  A    between atoms: C_20  and  C_23
REMARK    6  A    between atoms: C_26  and  C_28
REMARK                            x       y       z     vdW  Elec       q    Type
REMARK                         _______ _______ _______ _____ _____    ______ ____
ROOT
ATOM      1  N   UNL     1      33.500  -8.449 -24.203  0.00  0.00    -0.230 N 
ATOM      2  N   UNL     1      32.906  -4.184 -26.512  0.00  0.00    -0.316 N 
ATOM      3  N   UNL     1      33.288  -8.856 -22.939  0.00  0.00    -0.169 NA
ATOM      4  N   UNL     1      32.406  -4.516 -24.209  0.00  0.00    -0.229 NA
ATOM      5  C   UNL     1      33.192  -7.136 -24.427  0.00  0.00    +0.088 A 
ATOM      6  C   UNL     1      32.742  -6.651 -23.205  0.00  0.00    +0.052 A 
ATOM      7  C   UNL     1      32.827  -7.758 -22.335  0.00  0.00    +0.082 A 
ATOM      8  C   UNL     1      33.266  -6.347 -25.570  0.00  0.00    +0.053 C 
ATOM      9  C   UNL     1      32.852  -5.037 -25.378  0.00  0.00    +0.130 C 
ATOM     10  C   UNL     1      32.348  -5.316 -23.115  0.00  0.00    +0.103 C 
ATOM     11  C   UNL     1      32.473  -7.809 -20.907  0.00  0.00    +0.054 C 
ATOM     12  H   UNL     1      33.229  -4.552 -27.365  0.00  0.00    +0.148 HD
ENDROOT
BRANCH   1  13
ATOM     13  C   UNL     1      33.993  -9.354 -25.144  0.00  0.00    +0.082 C 
ATOM     14  C   UNL     1      33.934 -11.537 -26.178  0.00  0.00    -0.020 C 
ATOM     15  C   UNL     1      33.441 -10.632 -25.237  0.00  0.00    +0.015 C 
ATOM     16  C   UNL     1      35.036  -8.981 -25.991  0.00  0.00    +0.019 C 
ATOM     17  C   UNL     1      34.977 -11.164 -27.025  0.00  0.00    -0.004 C 
ATOM     18  C   UNL     1      35.528  -9.885 -26.932  0.00  0.00    +0.001 C 
BRANCH  14  19
ATOM     19  C   UNL     1      33.346 -12.904 -26.278  0.00  0.00    +0.036 C 
BRANCH  19  20
ATOM     20  C   UNL     1      33.288 -13.611 -24.919  0.00  0.00    +0.089 C 
BRANCH  20  23
ATOM     21  O   UNL     1      33.487 -15.836 -25.866  0.00  0.00    -0.275 OA
ATOM     22  N   UNL     1      34.613 -15.353 -23.920  0.00  0.00    -0.329 N 
ATOM     23  C   UNL     1      33.786 -15.043 -24.978  0.00  0.00    +0.220 C 
ATOM     24  H   UNL     1      35.000 -16.255 -23.847  0.00  0.00    +0.145 HD
ATOM     25  H   UNL     1      34.814 -14.673 -23.238  0.00  0.00    +0.145 HD
ENDBRANCH  20  23
ENDBRANCH  19  20
ENDBRANCH  14  19
ENDBRANCH   1  13
BRANCH   2  26
ATOM     26  C   UNL     1      32.510  -2.816 -26.462  0.00  0.00    +0.093 C 
ATOM     27  C   UNL     1      33.736  -1.925 -26.658  0.00  0.00    +0.026 C 
BRANCH  26  28
ATOM     28  C   UNL     1      31.418  -2.550 -27.475  0.00  0.00    -0.005 C 
ATOM     29  C   UNL     1      30.192  -2.031 -27.059  0.00  0.00    -0.003 C 
ATOM     30  C   UNL     1      31.637  -2.824 -28.825  0.00  0.00    -0.003 C 
ATOM     31  C   UNL     1      29.185  -1.786 -27.993  0.00  0.00    -0.000 C 
ATOM     32  C   UNL     1      30.630  -2.579 -29.758  0.00  0.00    -0.000 C 
ATOM     33  C   UNL     1      29.404  -2.060 -29.343  0.00  0.00    -0.000 C 
ENDBRANCH  26  28
ENDBRANCH   2  26
TORSDOF 6
ENDMDL
MODEL 9
REMARK VINA RESULT:      -9.6     12.441     16.884
REMARK  Name = 24941249
REMARK  6 active torsions:
REMARK  status: ('A' for Active; 'I' for Inactive)
REMARK    1  A    between atoms: N_1  and  C_13
REMARK    2  A    between atoms: N_2  and  C_26
REMARK    3  A    between atoms: C_14  and  C_19
REMARK    4  A    between atoms: C_19  and  C_20
REMARK    5  A    between atoms: C_20  and  C_23
REMARK    6  A    between atoms: C_26  and  C_28
REMARK                            x       y       z     vdW  Elec       q    Type
REMARK                         _______ _______ _______ _____ _____    ______ ____
ROOT
ATOM      1  N   UNL     1      33.549 -11.918 -24.447  0.00  0.00    -0.230 N 
ATOM      2  N   UNL     1      34.026  -7.097 -23.812  0.00  0.00    -0.316 N 
ATOM      3  N   UNL     1      33.761 -12.741 -25.489  0.00  0.00    -0.169 NA
ATOM      4  N   UNL     1      34.513  -8.210 -25.858  0.00  0.00    -0.229 NA
ATOM      5  C   UNL     1      33.816 -10.603 -24.709  0.00  0.00    +0.088 A 
ATOM      6  C   UNL     1      34.237 -10.570 -26.033  0.00  0.00    +0.052 A 
ATOM      7  C   UNL     1      34.180 -11.916 -26.452  0.00  0.00    +0.082 A 
ATOM      8  C   UNL     1      33.727  -9.462 -23.919  0.00  0.00    +0.053 C 
ATOM      9  C   UNL     1      34.097  -8.295 -24.571  0.00  0.00    +0.130 C 
ATOM     10  C   UNL     1      34.587  -9.344 -26.598  0.00  0.00    +0.103 C 
ATOM     11  C   UNL     1      34.520 -12.462 -27.777  0.00  0.00    +0.054 C 
ATOM     12  H   UNL     1      33.724  -7.147 -22.877  0.00  0.00    +0.148 HD
ENDROOT
BRANCH   1  13
ATOM     13  C   UNL     1      33.095 -12.444 -23.237  0.00  0.00    +0.082 C 
ATOM     14  C   UNL     1      31.684 -12.281 -21.283  0.00  0.00    -0.020 C 
ATOM     15  C   UNL     1      32.137 -11.755 -22.493  0.00  0.00    +0.015 C 
ATOM     16  C   UNL     1      33.599 -13.658 -22.772  0.00  0.00    +0.019 C 
ATOM     17  C   UNL     1      32.188 -13.495 -20.817  0.00  0.00    -0.004 C 
ATOM     18  C   UNL     1      33.145 -14.184 -21.562  0.00  0.00    +0.001 C 
BRANCH  14  19
ATOM     19  C   UNL     1      30.661 -11.544 -20.486  0.00  0.00    +0.036 C 
BRANCH  19  20
ATOM     20  C   UNL     1      30.857 -10.025 -20.553  0.00  0.00    +0.089 C 
BRANCH  20  23
ATOM     21  O   UNL     1      32.014  -9.991 -18.420  0.00  0.00    -0.275 OA
ATOM     22  N   UNL     1      32.609  -8.461 -20.031  0.00  0.00    -0.329 N 
ATOM     23  C   UNL     1      31.869  -9.517 -19.544  0.00  0.00    +0.220 C 
ATOM     24  H   UNL     1      33.301  -8.045 -19.468  0.00  0.00    +0.145 HD
ATOM     25  H   UNL     1      32.446  -8.125 -20.942  0.00  0.00    +0.145 HD
ENDBRANCH  20  23
ENDBRANCH  19  20
ENDBRANCH  14  19
ENDBRANCH   1  13
BRANCH   2  26
ATOM     26  C   UNL     1      34.377  -5.826 -24.351  0.00  0.00    +0.093 C 
ATOM     27  C   UNL     1      35.301  -6.021 -25.553  0.00  0.00    +0.026 C 
BRANCH  26  28
ATOM     28  C   UNL     1      33.129  -5.039 -24.688  0.00  0.00    -0.005 C 
ATOM     29  C   UNL     1      31.939  -5.291 -24.004  0.00  0.00    -0.003 C 
ATOM     30  C   UNL     1      33.168  -4.060 -25.681  0.00  0.00    -0.003 C 
ATOM     31  C   UNL     1      30.789  -4.566 -24.315  0.00  0.00    -0.000 C 
ATOM     32  C   UNL     1      32.017  -3.335 -25.991  0.00  0.00    -0.000 C 
ATOM     33  C   UNL     1      30.828  -3.588 -25.307  0.00  0.00    -0.000 C 
ENDBRANCH  26  28
ENDBRANCH   2  26
TORSDOF 6
ENDMDL
