MODEL 1
REMARK VINA RESULT:     -12.1      0.000      0.000
REMARK  Name = 23635314
REMARK  9 active torsions:
REMARK  status: ('A' for Active; 'I' for Inactive)
REMARK    1  A    between atoms: C_2  and  C_8
REMARK    2  A    between atoms: C_3  and  C_23
REMARK    3  A    between atoms: C_7  and  O_13
REMARK    4  A    between atoms: O_13  and  C_14
REMARK    5  A    between atoms: C_14  and  C_15
REMARK    6  A    between atoms: C_15  and  N_17
REMARK    7  A    between atoms: C_23  and  C_26
REMARK    8  A    between atoms: N_25  and  C_28
REMARK    9  A    between atoms: C_28  and  C_29
REMARK                            x       y       z     vdW  Elec       q    Type
REMARK                         _______ _______ _______ _____ _____    ______ ____
ROOT
ATOM      1  N   UNL     1      35.166 -16.816 -22.502  0.00  0.00    -0.248 NA
ATOM      2  C   UNL     1      34.643 -19.119 -21.995  0.00  0.00    +0.019 C 
ATOM      3  C   UNL     1      34.869 -17.082 -23.793  0.00  0.00    +0.068 C 
ATOM      4  C   UNL     1      34.346 -19.356 -23.332  0.00  0.00    +0.003 C 
ATOM      5  C   UNL     1      35.045 -17.844 -21.633  0.00  0.00    +0.098 C 
ATOM      6  C   UNL     1      34.460 -18.323 -24.255  0.00  0.00    +0.015 C 
ENDROOT
BRANCH   2   8
ATOM      7  C   UNL     1      34.329 -22.199 -19.117  0.00  0.00    +0.138 C 
ATOM      8  C   UNL     1      34.535 -20.173 -21.011  0.00  0.00    +0.002 C 
ATOM      9  C   UNL     1      33.176 -21.611 -19.625  0.00  0.00    +0.037 C 
ATOM     10  C   UNL     1      35.585 -21.782 -19.546  0.00  0.00    +0.037 C 
ATOM     11  C   UNL     1      33.279 -20.596 -20.575  0.00  0.00    +0.003 C 
ATOM     12  C   UNL     1      35.688 -20.766 -20.496  0.00  0.00    +0.003 C 
BRANCH   7  13
ATOM     13  O   UNL     1      34.228 -23.197 -18.184  0.00  0.00    -0.478 OA
BRANCH  13  14
ATOM     14  C   UNL     1      32.984 -23.316 -17.505  0.00  0.00    +0.183 C 
BRANCH  14  15
ATOM     15  C   UNL     1      33.252 -23.497 -16.020  0.00  0.00    -0.029 C 
BRANCH  15  17
ATOM     16  O   UNL     1      29.527 -24.780 -14.573  0.00  0.00    -0.358 OA
ATOM     17  N   UNL     1      31.998 -23.552 -15.272  0.00  0.00    +0.393 N 
ATOM     18  C   UNL     1      30.845 -23.531 -16.182  0.00  0.00    -0.044 C 
ATOM     19  C   UNL     1      31.949 -24.751 -14.424  0.00  0.00    -0.044 C 
ATOM     20  C   UNL     1      29.550 -23.601 -15.379  0.00  0.00    +0.119 C 
ATOM     21  C   UNL     1      30.628 -24.793 -13.662  0.00  0.00    +0.119 C 
ATOM     22  H   UNL     1      31.955 -22.727 -14.673  0.00  0.00    -0.079 HD
ENDBRANCH  15  17
ENDBRANCH  14  15
ENDBRANCH  13  14
ENDBRANCH   7  13
ENDBRANCH   2   8
BRANCH   3  23
ATOM     23  C   UNL     1      35.002 -15.950 -24.757  0.00  0.00    +0.131 C 
BRANCH  23  26
ATOM     24  O   UNL     1      32.795 -15.075 -25.239  0.00  0.00    -0.275 OA
ATOM     25  N   UNL     1      34.217 -13.844 -23.877  0.00  0.00    -0.300 N 
ATOM     26  C   UNL     1      33.874 -14.933 -24.668  0.00  0.00    +0.229 C 
ATOM     27  H   UNL     1      35.110 -13.825 -23.462  0.00  0.00    +0.150 HD
BRANCH  25  28
ATOM     28  C   UNL     1      33.317 -12.740 -23.640  0.00  0.00    +0.116 C 
BRANCH  28  29
ATOM     29  C   UNL     1      33.736 -11.505 -24.383  0.00  0.00    -0.003 C 
ATOM     30  C   UNL     1      33.401 -10.253 -23.881  0.00  0.00    -0.003 C 
ATOM     31  C   UNL     1      34.456 -11.625 -25.566  0.00  0.00    -0.003 C 
ATOM     32  C   UNL     1      33.790  -9.105 -24.571  0.00  0.00    -0.000 C 
ATOM     33  C   UNL     1      34.845 -10.477 -26.257  0.00  0.00    -0.000 C 
ATOM     34  C   UNL     1      34.511  -9.217 -25.759  0.00  0.00    -0.000 C 
ENDBRANCH  28  29
ENDBRANCH  25  28
ENDBRANCH  23  26
ENDBRANCH   3  23
TORSDOF 9
ENDMDL
MODEL 2
REMARK VINA RESULT:     -12.1      1.447      2.517
REMARK  Name = 23635314
REMARK  9 active torsions:
REMARK  status: ('A' for Active; 'I' for Inactive)
REMARK    1  A    between atoms: C_2  and  C_8
REMARK    2  A    between atoms: C_3  and  C_23
REMARK    3  A    between atoms: C_7  and  O_13
REMARK    4  A    between atoms: O_13  and  C_14
REMARK    5  A    between atoms: C_14  and  C_15
REMARK    6  A    between atoms: C_15  and  N_17
REMARK    7  A    between atoms: C_23  and  C_26
REMARK    8  A    between atoms: N_25  and  C_28
REMARK    9  A    between atoms: C_28  and  C_29
REMARK                            x       y       z     vdW  Elec       q    Type
REMARK                         _______ _______ _______ _____ _____    ______ ____
ROOT
ATOM      1  N   UNL     1      34.330 -18.511 -24.202  0.00  0.00    -0.248 NA
ATOM      2  C   UNL     1      34.670 -19.252 -21.928  0.00  0.00    +0.019 C 
ATOM      3  C   UNL     1      34.918 -17.343 -23.858  0.00  0.00    +0.068 C 
ATOM      4  C   UNL     1      35.268 -18.038 -21.611  0.00  0.00    +0.003 C 
ATOM      5  C   UNL     1      34.221 -19.439 -23.224  0.00  0.00    +0.098 C 
ATOM      6  C   UNL     1      35.398 -17.060 -22.590  0.00  0.00    +0.015 C 
ENDROOT
BRANCH   2   8
ATOM      7  C   UNL     1      34.230 -22.286 -19.017  0.00  0.00    +0.138 C 
ATOM      8  C   UNL     1      34.520 -20.290 -20.932  0.00  0.00    +0.002 C 
ATOM      9  C   UNL     1      35.503 -21.893 -19.415  0.00  0.00    +0.037 C 
ATOM     10  C   UNL     1      33.100 -21.691 -19.568  0.00  0.00    +0.037 C 
ATOM     11  C   UNL     1      35.648 -20.891 -20.375  0.00  0.00    +0.003 C 
ATOM     12  C   UNL     1      33.246 -20.690 -20.528  0.00  0.00    +0.003 C 
BRANCH   7  13
ATOM     13  O   UNL     1      34.088 -23.270 -18.075  0.00  0.00    -0.478 OA
BRANCH  13  14
ATOM     14  C   UNL     1      32.834 -23.342 -17.408  0.00  0.00    +0.183 C 
BRANCH  14  15
ATOM     15  C   UNL     1      33.081 -23.413 -15.910  0.00  0.00    -0.029 C 
BRANCH  15  17
ATOM     16  O   UNL     1      29.511 -25.128 -14.519  0.00  0.00    -0.358 OA
ATOM     17  N   UNL     1      31.825 -23.612 -15.189  0.00  0.00    +0.393 N 
ATOM     18  C   UNL     1      30.701 -23.753 -16.125  0.00  0.00    -0.044 C 
ATOM     19  C   UNL     1      31.905 -24.793 -14.317  0.00  0.00    -0.044 C 
ATOM     20  C   UNL     1      29.406 -23.971 -15.349  0.00  0.00    +0.119 C 
ATOM     21  C   UNL     1      30.581 -24.986 -13.584  0.00  0.00    +0.119 C 
ATOM     22  H   UNL     1      31.665 -22.789 -14.609  0.00  0.00    -0.079 HD
ENDBRANCH  15  17
ENDBRANCH  14  15
ENDBRANCH  13  14
ENDBRANCH   7  13
ENDBRANCH   2   8
BRANCH   3  23
ATOM     23  C   UNL     1      35.040 -16.315 -24.933  0.00  0.00    +0.131 C 
BRANCH  23  26
ATOM     24  O   UNL     1      32.808 -15.475 -25.359  0.00  0.00    -0.275 OA
ATOM     25  N   UNL     1      34.355 -14.079 -24.336  0.00  0.00    -0.300 N 
ATOM     26  C   UNL     1      33.934 -15.270 -24.911  0.00  0.00    +0.229 C 
ATOM     27  H   UNL     1      35.281 -14.016 -24.005  0.00  0.00    +0.150 HD
BRANCH  25  28
ATOM     28  C   UNL     1      33.490 -12.931 -24.201  0.00  0.00    +0.116 C 
BRANCH  28  29
ATOM     29  C   UNL     1      32.820 -12.888 -22.858  0.00  0.00    -0.003 C 
ATOM     30  C   UNL     1      31.977 -11.828 -22.545  0.00  0.00    -0.003 C 
ATOM     31  C   UNL     1      33.049 -13.908 -21.942  0.00  0.00    -0.003 C 
ATOM     32  C   UNL     1      31.353 -11.788 -21.297  0.00  0.00    -0.000 C 
ATOM     33  C   UNL     1      32.426 -13.868 -20.695  0.00  0.00    -0.000 C 
ATOM     34  C   UNL     1      31.579 -12.807 -20.372  0.00  0.00    -0.000 C 
ENDBRANCH  28  29
ENDBRANCH  25  28
ENDBRANCH  23  26
ENDBRANCH   3  23
TORSDOF 9
ENDMDL
MODEL 3
REMARK VINA RESULT:     -12.1      2.200      3.436
REMARK  Name = 23635314
REMARK  9 active torsions:
REMARK  status: ('A' for Active; 'I' for Inactive)
REMARK    1  A    between atoms: C_2  and  C_8
REMARK    2  A    between atoms: C_3  and  C_23
REMARK    3  A    between atoms: C_7  and  O_13
REMARK    4  A    between atoms: O_13  and  C_14
REMARK    5  A    between atoms: C_14  and  C_15
REMARK    6  A    between atoms: C_15  and  N_17
REMARK    7  A    between atoms: C_23  and  C_26
REMARK    8  A    between atoms: N_25  and  C_28
REMARK    9  A    between atoms: C_28  and  C_29
REMARK                            x       y       z     vdW  Elec       q    Type
REMARK                         _______ _______ _______ _____ _____    ______ ____
ROOT
ATOM      1  N   UNL     1      35.276 -16.956 -22.214  0.00  0.00    -0.248 NA
ATOM      2  C   UNL     1      34.622 -19.246 -21.811  0.00  0.00    +0.019 C 
ATOM      3  C   UNL     1      34.981 -17.151 -23.518  0.00  0.00    +0.068 C 
ATOM      4  C   UNL     1      34.330 -19.410 -23.160  0.00  0.00    +0.003 C 
ATOM      5  C   UNL     1      35.088 -18.011 -21.391  0.00  0.00    +0.098 C 
ATOM      6  C   UNL     1      34.511 -18.347 -24.037  0.00  0.00    +0.015 C 
ENDROOT
BRANCH   2   8
ATOM      7  C   UNL     1      34.103 -22.422 -19.071  0.00  0.00    +0.138 C 
ATOM      8  C   UNL     1      34.445 -20.333 -20.873  0.00  0.00    +0.002 C 
ATOM      9  C   UNL     1      35.385 -22.059 -19.469  0.00  0.00    +0.037 C 
ATOM     10  C   UNL     1      32.990 -21.752 -19.567  0.00  0.00    +0.037 C 
ATOM     11  C   UNL     1      35.556 -21.010 -20.372  0.00  0.00    +0.003 C 
ATOM     12  C   UNL     1      33.162 -20.704 -20.471  0.00  0.00    +0.003 C 
BRANCH   7  13
ATOM     13  O   UNL     1      33.935 -23.453 -18.183  0.00  0.00    -0.478 OA
BRANCH  13  14
ATOM     14  C   UNL     1      32.888 -23.313 -17.230  0.00  0.00    +0.183 C 
BRANCH  14  15
ATOM     15  C   UNL     1      33.485 -23.390 -15.835  0.00  0.00    -0.029 C 
BRANCH  15  17
ATOM     16  O   UNL     1      37.360 -24.522 -14.686  0.00  0.00    -0.358 OA
ATOM     17  N   UNL     1      34.859 -23.883 -15.887  0.00  0.00    +0.393 N 
ATOM     18  C   UNL     1      35.806 -22.836 -15.479  0.00  0.00    -0.044 C 
ATOM     19  C   UNL     1      35.022 -25.069 -15.034  0.00  0.00    -0.044 C 
ATOM     20  C   UNL     1      37.231 -23.377 -15.531  0.00  0.00    +0.119 C 
ATOM     21  C   UNL     1      36.466 -25.558 -15.096  0.00  0.00    +0.119 C 
ATOM     22  H   UNL     1      35.060 -24.146 -16.852  0.00  0.00    -0.079 HD
ENDBRANCH  15  17
ENDBRANCH  14  15
ENDBRANCH  13  14
ENDBRANCH   7  13
ENDBRANCH   2   8
BRANCH   3  23
ATOM     23  C   UNL     1      35.188 -15.989 -24.432  0.00  0.00    +0.131 C 
BRANCH  23  26
ATOM     24  O   UNL     1      33.104 -15.539 -25.583  0.00  0.00    -0.275 OA
ATOM     25  N   UNL     1      33.800 -14.084 -23.913  0.00  0.00    -0.300 N 
ATOM     26  C   UNL     1      33.916 -15.205 -24.724  0.00  0.00    +0.229 C 
ATOM     27  H   UNL     1      34.508 -13.903 -23.253  0.00  0.00    +0.150 HD
BRANCH  25  28
ATOM     28  C   UNL     1      32.682 -13.174 -23.999  0.00  0.00    +0.116 C 
BRANCH  28  29
ATOM     29  C   UNL     1      32.293 -12.634 -22.654  0.00  0.00    -0.003 C 
ATOM     30  C   UNL     1      31.919 -11.301 -22.530  0.00  0.00    -0.003 C 
ATOM     31  C   UNL     1      32.311 -13.472 -21.545  0.00  0.00    -0.003 C 
ATOM     32  C   UNL     1      31.558 -10.799 -21.279  0.00  0.00    -0.000 C 
ATOM     33  C   UNL     1      31.950 -12.970 -20.295  0.00  0.00    -0.000 C 
ATOM     34  C   UNL     1      31.574 -11.633 -20.162  0.00  0.00    -0.000 C 
ENDBRANCH  28  29
ENDBRANCH  25  28
ENDBRANCH  23  26
ENDBRANCH   3  23
TORSDOF 9
ENDMDL
MODEL 4
REMARK VINA RESULT:     -12.0      1.646      2.789
REMARK  Name = 23635314
REMARK  9 active torsions:
REMARK  status: ('A' for Active; 'I' for Inactive)
REMARK    1  A    between atoms: C_2  and  C_8
REMARK    2  A    between atoms: C_3  and  C_23
REMARK    3  A    between atoms: C_7  and  O_13
REMARK    4  A    between atoms: O_13  and  C_14
REMARK    5  A    between atoms: C_14  and  C_15
REMARK    6  A    between atoms: C_15  and  N_17
REMARK    7  A    between atoms: C_23  and  C_26
REMARK    8  A    between atoms: N_25  and  C_28
REMARK    9  A    between atoms: C_28  and  C_29
REMARK                            x       y       z     vdW  Elec       q    Type
REMARK                         _______ _______ _______ _____ _____    ______ ____
ROOT
ATOM      1  N   UNL     1      35.179 -16.893 -22.468  0.00  0.00    -0.248 NA
ATOM      2  C   UNL     1      34.598 -19.187 -21.985  0.00  0.00    +0.019 C 
ATOM      3  C   UNL     1      34.890 -17.143 -23.764  0.00  0.00    +0.068 C 
ATOM      4  C   UNL     1      34.311 -19.408 -23.326  0.00  0.00    +0.003 C 
ATOM      5  C   UNL     1      35.024 -17.925 -21.608  0.00  0.00    +0.098 C 
ATOM      6  C   UNL     1      34.458 -18.371 -24.240  0.00  0.00    +0.015 C 
ENDROOT
BRANCH   2   8
ATOM      7  C   UNL     1      34.180 -22.281 -19.134  0.00  0.00    +0.138 C 
ATOM      8  C   UNL     1      34.455 -20.246 -21.009  0.00  0.00    +0.002 C 
ATOM      9  C   UNL     1      35.450 -21.892 -19.547  0.00  0.00    +0.037 C 
ATOM     10  C   UNL     1      33.046 -21.662 -19.651  0.00  0.00    +0.037 C 
ATOM     11  C   UNL     1      35.588 -20.871 -20.487  0.00  0.00    +0.003 C 
ATOM     12  C   UNL     1      33.185 -20.642 -20.591  0.00  0.00    +0.003 C 
BRANCH   7  13
ATOM     13  O   UNL     1      34.045 -23.284 -18.211  0.00  0.00    -0.478 OA
BRANCH  13  14
ATOM     14  C   UNL     1      32.953 -23.179 -17.306  0.00  0.00    +0.183 C 
BRANCH  14  15
ATOM     15  C   UNL     1      33.430 -23.569 -15.917  0.00  0.00    -0.029 C 
BRANCH  15  17
ATOM     16  O   UNL     1      37.375 -24.267 -14.665  0.00  0.00    -0.358 OA
ATOM     17  N   UNL     1      34.854 -23.899 -15.933  0.00  0.00    +0.393 N 
ATOM     18  C   UNL     1      35.661 -22.757 -15.482  0.00  0.00    -0.044 C 
ATOM     19  C   UNL     1      35.128 -25.073 -15.092  0.00  0.00    -0.044 C 
ATOM     20  C   UNL     1      37.140 -23.130 -15.498  0.00  0.00    +0.119 C 
ATOM     21  C   UNL     1      36.619 -25.391 -15.117  0.00  0.00    +0.119 C 
ATOM     22  H   UNL     1      35.112 -24.120 -16.895  0.00  0.00    -0.079 HD
ENDBRANCH  15  17
ENDBRANCH  14  15
ENDBRANCH  13  14
ENDBRANCH   7  13
ENDBRANCH   2   8
BRANCH   3  23
ATOM     23  C   UNL     1      35.060 -16.008 -24.718  0.00  0.00    +0.131 C 
BRANCH  23  26
ATOM     24  O   UNL     1      32.887 -15.108 -25.299  0.00  0.00    -0.275 OA
ATOM     25  N   UNL     1      34.233 -13.924 -23.824  0.00  0.00    -0.300 N 
ATOM     26  C   UNL     1      33.932 -14.988 -24.664  0.00  0.00    +0.229 C 
ATOM     27  H   UNL     1      35.101 -13.922 -23.358  0.00  0.00    +0.150 HD
BRANCH  25  28
ATOM     28  C   UNL     1      33.325 -12.823 -23.606  0.00  0.00    +0.116 C 
BRANCH  28  29
ATOM     29  C   UNL     1      33.700 -11.617 -24.419  0.00  0.00    -0.003 C 
ATOM     30  C   UNL     1      34.297 -11.786 -25.663  0.00  0.00    -0.003 C 
ATOM     31  C   UNL     1      33.445 -10.345 -23.920  0.00  0.00    -0.003 C 
ATOM     32  C   UNL     1      34.645 -10.666 -26.418  0.00  0.00    -0.000 C 
ATOM     33  C   UNL     1      33.792  -9.225 -24.676  0.00  0.00    -0.000 C 
ATOM     34  C   UNL     1      34.394  -9.386 -25.925  0.00  0.00    -0.000 C 
ENDBRANCH  28  29
ENDBRANCH  25  28
ENDBRANCH  23  26
ENDBRANCH   3  23
TORSDOF 9
ENDMDL
MODEL 5
REMARK VINA RESULT:     -11.6      2.485     12.150
REMARK  Name = 23635314
REMARK  9 active torsions:
REMARK  status: ('A' for Active; 'I' for Inactive)
REMARK    1  A    between atoms: C_2  and  C_8
REMARK    2  A    between atoms: C_3  and  C_23
REMARK    3  A    between atoms: C_7  and  O_13
REMARK    4  A    between atoms: O_13  and  C_14
REMARK    5  A    between atoms: C_14  and  C_15
REMARK    6  A    between atoms: C_15  and  N_17
REMARK    7  A    between atoms: C_23  and  C_26
REMARK    8  A    between atoms: N_25  and  C_28
REMARK    9  A    between atoms: C_28  and  C_29
REMARK                            x       y       z     vdW  Elec       q    Type
REMARK                         _______ _______ _______ _____ _____    ______ ____
ROOT
ATOM      1  N   UNL     1      33.957 -23.919 -16.617  0.00  0.00    -0.248 NA
ATOM      2  C   UNL     1      34.904 -22.298 -18.137  0.00  0.00    +0.019 C 
ATOM      3  C   UNL     1      35.091 -23.826 -15.887  0.00  0.00    +0.068 C 
ATOM      4  C   UNL     1      36.055 -22.230 -17.362  0.00  0.00    +0.003 C 
ATOM      5  C   UNL     1      33.892 -23.150 -17.726  0.00  0.00    +0.098 C 
ATOM      6  C   UNL     1      36.158 -23.006 -16.214  0.00  0.00    +0.015 C 
ENDROOT
BRANCH   2   8
ATOM      7  C   UNL     1      34.500 -19.976 -21.646  0.00  0.00    +0.138 C 
ATOM      8  C   UNL     1      34.766 -21.504 -19.338  0.00  0.00    +0.002 C 
ATOM      9  C   UNL     1      35.768 -20.288 -21.169  0.00  0.00    +0.037 C 
ATOM     10  C   UNL     1      33.362 -20.419 -20.978  0.00  0.00    +0.037 C 
ATOM     11  C   UNL     1      35.901 -21.055 -20.012  0.00  0.00    +0.003 C 
ATOM     12  C   UNL     1      33.497 -21.185 -19.821  0.00  0.00    +0.003 C 
BRANCH   7  13
ATOM     13  O   UNL     1      34.368 -19.222 -22.783  0.00  0.00    -0.478 OA
BRANCH  13  14
ATOM     14  C   UNL     1      34.879 -17.896 -22.735  0.00  0.00    +0.183 C 
BRANCH  14  15
ATOM     15  C   UNL     1      35.082 -17.399 -24.156  0.00  0.00    -0.029 C 
BRANCH  15  17
ATOM     16  O   UNL     1      33.076 -13.722 -23.887  0.00  0.00    -0.358 OA
ATOM     17  N   UNL     1      34.780 -15.973 -24.253  0.00  0.00    +0.393 N 
ATOM     18  C   UNL     1      33.614 -15.743 -25.117  0.00  0.00    -0.044 C 
ATOM     19  C   UNL     1      34.542 -15.397 -22.922  0.00  0.00    -0.044 C 
ATOM     20  C   UNL     1      33.312 -14.249 -25.193  0.00  0.00    +0.119 C 
ATOM     21  C   UNL     1      34.217 -13.912 -23.049  0.00  0.00    +0.119 C 
ATOM     22  H   UNL     1      35.589 -15.510 -24.668  0.00  0.00    -0.079 HD
ENDBRANCH  15  17
ENDBRANCH  14  15
ENDBRANCH  13  14
ENDBRANCH   7  13
ENDBRANCH   2   8
BRANCH   3  23
ATOM     23  C   UNL     1      35.168 -24.674 -14.661  0.00  0.00    +0.131 C 
BRANCH  23  26
ATOM     24  O   UNL     1      33.958 -23.954 -12.690  0.00  0.00    -0.275 OA
ATOM     25  N   UNL     1      32.847 -25.220 -14.288  0.00  0.00    -0.300 N 
ATOM     26  C   UNL     1      33.948 -24.560 -13.759  0.00  0.00    +0.229 C 
ATOM     27  H   UNL     1      32.943 -25.677 -15.155  0.00  0.00    +0.150 HD
BRANCH  25  28
ATOM     28  C   UNL     1      31.569 -25.262 -13.618  0.00  0.00    +0.116 C 
BRANCH  28  29
ATOM     29  C   UNL     1      30.483 -24.629 -14.440  0.00  0.00    -0.003 C 
ATOM     30  C   UNL     1      29.506 -25.429 -15.020  0.00  0.00    -0.003 C 
ATOM     31  C   UNL     1      30.468 -23.250 -14.613  0.00  0.00    -0.003 C 
ATOM     32  C   UNL     1      28.497 -24.841 -15.784  0.00  0.00    -0.000 C 
ATOM     33  C   UNL     1      29.459 -22.662 -15.377  0.00  0.00    -0.000 C 
ATOM     34  C   UNL     1      28.474 -23.458 -15.963  0.00  0.00    -0.000 C 
ENDBRANCH  28  29
ENDBRANCH  25  28
ENDBRANCH  23  26
ENDBRANCH   3  23
TORSDOF 9
ENDMDL
MODEL 6
REMARK VINA RESULT:     -11.5      2.059      2.621
REMARK  Name = 23635314
REMARK  9 active torsions:
REMARK  status: ('A' for Active; 'I' for Inactive)
REMARK    1  A    between atoms: C_2  and  C_8
REMARK    2  A    between atoms: C_3  and  C_23
REMARK    3  A    between atoms: C_7  and  O_13
REMARK    4  A    between atoms: O_13  and  C_14
REMARK    5  A    between atoms: C_14  and  C_15
REMARK    6  A    between atoms: C_15  and  N_17
REMARK    7  A    between atoms: C_23  and  C_26
REMARK    8  A    between atoms: N_25  and  C_28
REMARK    9  A    between atoms: C_28  and  C_29
REMARK                            x       y       z     vdW  Elec       q    Type
REMARK                         _______ _______ _______ _____ _____    ______ ____
ROOT
ATOM      1  N   UNL     1      34.179 -18.498 -24.099  0.00  0.00    -0.248 NA
ATOM      2  C   UNL     1      34.623 -19.298 -21.864  0.00  0.00    +0.019 C 
ATOM      3  C   UNL     1      34.810 -17.351 -23.762  0.00  0.00    +0.068 C 
ATOM      4  C   UNL     1      35.264 -18.106 -21.553  0.00  0.00    +0.003 C 
ATOM      5  C   UNL     1      34.102 -19.446 -23.139  0.00  0.00    +0.098 C 
ATOM      6  C   UNL     1      35.363 -17.107 -22.515  0.00  0.00    +0.015 C 
ENDROOT
BRANCH   2   8
ATOM      7  C   UNL     1      34.273 -22.390 -19.002  0.00  0.00    +0.138 C 
ATOM      8  C   UNL     1      34.503 -20.356 -20.885  0.00  0.00    +0.002 C 
ATOM      9  C   UNL     1      33.127 -21.786 -19.507  0.00  0.00    +0.037 C 
ATOM     10  C   UNL     1      35.534 -21.985 -19.428  0.00  0.00    +0.037 C 
ATOM     11  C   UNL     1      33.242 -20.767 -20.452  0.00  0.00    +0.003 C 
ATOM     12  C   UNL     1      35.648 -20.965 -20.372  0.00  0.00    +0.003 C 
BRANCH   7  13
ATOM     13  O   UNL     1      34.160 -23.391 -18.073  0.00  0.00    -0.478 OA
BRANCH  13  14
ATOM     14  C   UNL     1      34.003 -22.993 -16.717  0.00  0.00    +0.183 C 
BRANCH  14  15
ATOM     15  C   UNL     1      35.380 -22.815 -16.098  0.00  0.00    -0.029 C 
BRANCH  15  17
ATOM     16  O   UNL     1      35.791 -24.516 -12.283  0.00  0.00    -0.358 OA
ATOM     17  N   UNL     1      35.324 -23.006 -14.651  0.00  0.00    +0.393 N 
ATOM     18  C   UNL     1      34.501 -24.174 -14.309  0.00  0.00    -0.044 C 
ATOM     19  C   UNL     1      36.674 -23.161 -14.092  0.00  0.00    -0.044 C 
ATOM     20  C   UNL     1      34.467 -24.359 -12.795  0.00  0.00    +0.119 C 
ATOM     21  C   UNL     1      36.589 -23.370 -12.583  0.00  0.00    +0.119 C 
ATOM     22  H   UNL     1      34.895 -22.175 -14.243  0.00  0.00    -0.079 HD
ENDBRANCH  15  17
ENDBRANCH  14  15
ENDBRANCH  13  14
ENDBRANCH   7  13
ENDBRANCH   2   8
BRANCH   3  23
ATOM     23  C   UNL     1      34.898 -16.300 -24.819  0.00  0.00    +0.131 C 
BRANCH  23  26
ATOM     24  O   UNL     1      33.448 -14.880 -23.497  0.00  0.00    -0.275 OA
ATOM     25  N   UNL     1      33.812 -14.346 -25.727  0.00  0.00    -0.300 N 
ATOM     26  C   UNL     1      33.977 -15.113 -24.581  0.00  0.00    +0.229 C 
ATOM     27  H   UNL     1      34.281 -14.618 -26.549  0.00  0.00    +0.150 HD
BRANCH  25  28
ATOM     28  C   UNL     1      32.981 -13.166 -25.760  0.00  0.00    +0.116 C 
BRANCH  28  29
ATOM     29  C   UNL     1      33.796 -11.905 -25.757  0.00  0.00    -0.003 C 
ATOM     30  C   UNL     1      33.945 -11.185 -24.577  0.00  0.00    -0.003 C 
ATOM     31  C   UNL     1      34.395 -11.471 -26.934  0.00  0.00    -0.003 C 
ATOM     32  C   UNL     1      34.703 -10.014 -24.574  0.00  0.00    -0.000 C 
ATOM     33  C   UNL     1      35.153 -10.299 -26.931  0.00  0.00    -0.000 C 
ATOM     34  C   UNL     1      35.306  -9.571 -25.751  0.00  0.00    -0.000 C 
ENDBRANCH  28  29
ENDBRANCH  25  28
ENDBRANCH  23  26
ENDBRANCH   3  23
TORSDOF 9
ENDMDL
MODEL 7
REMARK VINA RESULT:     -11.2      2.680     12.644
REMARK  Name = 23635314
REMARK  9 active torsions:
REMARK  status: ('A' for Active; 'I' for Inactive)
REMARK    1  A    between atoms: C_2  and  C_8
REMARK    2  A    between atoms: C_3  and  C_23
REMARK    3  A    between atoms: C_7  and  O_13
REMARK    4  A    between atoms: O_13  and  C_14
REMARK    5  A    between atoms: C_14  and  C_15
REMARK    6  A    between atoms: C_15  and  N_17
REMARK    7  A    between atoms: C_23  and  C_26
REMARK    8  A    between atoms: N_25  and  C_28
REMARK    9  A    between atoms: C_28  and  C_29
REMARK                            x       y       z     vdW  Elec       q    Type
REMARK                         _______ _______ _______ _____ _____    ______ ____
ROOT
ATOM      1  N   UNL     1      32.685 -21.839 -19.744  0.00  0.00    -0.248 NA
ATOM      2  C   UNL     1      34.247 -20.393 -20.886  0.00  0.00    +0.019 C 
ATOM      3  C   UNL     1      33.745 -22.453 -19.172  0.00  0.00    +0.068 C 
ATOM      4  C   UNL     1      35.312 -21.048 -20.280  0.00  0.00    +0.003 C 
ATOM      5  C   UNL     1      32.964 -20.822 -20.589  0.00  0.00    +0.098 C 
ATOM      6  C   UNL     1      35.064 -22.100 -19.405  0.00  0.00    +0.015 C 
ENDROOT
BRANCH   2   8
ATOM      7  C   UNL     1      34.903 -17.186 -23.561  0.00  0.00    +0.138 C 
ATOM      8  C   UNL     1      34.471 -19.296 -21.801  0.00  0.00    +0.002 C 
ATOM      9  C   UNL     1      34.327 -18.363 -24.025  0.00  0.00    +0.037 C 
ATOM     10  C   UNL     1      35.266 -17.054 -22.224  0.00  0.00    +0.037 C 
ATOM     11  C   UNL     1      34.110 -19.421 -23.143  0.00  0.00    +0.003 C 
ATOM     12  C   UNL     1      35.049 -18.113 -21.343  0.00  0.00    +0.003 C 
BRANCH   7  13
ATOM     13  O   UNL     1      35.117 -16.147 -24.428  0.00  0.00    -0.478 OA
BRANCH  13  14
ATOM     14  C   UNL     1      33.973 -15.613 -25.082  0.00  0.00    +0.183 C 
BRANCH  14  15
ATOM     15  C   UNL     1      33.346 -14.557 -24.187  0.00  0.00    -0.029 C 
BRANCH  15  17
ATOM     16  O   UNL     1      34.249 -11.109 -26.403  0.00  0.00    -0.358 OA
ATOM     17  N   UNL     1      33.205 -13.291 -24.903  0.00  0.00    +0.393 N 
ATOM     18  C   UNL     1      34.014 -12.240 -24.270  0.00  0.00    -0.044 C 
ATOM     19  C   UNL     1      33.590 -13.442 -26.313  0.00  0.00    -0.044 C 
ATOM     20  C   UNL     1      33.859 -10.933 -25.040  0.00  0.00    +0.119 C 
ATOM     21  C   UNL     1      33.445 -12.106 -27.036  0.00  0.00    +0.119 C 
ATOM     22  H   UNL     1      32.224 -13.016 -24.860  0.00  0.00    -0.079 HD
ENDBRANCH  15  17
ENDBRANCH  14  15
ENDBRANCH  13  14
ENDBRANCH   7  13
ENDBRANCH   2   8
BRANCH   3  23
ATOM     23  C   UNL     1      33.443 -23.578 -18.238  0.00  0.00    +0.131 C 
BRANCH  23  26
ATOM     24  O   UNL     1      32.619 -22.840 -16.083  0.00  0.00    -0.275 OA
ATOM     25  N   UNL     1      34.878 -23.326 -16.314  0.00  0.00    -0.300 N 
ATOM     26  C   UNL     1      33.571 -23.206 -16.768  0.00  0.00    +0.229 C 
ATOM     27  H   UNL     1      35.571 -23.628 -16.945  0.00  0.00    +0.150 HD
BRANCH  25  28
ATOM     28  C   UNL     1      35.260 -23.026 -14.954  0.00  0.00    +0.116 C 
BRANCH  28  29
ATOM     29  C   UNL     1      36.210 -24.049 -14.401  0.00  0.00    -0.003 C 
ATOM     30  C   UNL     1      36.231 -25.330 -14.938  0.00  0.00    -0.003 C 
ATOM     31  C   UNL     1      37.060 -23.703 -13.356  0.00  0.00    -0.003 C 
ATOM     32  C   UNL     1      37.114 -26.280 -14.424  0.00  0.00    -0.000 C 
ATOM     33  C   UNL     1      37.943 -24.653 -12.842  0.00  0.00    -0.000 C 
ATOM     34  C   UNL     1      37.969 -25.942 -13.376  0.00  0.00    -0.000 C 
ENDBRANCH  28  29
ENDBRANCH  25  28
ENDBRANCH  23  26
ENDBRANCH   3  23
TORSDOF 9
ENDMDL
MODEL 8
REMARK VINA RESULT:     -11.0      3.377      6.285
REMARK  Name = 23635314
REMARK  9 active torsions:
REMARK  status: ('A' for Active; 'I' for Inactive)
REMARK    1  A    between atoms: C_2  and  C_8
REMARK    2  A    between atoms: C_3  and  C_23
REMARK    3  A    between atoms: C_7  and  O_13
REMARK    4  A    between atoms: O_13  and  C_14
REMARK    5  A    between atoms: C_14  and  C_15
REMARK    6  A    between atoms: C_15  and  N_17
REMARK    7  A    between atoms: C_23  and  C_26
REMARK    8  A    between atoms: N_25  and  C_28
REMARK    9  A    between atoms: C_28  and  C_29
REMARK                            x       y       z     vdW  Elec       q    Type
REMARK                         _______ _______ _______ _____ _____    ______ ____
ROOT
ATOM      1  N   UNL     1      32.332 -11.454 -22.790  0.00  0.00    -0.248 NA
ATOM      2  C   UNL     1      33.065 -13.624 -22.022  0.00  0.00    +0.019 C 
ATOM      3  C   UNL     1      31.643 -11.331 -21.633  0.00  0.00    +0.068 C 
ATOM      4  C   UNL     1      32.345 -13.462 -20.845  0.00  0.00    +0.003 C 
ATOM      5  C   UNL     1      33.028 -12.601 -22.955  0.00  0.00    +0.098 C 
ATOM      6  C   UNL     1      31.617 -12.296 -20.640  0.00  0.00    +0.015 C 
ENDROOT
BRANCH   2   8
ATOM      7  C   UNL     1      35.307 -17.136 -22.735  0.00  0.00    +0.138 C 
ATOM      8  C   UNL     1      33.832 -14.825 -22.266  0.00  0.00    +0.002 C 
ATOM      9  C   UNL     1      34.913 -16.341 -23.805  0.00  0.00    +0.037 C 
ATOM     10  C   UNL     1      34.969 -16.787 -21.431  0.00  0.00    +0.037 C 
ATOM     11  C   UNL     1      34.175 -15.182 -23.570  0.00  0.00    +0.003 C 
ATOM     12  C   UNL     1      34.229 -15.628 -21.197  0.00  0.00    +0.003 C 
BRANCH   7  13
ATOM     13  O   UNL     1      36.033 -18.275 -22.965  0.00  0.00    -0.478 OA
BRANCH  13  14
ATOM     14  C   UNL     1      35.439 -19.505 -22.567  0.00  0.00    +0.183 C 
BRANCH  14  15
ATOM     15  C   UNL     1      36.020 -19.915 -21.224  0.00  0.00    -0.029 C 
BRANCH  15  17
ATOM     16  O   UNL     1      32.852 -22.235 -19.740  0.00  0.00    -0.358 OA
ATOM     17  N   UNL     1      34.974 -20.437 -20.347  0.00  0.00    +0.393 N 
ATOM     18  C   UNL     1      33.652 -20.305 -20.974  0.00  0.00    -0.044 C 
ATOM     19  C   UNL     1      35.232 -21.843 -20.006  0.00  0.00    -0.044 C 
ATOM     20  C   UNL     1      32.580 -20.866 -20.046  0.00  0.00    +0.119 C 
ATOM     21  C   UNL     1      34.122 -22.368 -19.100  0.00  0.00    +0.119 C 
ATOM     22  H   UNL     1      34.983 -19.886 -19.488  0.00  0.00    -0.079 HD
ENDBRANCH  15  17
ENDBRANCH  14  15
ENDBRANCH  13  14
ENDBRANCH   7  13
ENDBRANCH   2   8
BRANCH   3  23
ATOM     23  C   UNL     1      30.873 -10.066 -21.446  0.00  0.00    +0.131 C 
BRANCH  23  26
ATOM     24  O   UNL     1      32.365  -8.787 -20.030  0.00  0.00    -0.275 OA
ATOM     25  N   UNL     1      31.723  -7.898 -22.077  0.00  0.00    -0.300 N 
ATOM     26  C   UNL     1      31.738  -8.868 -21.084  0.00  0.00    +0.229 C 
ATOM     27  H   UNL     1      31.188  -8.060 -22.887  0.00  0.00    +0.150 HD
BRANCH  25  28
ATOM     28  C   UNL     1      32.464  -6.663 -21.969  0.00  0.00    +0.116 C 
BRANCH  28  29
ATOM     29  C   UNL     1      33.372  -6.449 -23.146  0.00  0.00    -0.003 C 
ATOM     30  C   UNL     1      33.089  -5.438 -24.057  0.00  0.00    -0.003 C 
ATOM     31  C   UNL     1      34.487  -7.263 -23.311  0.00  0.00    -0.003 C 
ATOM     32  C   UNL     1      33.933  -5.239 -25.150  0.00  0.00    -0.000 C 
ATOM     33  C   UNL     1      35.330  -7.063 -24.404  0.00  0.00    -0.000 C 
ATOM     34  C   UNL     1      35.053  -6.052 -25.324  0.00  0.00    -0.000 C 
ENDBRANCH  28  29
ENDBRANCH  25  28
ENDBRANCH  23  26
ENDBRANCH   3  23
TORSDOF 9
ENDMDL
MODEL 9
REMARK VINA RESULT:     -10.8      3.326      6.587
REMARK  Name = 23635314
REMARK  9 active torsions:
REMARK  status: ('A' for Active; 'I' for Inactive)
REMARK    1  A    between atoms: C_2  and  C_8
REMARK    2  A    between atoms: C_3  and  C_23
REMARK    3  A    between atoms: C_7  and  O_13
REMARK    4  A    between atoms: O_13  and  C_14
REMARK    5  A    between atoms: C_14  and  C_15
REMARK    6  A    between atoms: C_15  and  N_17
REMARK    7  A    between atoms: C_23  and  C_26
REMARK    8  A    between atoms: N_25  and  C_28
REMARK    9  A    between atoms: C_28  and  C_29
REMARK                            x       y       z     vdW  Elec       q    Type
REMARK                         _______ _______ _______ _____ _____    ______ ____
ROOT
ATOM      1  N   UNL     1      32.910 -10.918 -23.581  0.00  0.00    -0.248 NA
ATOM      2  C   UNL     1      33.142 -13.198 -22.815  0.00  0.00    +0.019 C 
ATOM      3  C   UNL     1      31.959 -10.748 -22.636  0.00  0.00    +0.068 C 
ATOM      4  C   UNL     1      32.159 -12.986 -21.856  0.00  0.00    +0.003 C 
ATOM      5  C   UNL     1      33.480 -12.142 -23.646  0.00  0.00    +0.098 C 
ATOM      6  C   UNL     1      31.550 -11.740 -21.759  0.00  0.00    +0.015 C 
ENDROOT
BRANCH   2   8
ATOM      7  C   UNL     1      35.047 -16.953 -23.185  0.00  0.00    +0.138 C 
ATOM      8  C   UNL     1      33.794 -14.483 -22.942  0.00  0.00    +0.002 C 
ATOM      9  C   UNL     1      34.530 -16.329 -24.315  0.00  0.00    +0.037 C 
ATOM     10  C   UNL     1      34.942 -16.354 -21.934  0.00  0.00    +0.037 C 
ATOM     11  C   UNL     1      33.902 -15.090 -24.193  0.00  0.00    +0.003 C 
ATOM     12  C   UNL     1      34.313 -15.115 -21.813  0.00  0.00    +0.003 C 
BRANCH   7  13
ATOM     13  O   UNL     1      35.663 -18.171 -23.305  0.00  0.00    -0.478 OA
BRANCH  13  14
ATOM     14  C   UNL     1      35.013 -19.281 -22.700  0.00  0.00    +0.183 C 
BRANCH  14  15
ATOM     15  C   UNL     1      35.728 -19.619 -21.402  0.00  0.00    -0.029 C 
BRANCH  15  17
ATOM     16  O   UNL     1      32.981 -22.285 -19.680  0.00  0.00    -0.358 OA
ATOM     17  N   UNL     1      34.809 -20.245 -20.454  0.00  0.00    +0.393 N 
ATOM     18  C   UNL     1      33.450 -20.309 -21.008  0.00  0.00    -0.044 C 
ATOM     19  C   UNL     1      35.270 -21.593 -20.092  0.00  0.00    -0.044 C 
ATOM     20  C   UNL     1      32.513 -20.975 -20.005  0.00  0.00    +0.119 C 
ATOM     21  C   UNL     1      34.290 -22.229 -19.111  0.00  0.00    +0.119 C 
ATOM     22  H   UNL     1      34.791 -19.669 -19.612  0.00  0.00    -0.079 HD
ENDBRANCH  15  17
ENDBRANCH  14  15
ENDBRANCH  13  14
ENDBRANCH   7  13
ENDBRANCH   2   8
BRANCH   3  23
ATOM     23  C   UNL     1      31.326  -9.398 -22.559  0.00  0.00    +0.131 C 
BRANCH  23  26
ATOM     24  O   UNL     1      32.282  -7.691 -21.132  0.00  0.00    -0.275 OA
ATOM     25  N   UNL     1      33.189  -8.025 -23.243  0.00  0.00    -0.300 N 
ATOM     26  C   UNL     1      32.300  -8.283 -22.208  0.00  0.00    +0.229 C 
ATOM     27  H   UNL     1      33.120  -8.558 -24.069  0.00  0.00    +0.150 HD
BRANCH  25  28
ATOM     28  C   UNL     1      34.210  -7.008 -23.157  0.00  0.00    +0.116 C 
BRANCH  28  29
ATOM     29  C   UNL     1      34.102  -6.008 -24.271  0.00  0.00    -0.003 C 
ATOM     30  C   UNL     1      35.044  -6.014 -25.293  0.00  0.00    -0.003 C 
ATOM     31  C   UNL     1      33.061  -5.086 -24.270  0.00  0.00    -0.003 C 
ATOM     32  C   UNL     1      34.944  -5.085 -26.329  0.00  0.00    -0.000 C 
ATOM     33  C   UNL     1      32.961  -4.157 -25.306  0.00  0.00    -0.000 C 
ATOM     34  C   UNL     1      33.904  -4.156 -26.335  0.00  0.00    -0.000 C 
ENDBRANCH  28  29
ENDBRANCH  25  28
ENDBRANCH  23  26
ENDBRANCH   3  23
TORSDOF 9
ENDMDL
