MODEL 1
REMARK VINA RESULT:     -11.8      0.000      0.000
REMARK  Name = 445480
REMARK  5 active torsions:
REMARK  status: ('A' for Active; 'I' for Inactive)
REMARK    1  A    between atoms: N_2  and  C_21
REMARK    2  A    between atoms: C_3  and  N_7
REMARK    3  A    between atoms: N_7  and  S_9
REMARK    4  A    between atoms: S_9  and  C_14
REMARK    5  A    between atoms: C_21  and  C_24
REMARK                            x       y       z     vdW  Elec       q    Type
REMARK                         _______ _______ _______ _____ _____    ______ ____
ROOT
ATOM      1  O   UNL     1      36.441 -21.170 -19.884  0.00  0.00    -0.273 OA
ATOM      2  N   UNL     1      35.079 -19.911 -21.330  0.00  0.00    -0.274 N 
ATOM      3  C   UNL     1      34.042 -21.534 -20.018  0.00  0.00    +0.153 C 
ATOM      4  C   UNL     1      33.000 -20.537 -20.513  0.00  0.00    +0.048 C 
ATOM      5  C   UNL     1      33.681 -19.868 -21.692  0.00  0.00    +0.096 C 
ATOM      6  C   UNL     1      35.355 -20.873 -20.359  0.00  0.00    +0.242 C 
ENDROOT
BRANCH   3   7
ATOM      7  N   UNL     1      33.950 -21.715 -18.565  0.00  0.00    -0.171 NA
ATOM      8  H   UNL     1      34.904 -21.738 -18.201  0.00  0.00    +0.149 HD
BRANCH   7   9
ATOM      9  S   UNL     1      33.147 -23.109 -17.974  0.00  0.00    +0.066 S 
ATOM     10  O   UNL     1      33.522 -24.255 -18.781  0.00  0.00    -0.152 OA
ATOM     11  O   UNL     1      31.756 -22.786 -17.726  0.00  0.00    -0.152 OA
BRANCH   9  14
ATOM     12  S   UNL     1      35.415 -22.965 -16.142  0.00  0.00    -0.066 S 
ATOM     13  N   UNL     1      33.925 -24.560 -12.921  0.00  0.00    -0.243 NA
ATOM     14  C   UNL     1      33.802 -23.443 -16.339  0.00  0.00    +0.153 C 
ATOM     15  C   UNL     1      33.248 -24.002 -15.239  0.00  0.00    +0.046 C 
ATOM     16  C   UNL     1      34.179 -24.054 -14.159  0.00  0.00    +0.089 C 
ATOM     17  C   UNL     1      35.418 -23.517 -14.513  0.00  0.00    +0.048 C 
ATOM     18  C   UNL     1      36.461 -23.481 -13.577  0.00  0.00    +0.010 C 
ATOM     19  C   UNL     1      36.208 -23.996 -12.313  0.00  0.00    +0.021 C 
ATOM     20  C   UNL     1      34.951 -24.509 -12.048  0.00  0.00    +0.099 C 
ENDBRANCH   9  14
ENDBRANCH   7   9
ENDBRANCH   3   7
BRANCH   2  21
ATOM     21  C   UNL     1      36.065 -19.109 -22.021  0.00  0.00    +0.120 C 
BRANCH  21  24
ATOM     22  N   UNL     1      33.532 -13.597 -23.277  0.00  0.00    -0.230 NA
ATOM     23  N   UNL     1      34.442 -14.270 -21.212  0.00  0.00    -0.343 N 
ATOM     24  C   UNL     1      35.395 -18.055 -22.858  0.00  0.00    -0.002 C 
ATOM     25  C   UNL     1      35.093 -16.822 -22.294  0.00  0.00    +0.000 C 
ATOM     26  C   UNL     1      35.085 -18.328 -24.182  0.00  0.00    -0.003 C 
ATOM     27  C   UNL     1      34.466 -15.833 -23.069  0.00  0.00    +0.031 C 
ATOM     28  C   UNL     1      34.145 -16.097 -24.418  0.00  0.00    +0.004 C 
ATOM     29  C   UNL     1      34.462 -17.353 -24.962  0.00  0.00    -0.000 C 
ATOM     30  C   UNL     1      34.136 -14.575 -22.564  0.00  0.00    +0.125 C 
ATOM     31  C   UNL     1      33.520 -15.098 -25.173  0.00  0.00    +0.021 C 
ATOM     32  C   UNL     1      33.241 -13.885 -24.563  0.00  0.00    +0.100 C 
ATOM     33  H   UNL     1      34.214 -13.387 -20.843  0.00  0.00    +0.144 HD
ATOM     34  H   UNL     1      34.882 -14.944 -20.644  0.00  0.00    +0.144 HD
ENDBRANCH  21  24
ENDBRANCH   2  21
TORSDOF 5
ENDMDL
MODEL 2
REMARK VINA RESULT:     -11.6      2.949     10.471
REMARK  Name = 445480
REMARK  5 active torsions:
REMARK  status: ('A' for Active; 'I' for Inactive)
REMARK    1  A    between atoms: N_2  and  C_21
REMARK    2  A    between atoms: C_3  and  N_7
REMARK    3  A    between atoms: N_7  and  S_9
REMARK    4  A    between atoms: S_9  and  C_14
REMARK    5  A    between atoms: C_21  and  C_24
REMARK                            x       y       z     vdW  Elec       q    Type
REMARK                         _______ _______ _______ _____ _____    ______ ____
ROOT
ATOM      1  O   UNL     1      35.978 -21.389 -20.396  0.00  0.00    -0.273 OA
ATOM      2  N   UNL     1      33.831 -22.052 -19.702  0.00  0.00    -0.274 N 
ATOM      3  C   UNL     1      34.032 -19.973 -20.737  0.00  0.00    +0.153 C 
ATOM      4  C   UNL     1      32.578 -20.428 -20.786  0.00  0.00    +0.048 C 
ATOM      5  C   UNL     1      32.501 -21.488 -19.703  0.00  0.00    +0.096 C 
ATOM      6  C   UNL     1      34.774 -21.207 -20.286  0.00  0.00    +0.242 C 
ENDROOT
BRANCH   3   7
ATOM      7  N   UNL     1      34.507 -19.577 -22.067  0.00  0.00    -0.171 NA
ATOM      8  H   UNL     1      34.882 -20.413 -22.517  0.00  0.00    +0.149 HD
BRANCH   7   9
ATOM      9  S   UNL     1      35.711 -18.362 -22.166  0.00  0.00    +0.066 S 
ATOM     10  O   UNL     1      36.829 -18.858 -22.946  0.00  0.00    -0.152 OA
ATOM     11  O   UNL     1      35.909 -17.782 -20.852  0.00  0.00    -0.152 OA
BRANCH   9  14
ATOM     12  S   UNL     1      34.719 -15.616 -22.214  0.00  0.00    -0.066 S 
ATOM     13  N   UNL     1      33.759 -15.194 -25.960  0.00  0.00    -0.243 NA
ATOM     14  C   UNL     1      35.022 -17.012 -23.124  0.00  0.00    +0.153 C 
ATOM     15  C   UNL     1      34.700 -16.904 -24.433  0.00  0.00    +0.046 C 
ATOM     16  C   UNL     1      34.174 -15.612 -24.733  0.00  0.00    +0.089 C 
ATOM     17  C   UNL     1      34.125 -14.795 -23.603  0.00  0.00    +0.048 C 
ATOM     18  C   UNL     1      33.636 -13.485 -23.704  0.00  0.00    +0.010 C 
ATOM     19  C   UNL     1      33.211 -13.053 -24.953  0.00  0.00    +0.021 C 
ATOM     20  C   UNL     1      33.294 -13.929 -26.020  0.00  0.00    +0.099 C 
ENDBRANCH   9  14
ENDBRANCH   7   9
ENDBRANCH   3   7
BRANCH   2  21
ATOM     21  C   UNL     1      34.122 -23.304 -19.039  0.00  0.00    +0.120 C 
BRANCH  21  24
ATOM     22  N   UNL     1      29.659 -23.189 -14.744  0.00  0.00    -0.230 NA
ATOM     23  N   UNL     1      29.347 -23.098 -17.076  0.00  0.00    -0.343 N 
ATOM     24  C   UNL     1      33.536 -23.317 -17.654  0.00  0.00    -0.002 C 
ATOM     25  C   UNL     1      32.160 -23.244 -17.492  0.00  0.00    +0.000 C 
ATOM     26  C   UNL     1      34.380 -23.398 -16.556  0.00  0.00    -0.003 C 
ATOM     27  C   UNL     1      31.605 -23.253 -16.201  0.00  0.00    +0.031 C 
ATOM     28  C   UNL     1      32.452 -23.336 -15.075  0.00  0.00    +0.004 C 
ATOM     29  C   UNL     1      33.841 -23.408 -15.269  0.00  0.00    -0.000 C 
ATOM     30  C   UNL     1      30.231 -23.183 -15.969  0.00  0.00    +0.125 C 
ATOM     31  C   UNL     1      31.880 -23.343 -13.798  0.00  0.00    +0.021 C 
ATOM     32  C   UNL     1      30.500 -23.269 -13.690  0.00  0.00    +0.100 C 
ATOM     33  H   UNL     1      28.375 -23.047 -16.927  0.00  0.00    +0.144 HD
ATOM     34  H   UNL     1      29.705 -23.090 -17.992  0.00  0.00    +0.144 HD
ENDBRANCH  21  24
ENDBRANCH   2  21
TORSDOF 5
ENDMDL
MODEL 3
REMARK VINA RESULT:     -11.4      2.751     10.512
REMARK  Name = 445480
REMARK  5 active torsions:
REMARK  status: ('A' for Active; 'I' for Inactive)
REMARK    1  A    between atoms: N_2  and  C_21
REMARK    2  A    between atoms: C_3  and  N_7
REMARK    3  A    between atoms: N_7  and  S_9
REMARK    4  A    between atoms: S_9  and  C_14
REMARK    5  A    between atoms: C_21  and  C_24
REMARK                            x       y       z     vdW  Elec       q    Type
REMARK                         _______ _______ _______ _____ _____    ______ ____
ROOT
ATOM      1  O   UNL     1      32.292 -20.632 -20.486  0.00  0.00    -0.273 OA
ATOM      2  N   UNL     1      33.719 -21.983 -19.194  0.00  0.00    -0.274 N 
ATOM      3  C   UNL     1      34.677 -20.762 -20.932  0.00  0.00    +0.153 C 
ATOM      4  C   UNL     1      35.761 -21.184 -19.947  0.00  0.00    +0.048 C 
ATOM      5  C   UNL     1      35.122 -22.327 -19.183  0.00  0.00    +0.096 C 
ATOM      6  C   UNL     1      33.395 -21.076 -20.203  0.00  0.00    +0.242 C 
ENDROOT
BRANCH   3   7
ATOM      7  N   UNL     1      34.743 -19.322 -21.204  0.00  0.00    -0.171 NA
ATOM      8  H   UNL     1      33.783 -18.985 -21.289  0.00  0.00    +0.149 HD
BRANCH   7   9
ATOM      9  S   UNL     1      35.591 -18.802 -22.600  0.00  0.00    +0.066 S 
ATOM     10  O   UNL     1      35.229 -19.648 -23.722  0.00  0.00    -0.152 OA
ATOM     11  O   UNL     1      36.979 -18.565 -22.252  0.00  0.00    -0.152 OA
BRANCH   9  14
ATOM     12  S   UNL     1      34.458 -17.026 -24.621  0.00  0.00    -0.066 S 
ATOM     13  N   UNL     1      34.047 -13.716 -22.617  0.00  0.00    -0.243 NA
ATOM     14  C   UNL     1      34.975 -17.170 -23.015  0.00  0.00    +0.153 C 
ATOM     15  C   UNL     1      34.848 -16.039 -22.285  0.00  0.00    +0.046 C 
ATOM     16  C   UNL     1      34.297 -14.978 -23.065  0.00  0.00    +0.089 C 
ATOM     17  C   UNL     1      34.033 -15.378 -24.375  0.00  0.00    +0.048 C 
ATOM     18  C   UNL     1      33.486 -14.467 -25.291  0.00  0.00    +0.010 C 
ATOM     19  C   UNL     1      33.230 -13.179 -24.840  0.00  0.00    +0.021 C 
ATOM     20  C   UNL     1      33.523 -12.868 -23.525  0.00  0.00    +0.099 C 
ENDBRANCH   9  14
ENDBRANCH   7   9
ENDBRANCH   3   7
BRANCH   2  21
ATOM     21  C   UNL     1      32.772 -22.635 -18.316  0.00  0.00    +0.120 C 
BRANCH  21  24
ATOM     22  N   UNL     1      37.448 -23.522 -14.350  0.00  0.00    -0.230 NA
ATOM     23  N   UNL     1      37.633 -22.746 -16.566  0.00  0.00    -0.343 N 
ATOM     24  C   UNL     1      33.430 -23.011 -17.017  0.00  0.00    -0.002 C 
ATOM     25  C   UNL     1      34.810 -22.915 -16.895  0.00  0.00    +0.000 C 
ATOM     26  C   UNL     1      32.650 -23.451 -15.958  0.00  0.00    -0.003 C 
ATOM     27  C   UNL     1      35.432 -23.266 -15.686  0.00  0.00    +0.031 C 
ATOM     28  C   UNL     1      34.650 -23.716 -14.600  0.00  0.00    +0.004 C 
ATOM     29  C   UNL     1      33.257 -23.803 -14.752  0.00  0.00    -0.000 C 
ATOM     30  C   UNL     1      36.813 -23.193 -15.498  0.00  0.00    +0.125 C 
ATOM     31  C   UNL     1      35.289 -24.061 -13.403  0.00  0.00    +0.021 C 
ATOM     32  C   UNL     1      36.669 -23.947 -13.334  0.00  0.00    +0.100 C 
ATOM     33  H   UNL     1      38.608 -22.690 -16.447  0.00  0.00    +0.144 HD
ATOM     34  H   UNL     1      37.226 -22.493 -17.426  0.00  0.00    +0.144 HD
ENDBRANCH  21  24
ENDBRANCH   2  21
TORSDOF 5
ENDMDL
MODEL 4
REMARK VINA RESULT:     -11.2      1.073      1.793
REMARK  Name = 445480
REMARK  5 active torsions:
REMARK  status: ('A' for Active; 'I' for Inactive)
REMARK    1  A    between atoms: N_2  and  C_21
REMARK    2  A    between atoms: C_3  and  N_7
REMARK    3  A    between atoms: N_7  and  S_9
REMARK    4  A    between atoms: S_9  and  C_14
REMARK    5  A    between atoms: C_21  and  C_24
REMARK                            x       y       z     vdW  Elec       q    Type
REMARK                         _______ _______ _______ _____ _____    ______ ____
ROOT
ATOM      1  O   UNL     1      36.673 -20.289 -20.269  0.00  0.00    -0.273 OA
ATOM      2  N   UNL     1      35.073 -19.326 -21.698  0.00  0.00    -0.274 N 
ATOM      3  C   UNL     1      34.439 -21.218 -20.495  0.00  0.00    +0.153 C 
ATOM      4  C   UNL     1      33.196 -20.481 -20.977  0.00  0.00    +0.048 C 
ATOM      5  C   UNL     1      33.715 -19.605 -22.102  0.00  0.00    +0.096 C 
ATOM      6  C   UNL     1      35.557 -20.241 -20.764  0.00  0.00    +0.242 C 
ENDROOT
BRANCH   3   7
ATOM      7  N   UNL     1      34.366 -21.492 -19.056  0.00  0.00    -0.171 NA
ATOM      8  H   UNL     1      35.318 -21.664 -18.731  0.00  0.00    +0.149 HD
BRANCH   7   9
ATOM      9  S   UNL     1      33.403 -22.810 -18.532  0.00  0.00    +0.066 S 
ATOM     10  O   UNL     1      33.743 -23.988 -19.308  0.00  0.00    -0.152 OA
ATOM     11  O   UNL     1      32.029 -22.369 -18.396  0.00  0.00    -0.152 OA
BRANCH   9  14
ATOM     12  S   UNL     1      35.510 -22.805 -16.512  0.00  0.00    -0.066 S 
ATOM     13  N   UNL     1      33.662 -24.327 -13.445  0.00  0.00    -0.243 NA
ATOM     14  C   UNL     1      33.896 -23.188 -16.850  0.00  0.00    +0.153 C 
ATOM     15  C   UNL     1      33.219 -23.720 -15.808  0.00  0.00    +0.046 C 
ATOM     16  C   UNL     1      34.050 -23.831 -14.653  0.00  0.00    +0.089 C 
ATOM     17  C   UNL     1      35.342 -23.363 -14.894  0.00  0.00    +0.048 C 
ATOM     18  C   UNL     1      36.302 -23.392 -13.872  0.00  0.00    +0.010 C 
ATOM     19  C   UNL     1      35.912 -23.897 -12.639  0.00  0.00    +0.021 C 
ATOM     20  C   UNL     1      34.611 -24.339 -12.487  0.00  0.00    +0.099 C 
ENDBRANCH   9  14
ENDBRANCH   7   9
ENDBRANCH   3   7
BRANCH   2  21
ATOM     21  C   UNL     1      35.847 -18.273 -22.320  0.00  0.00    +0.120 C 
BRANCH  21  24
ATOM     22  N   UNL     1      32.975 -13.205 -24.429  0.00  0.00    -0.230 NA
ATOM     23  N   UNL     1      33.898 -14.928 -25.742  0.00  0.00    -0.343 N 
ATOM     24  C   UNL     1      35.118 -16.961 -22.233  0.00  0.00    -0.002 C 
ATOM     25  C   UNL     1      34.729 -16.315 -23.398  0.00  0.00    +0.000 C 
ATOM     26  C   UNL     1      34.846 -16.412 -20.989  0.00  0.00    -0.003 C 
ATOM     27  C   UNL     1      34.049 -15.088 -23.325  0.00  0.00    +0.031 C 
ATOM     28  C   UNL     1      33.765 -14.517 -22.066  0.00  0.00    +0.004 C 
ATOM     29  C   UNL     1      34.171 -15.193 -20.903  0.00  0.00    -0.000 C 
ATOM     30  C   UNL     1      33.631 -14.387 -24.458  0.00  0.00    +0.125 C 
ATOM     31  C   UNL     1      33.087 -13.294 -22.014  0.00  0.00    +0.021 C 
ATOM     32  C   UNL     1      32.721 -12.690 -23.207  0.00  0.00    +0.100 C 
ATOM     33  H   UNL     1      33.609 -14.445 -26.550  0.00  0.00    +0.144 HD
ATOM     34  H   UNL     1      34.372 -15.787 -25.826  0.00  0.00    +0.144 HD
ENDBRANCH  21  24
ENDBRANCH   2  21
TORSDOF 5
ENDMDL
MODEL 5
REMARK VINA RESULT:     -11.2      5.661     11.748
REMARK  Name = 445480
REMARK  5 active torsions:
REMARK  status: ('A' for Active; 'I' for Inactive)
REMARK    1  A    between atoms: N_2  and  C_21
REMARK    2  A    between atoms: C_3  and  N_7
REMARK    3  A    between atoms: N_7  and  S_9
REMARK    4  A    between atoms: S_9  and  C_14
REMARK    5  A    between atoms: C_21  and  C_24
REMARK                            x       y       z     vdW  Elec       q    Type
REMARK                         _______ _______ _______ _____ _____    ______ ____
ROOT
ATOM      1  O   UNL     1      33.462 -14.489 -24.570  0.00  0.00    -0.273 OA
ATOM      2  N   UNL     1      34.403 -15.707 -22.792  0.00  0.00    -0.274 N 
ATOM      3  C   UNL     1      33.375 -13.680 -22.280  0.00  0.00    +0.153 C 
ATOM      4  C   UNL     1      33.498 -14.522 -21.016  0.00  0.00    +0.048 C 
ATOM      5  C   UNL     1      34.570 -15.537 -21.368  0.00  0.00    +0.096 C 
ATOM      6  C   UNL     1      33.718 -14.647 -23.386  0.00  0.00    +0.242 C 
ENDROOT
BRANCH   3   7
ATOM      7  N   UNL     1      32.001 -13.198 -22.463  0.00  0.00    -0.171 NA
ATOM      8  H   UNL     1      31.864 -13.045 -23.463  0.00  0.00    +0.149 HD
BRANCH   7   9
ATOM      9  S   UNL     1      31.536 -11.758 -21.658  0.00  0.00    +0.066 S 
ATOM     10  O   UNL     1      32.104 -11.752 -20.323  0.00  0.00    -0.152 OA
ATOM     11  O   UNL     1      30.122 -11.528 -21.876  0.00  0.00    -0.152 OA
BRANCH   9  14
ATOM     12  S   UNL     1      32.099  -8.895 -21.764  0.00  0.00    -0.066 S 
ATOM     13  N   UNL     1      34.228  -8.633 -25.010  0.00  0.00    -0.243 NA
ATOM     14  C   UNL     1      32.324 -10.396 -22.518  0.00  0.00    +0.153 C 
ATOM     15  C   UNL     1      33.059 -10.345 -23.651  0.00  0.00    +0.046 C 
ATOM     16  C   UNL     1      33.475  -9.011 -23.940  0.00  0.00    +0.089 C 
ATOM     17  C   UNL     1      33.018  -8.104 -22.983  0.00  0.00    +0.048 C 
ATOM     18  C   UNL     1      33.330  -6.742 -23.101  0.00  0.00    +0.010 C 
ATOM     19  C   UNL     1      34.096  -6.350 -24.190  0.00  0.00    +0.021 C 
ATOM     20  C   UNL     1      34.507  -7.316 -25.091  0.00  0.00    +0.099 C 
ENDBRANCH   9  14
ENDBRANCH   7   9
ENDBRANCH   3   7
BRANCH   2  21
ATOM     21  C   UNL     1      35.012 -16.813 -23.499  0.00  0.00    +0.120 C 
BRANCH  21  24
ATOM     22  N   UNL     1      33.789 -21.604 -19.766  0.00  0.00    -0.230 NA
ATOM     23  N   UNL     1      32.209 -20.348 -20.978  0.00  0.00    -0.343 N 
ATOM     24  C   UNL     1      35.318 -17.940 -22.551  0.00  0.00    -0.002 C 
ATOM     25  C   UNL     1      34.281 -18.714 -22.049  0.00  0.00    +0.000 C 
ATOM     26  C   UNL     1      36.633 -18.189 -22.188  0.00  0.00    -0.003 C 
ATOM     27  C   UNL     1      34.558 -19.767 -21.162  0.00  0.00    +0.031 C 
ATOM     28  C   UNL     1      35.892 -20.032 -20.784  0.00  0.00    +0.004 C 
ATOM     29  C   UNL     1      36.922 -19.232 -21.307  0.00  0.00    -0.000 C 
ATOM     30  C   UNL     1      33.563 -20.583 -20.622  0.00  0.00    +0.125 C 
ATOM     31  C   UNL     1      36.148 -21.086 -19.899  0.00  0.00    +0.021 C 
ATOM     32  C   UNL     1      35.077 -21.828 -19.428  0.00  0.00    +0.100 C 
ATOM     33  H   UNL     1      31.496 -20.915 -20.604  0.00  0.00    +0.144 HD
ATOM     34  H   UNL     1      31.983 -19.617 -21.598  0.00  0.00    +0.144 HD
ENDBRANCH  21  24
ENDBRANCH   2  21
TORSDOF 5
ENDMDL
MODEL 6
REMARK VINA RESULT:     -11.1      2.870     10.708
REMARK  Name = 445480
REMARK  5 active torsions:
REMARK  status: ('A' for Active; 'I' for Inactive)
REMARK    1  A    between atoms: N_2  and  C_21
REMARK    2  A    between atoms: C_3  and  N_7
REMARK    3  A    between atoms: N_7  and  S_9
REMARK    4  A    between atoms: S_9  and  C_14
REMARK    5  A    between atoms: C_21  and  C_24
REMARK                            x       y       z     vdW  Elec       q    Type
REMARK                         _______ _______ _______ _____ _____    ______ ____
ROOT
ATOM      1  O   UNL     1      36.021 -21.032 -20.152  0.00  0.00    -0.273 OA
ATOM      2  N   UNL     1      33.902 -21.824 -19.509  0.00  0.00    -0.274 N 
ATOM      3  C   UNL     1      33.978 -19.891 -20.807  0.00  0.00    +0.153 C 
ATOM      4  C   UNL     1      32.584 -20.502 -20.884  0.00  0.00    +0.048 C 
ATOM      5  C   UNL     1      32.527 -21.413 -19.672  0.00  0.00    +0.096 C 
ATOM      6  C   UNL     1      34.801 -20.968 -20.144  0.00  0.00    +0.242 C 
ENDROOT
BRANCH   3   7
ATOM      7  N   UNL     1      34.512 -19.625 -22.148  0.00  0.00    -0.171 NA
ATOM      8  H   UNL     1      34.888 -20.504 -22.505  0.00  0.00    +0.149 HD
BRANCH   7   9
ATOM      9  S   UNL     1      35.744 -18.443 -22.306  0.00  0.00    +0.066 S 
ATOM     10  O   UNL     1      36.806 -18.969 -23.144  0.00  0.00    -0.152 OA
ATOM     11  O   UNL     1      36.026 -17.874 -21.002  0.00  0.00    -0.152 OA
BRANCH   9  14
ATOM     12  S   UNL     1      34.806 -15.679 -22.290  0.00  0.00    -0.066 S 
ATOM     13  N   UNL     1      33.710 -15.200 -25.992  0.00  0.00    -0.243 NA
ATOM     14  C   UNL     1      35.045 -17.071 -23.224  0.00  0.00    +0.153 C 
ATOM     15  C   UNL     1      34.676 -16.944 -24.518  0.00  0.00    +0.046 C 
ATOM     16  C   UNL     1      34.163 -15.639 -24.785  0.00  0.00    +0.089 C 
ATOM     17  C   UNL     1      34.175 -14.832 -23.646  0.00  0.00    +0.048 C 
ATOM     18  C   UNL     1      33.708 -13.512 -23.717  0.00  0.00    +0.010 C 
ATOM     19  C   UNL     1      33.244 -13.059 -24.944  0.00  0.00    +0.021 C 
ATOM     20  C   UNL     1      33.268 -13.927 -26.021  0.00  0.00    +0.099 C 
ENDBRANCH   9  14
ENDBRANCH   7   9
ENDBRANCH   3   7
BRANCH   2  21
ATOM     21  C   UNL     1      34.263 -22.940 -18.661  0.00  0.00    +0.120 C 
BRANCH  21  24
ATOM     22  N   UNL     1      31.992 -24.818 -13.212  0.00  0.00    -0.230 NA
ATOM     23  N   UNL     1      34.217 -25.053 -13.946  0.00  0.00    -0.343 N 
ATOM     24  C   UNL     1      33.222 -23.153 -17.598  0.00  0.00    -0.002 C 
ATOM     25  C   UNL     1      33.574 -23.778 -16.410  0.00  0.00    +0.000 C 
ATOM     26  C   UNL     1      31.922 -22.724 -17.819  0.00  0.00    -0.003 C 
ATOM     27  C   UNL     1      32.606 -23.982 -15.412  0.00  0.00    +0.031 C 
ATOM     28  C   UNL     1      31.280 -23.551 -15.624  0.00  0.00    +0.004 C 
ATOM     29  C   UNL     1      30.951 -22.921 -16.836  0.00  0.00    -0.000 C 
ATOM     30  C   UNL     1      32.894 -24.604 -14.196  0.00  0.00    +0.125 C 
ATOM     31  C   UNL     1      30.330 -23.763 -14.618  0.00  0.00    +0.021 C 
ATOM     32  C   UNL     1      30.733 -24.392 -13.450  0.00  0.00    +0.100 C 
ATOM     33  H   UNL     1      34.434 -25.493 -13.092  0.00  0.00    +0.144 HD
ATOM     34  H   UNL     1      34.917 -24.923 -14.626  0.00  0.00    +0.144 HD
ENDBRANCH  21  24
ENDBRANCH   2  21
TORSDOF 5
ENDMDL
MODEL 7
REMARK VINA RESULT:     -11.1      4.965     11.594
REMARK  Name = 445480
REMARK  5 active torsions:
REMARK  status: ('A' for Active; 'I' for Inactive)
REMARK    1  A    between atoms: N_2  and  C_21
REMARK    2  A    between atoms: C_3  and  N_7
REMARK    3  A    between atoms: N_7  and  S_9
REMARK    4  A    between atoms: S_9  and  C_14
REMARK    5  A    between atoms: C_21  and  C_24
REMARK                            x       y       z     vdW  Elec       q    Type
REMARK                         _______ _______ _______ _____ _____    ______ ____
ROOT
ATOM      1  O   UNL     1      34.996 -16.131 -21.404  0.00  0.00    -0.273 OA
ATOM      2  N   UNL     1      35.586 -17.837 -22.912  0.00  0.00    -0.274 N 
ATOM      3  C   UNL     1      34.216 -16.128 -23.706  0.00  0.00    +0.153 C 
ATOM      4  C   UNL     1      34.861 -16.852 -24.882  0.00  0.00    +0.048 C 
ATOM      5  C   UNL     1      35.300 -18.176 -24.286  0.00  0.00    +0.096 C 
ATOM      6  C   UNL     1      34.972 -16.651 -22.510  0.00  0.00    +0.242 C 
ENDROOT
BRANCH   3   7
ATOM      7  N   UNL     1      34.411 -14.677 -23.809  0.00  0.00    -0.171 NA
ATOM      8  H   UNL     1      34.686 -14.341 -22.885  0.00  0.00    +0.149 HD
BRANCH   7   9
ATOM      9  S   UNL     1      33.085 -13.719 -24.324  0.00  0.00    +0.066 S 
ATOM     10  O   UNL     1      32.112 -13.632 -23.251  0.00  0.00    -0.152 OA
ATOM     11  O   UNL     1      32.697 -14.126 -25.661  0.00  0.00    -0.152 OA
BRANCH   9  14
ATOM     12  S   UNL     1      34.212 -11.723 -26.131  0.00  0.00    -0.066 S 
ATOM     13  N   UNL     1      34.619  -8.662 -23.764  0.00  0.00    -0.243 NA
ATOM     14  C   UNL     1      33.697 -12.050 -24.551  0.00  0.00    +0.153 C 
ATOM     15  C   UNL     1      33.823 -11.009 -23.697  0.00  0.00    +0.046 C 
ATOM     16  C   UNL     1      34.371  -9.865 -24.352  0.00  0.00    +0.089 C 
ATOM     17  C   UNL     1      34.635 -10.113 -25.699  0.00  0.00    +0.048 C 
ATOM     18  C   UNL     1      35.177  -9.102 -26.507  0.00  0.00    +0.010 C 
ATOM     19  C   UNL     1      35.433  -7.874 -25.913  0.00  0.00    +0.021 C 
ATOM     20  C   UNL     1      35.140  -7.715 -24.570  0.00  0.00    +0.099 C 
ENDBRANCH   9  14
ENDBRANCH   7   9
ENDBRANCH   3   7
BRANCH   2  21
ATOM     21  C   UNL     1      36.330 -18.730 -22.050  0.00  0.00    +0.120 C 
BRANCH  21  24
ATOM     22  N   UNL     1      34.664 -22.956 -17.838  0.00  0.00    -0.230 NA
ATOM     23  N   UNL     1      36.841 -22.135 -18.196  0.00  0.00    -0.343 N 
ATOM     24  C   UNL     1      35.396 -19.632 -21.293  0.00  0.00    -0.002 C 
ATOM     25  C   UNL     1      35.895 -20.443 -20.282  0.00  0.00    +0.000 C 
ATOM     26  C   UNL     1      34.047 -19.644 -21.615  0.00  0.00    -0.003 C 
ATOM     27  C   UNL     1      35.028 -21.289 -19.571  0.00  0.00    +0.031 C 
ATOM     28  C   UNL     1      33.654 -21.311 -19.888  0.00  0.00    +0.004 C 
ATOM     29  C   UNL     1      33.176 -20.481 -20.916  0.00  0.00    -0.000 C 
ATOM     30  C   UNL     1      35.466 -22.128 -18.545  0.00  0.00    +0.125 C 
ATOM     31  C   UNL     1      32.806 -22.161 -19.168  0.00  0.00    +0.021 C 
ATOM     32  C   UNL     1      33.355 -22.950 -18.169  0.00  0.00    +0.100 C 
ATOM     33  H   UNL     1      37.164 -22.722 -17.475  0.00  0.00    +0.144 HD
ATOM     34  H   UNL     1      37.473 -21.552 -18.677  0.00  0.00    +0.144 HD
ENDBRANCH  21  24
ENDBRANCH   2  21
TORSDOF 5
ENDMDL
MODEL 8
REMARK VINA RESULT:     -11.1      2.562     10.757
REMARK  Name = 445480
REMARK  5 active torsions:
REMARK  status: ('A' for Active; 'I' for Inactive)
REMARK    1  A    between atoms: N_2  and  C_21
REMARK    2  A    between atoms: C_3  and  N_7
REMARK    3  A    between atoms: N_7  and  S_9
REMARK    4  A    between atoms: S_9  and  C_14
REMARK    5  A    between atoms: C_21  and  C_24
REMARK                            x       y       z     vdW  Elec       q    Type
REMARK                         _______ _______ _______ _____ _____    ______ ____
ROOT
ATOM      1  O   UNL     1      32.290 -20.589 -20.195  0.00  0.00    -0.273 OA
ATOM      2  N   UNL     1      33.863 -22.068 -19.263  0.00  0.00    -0.274 N 
ATOM      3  C   UNL     1      34.548 -20.774 -21.076  0.00  0.00    +0.153 C 
ATOM      4  C   UNL     1      35.771 -21.295 -20.331  0.00  0.00    +0.048 C 
ATOM      5  C   UNL     1      35.227 -22.461 -19.527  0.00  0.00    +0.096 C 
ATOM      6  C   UNL     1      33.404 -21.088 -20.143  0.00  0.00    +0.242 C 
ENDROOT
BRANCH   3   7
ATOM      7  N   UNL     1      34.629 -19.322 -21.275  0.00  0.00    -0.171 NA
ATOM      8  H   UNL     1      33.676 -18.979 -21.397  0.00  0.00    +0.149 HD
BRANCH   7   9
ATOM      9  S   UNL     1      35.553 -18.739 -22.596  0.00  0.00    +0.066 S 
ATOM     10  O   UNL     1      35.282 -19.553 -23.766  0.00  0.00    -0.152 OA
ATOM     11  O   UNL     1      36.911 -18.489 -22.151  0.00  0.00    -0.152 OA
BRANCH   9  14
ATOM     12  S   UNL     1      34.476 -16.929 -24.617  0.00  0.00    -0.066 S 
ATOM     13  N   UNL     1      33.939 -13.676 -22.552  0.00  0.00    -0.243 NA
ATOM     14  C   UNL     1      34.931 -17.106 -22.995  0.00  0.00    +0.153 C 
ATOM     15  C   UNL     1      34.759 -15.995 -22.244  0.00  0.00    +0.046 C 
ATOM     16  C   UNL     1      34.225 -14.922 -23.019  0.00  0.00    +0.089 C 
ATOM     17  C   UNL     1      34.017 -15.294 -24.348  0.00  0.00    +0.048 C 
ATOM     18  C   UNL     1      33.495 -14.368 -25.263  0.00  0.00    +0.010 C 
ATOM     19  C   UNL     1      33.202 -13.095 -24.792  0.00  0.00    +0.021 C 
ATOM     20  C   UNL     1      33.439 -12.813 -23.459  0.00  0.00    +0.099 C 
ENDBRANCH   9  14
ENDBRANCH   7   9
ENDBRANCH   3   7
BRANCH   2  21
ATOM     21  C   UNL     1      33.061 -22.740 -18.264  0.00  0.00    +0.120 C 
BRANCH  21  24
ATOM     22  N   UNL     1      34.195 -24.766 -12.521  0.00  0.00    -0.230 NA
ATOM     23  N   UNL     1      32.208 -25.089 -13.741  0.00  0.00    -0.343 N 
ATOM     24  C   UNL     1      33.855 -22.951 -17.005  0.00  0.00    -0.002 C 
ATOM     25  C   UNL     1      33.292 -23.656 -15.950  0.00  0.00    +0.000 C 
ATOM     26  C   UNL     1      35.140 -22.437 -16.913  0.00  0.00    -0.003 C 
ATOM     27  C   UNL     1      34.027 -23.855 -14.769  0.00  0.00    +0.031 C 
ATOM     28  C   UNL     1      35.335 -23.338 -14.663  0.00  0.00    +0.004 C 
ATOM     29  C   UNL     1      35.880 -22.629 -15.746  0.00  0.00    -0.000 C 
ATOM     30  C   UNL     1      33.520 -24.554 -13.673  0.00  0.00    +0.125 C 
ATOM     31  C   UNL     1      36.052 -23.547 -13.478  0.00  0.00    +0.021 C 
ATOM     32  C   UNL     1      35.444 -24.257 -12.455  0.00  0.00    +0.100 C 
ATOM     33  H   UNL     1      31.837 -25.583 -12.975  0.00  0.00    +0.144 HD
ATOM     34  H   UNL     1      31.668 -24.965 -14.555  0.00  0.00    +0.144 HD
ENDBRANCH  21  24
ENDBRANCH   2  21
TORSDOF 5
ENDMDL
MODEL 9
REMARK VINA RESULT:     -10.9      2.014      2.414
REMARK  Name = 445480
REMARK  5 active torsions:
REMARK  status: ('A' for Active; 'I' for Inactive)
REMARK    1  A    between atoms: N_2  and  C_21
REMARK    2  A    between atoms: C_3  and  N_7
REMARK    3  A    between atoms: N_7  and  S_9
REMARK    4  A    between atoms: S_9  and  C_14
REMARK    5  A    between atoms: C_21  and  C_24
REMARK                            x       y       z     vdW  Elec       q    Type
REMARK                         _______ _______ _______ _____ _____    ______ ____
ROOT
ATOM      1  O   UNL     1      36.149 -20.764 -20.069  0.00  0.00    -0.273 OA
ATOM      2  N   UNL     1      34.896 -19.507 -21.612  0.00  0.00    -0.274 N 
ATOM      3  C   UNL     1      33.803 -21.236 -20.495  0.00  0.00    +0.153 C 
ATOM      4  C   UNL     1      32.774 -20.269 -21.067  0.00  0.00    +0.048 C 
ATOM      5  C   UNL     1      33.548 -19.515 -22.132  0.00  0.00    +0.096 C 
ATOM      6  C   UNL     1      35.110 -20.498 -20.654  0.00  0.00    +0.242 C 
ENDROOT
BRANCH   3   7
ATOM      7  N   UNL     1      33.557 -21.488 -19.070  0.00  0.00    -0.171 NA
ATOM      8  H   UNL     1      34.070 -20.780 -18.544  0.00  0.00    +0.149 HD
BRANCH   7   9
ATOM      9  S   UNL     1      33.998 -23.017 -18.432  0.00  0.00    +0.066 S 
ATOM     10  O   UNL     1      35.282 -22.905 -17.768  0.00  0.00    -0.152 OA
ATOM     11  O   UNL     1      33.754 -24.037 -19.434  0.00  0.00    -0.152 OA
BRANCH   9  14
ATOM     12  S   UNL     1      33.531 -24.084 -15.756  0.00  0.00    -0.066 S 
ATOM     13  N   UNL     1      29.673 -23.710 -15.423  0.00  0.00    -0.243 NA
ATOM     14  C   UNL     1      32.822 -23.407 -17.137  0.00  0.00    +0.153 C 
ATOM     15  C   UNL     1      31.480 -23.261 -17.059  0.00  0.00    +0.046 C 
ATOM     16  C   UNL     1      30.979 -23.723 -15.805  0.00  0.00    +0.089 C 
ATOM     17  C   UNL     1      31.999 -24.206 -14.984  0.00  0.00    +0.048 C 
ATOM     18  C   UNL     1      31.697 -24.704 -13.708  0.00  0.00    +0.010 C 
ATOM     19  C   UNL     1      30.367 -24.693 -13.313  0.00  0.00    +0.021 C 
ATOM     20  C   UNL     1      29.420 -24.197 -14.191  0.00  0.00    +0.099 C 
ENDBRANCH   9  14
ENDBRANCH   7   9
ENDBRANCH   3   7
BRANCH   2  21
ATOM     21  C   UNL     1      35.911 -18.628 -22.151  0.00  0.00    +0.120 C 
BRANCH  21  24
ATOM     22  N   UNL     1      33.383 -13.094 -23.315  0.00  0.00    -0.230 NA
ATOM     23  N   UNL     1      34.163 -13.854 -21.228  0.00  0.00    -0.343 N 
ATOM     24  C   UNL     1      35.282 -17.543 -22.981  0.00  0.00    -0.002 C 
ATOM     25  C   UNL     1      34.924 -16.343 -22.382  0.00  0.00    +0.000 C 
ATOM     26  C   UNL     1      35.066 -17.757 -24.334  0.00  0.00    -0.003 C 
ATOM     27  C   UNL     1      34.335 -15.325 -23.150  0.00  0.00    +0.031 C 
ATOM     28  C   UNL     1      34.109 -15.529 -24.528  0.00  0.00    +0.004 C 
ATOM     29  C   UNL     1      34.480 -16.753 -25.108  0.00  0.00    -0.000 C 
ATOM     30  C   UNL     1      33.952 -14.097 -22.610  0.00  0.00    +0.125 C 
ATOM     31  C   UNL     1      33.520 -14.503 -25.276  0.00  0.00    +0.021 C 
ATOM     32  C   UNL     1      33.182 -13.324 -24.630  0.00  0.00    +0.100 C 
ATOM     33  H   UNL     1      33.898 -12.992 -20.833  0.00  0.00    +0.144 HD
ATOM     34  H   UNL     1      34.574 -14.548 -20.664  0.00  0.00    +0.144 HD
ENDBRANCH  21  24
ENDBRANCH   2  21
TORSDOF 5
ENDMDL
