MODEL 1
REMARK VINA RESULT:     -11.4      0.000      0.000
REMARK  Name = 24958200
REMARK  3 active torsions:
REMARK  status: ('A' for Active; 'I' for Inactive)
REMARK    1  A    between atoms: N_1  and  C_13
REMARK    2  A    between atoms: C_6  and  C_26
REMARK    3  A    between atoms: C_10  and  C_17
REMARK                            x       y       z     vdW  Elec       q    Type
REMARK                         _______ _______ _______ _____ _____    ______ ____
ROOT
ATOM      1  N   UNL     1      32.268 -22.914 -17.507  0.00  0.00    -0.189 N 
ATOM      2  N   UNL     1      30.923 -22.984 -17.531  0.00  0.00    -0.174 NA
ATOM      3  C   UNL     1      31.807 -24.042 -15.726  0.00  0.00    +0.036 C 
ATOM      4  C   UNL     1      32.854 -23.535 -16.442  0.00  0.00    +0.091 C 
ATOM      5  C   UNL     1      30.598 -23.684 -16.429  0.00  0.00    +0.105 C 
ATOM      6  C   UNL     1      29.340 -24.070 -15.932  0.00  0.00    +0.072 C 
ATOM      7  C   UNL     1      31.909 -24.764 -14.544  0.00  0.00    +0.003 C 
ATOM      8  C   UNL     1      29.410 -24.808 -14.730  0.00  0.00    +0.006 C 
ATOM      9  C   UNL     1      30.636 -25.137 -14.070  0.00  0.00    +0.000 C 
ENDROOT
BRANCH   1  13
ATOM     10  C   UNL     1      34.311 -20.914 -20.546  0.00  0.00    -0.024 C 
ATOM     11  C   UNL     1      32.935 -20.740 -20.399  0.00  0.00    -0.003 C 
ATOM     12  C   UNL     1      35.005 -21.757 -19.677  0.00  0.00    -0.003 C 
ATOM     13  C   UNL     1      32.944 -22.252 -18.515  0.00  0.00    +0.074 C 
ATOM     14  C   UNL     1      32.252 -21.409 -19.383  0.00  0.00    +0.016 C 
ATOM     15  C   UNL     1      34.322 -22.425 -18.661  0.00  0.00    +0.016 C 
BRANCH  10  17
ATOM     16  N   UNL     1      34.831 -18.746 -23.660  0.00  0.00    +0.384 N 
ATOM     17  C   UNL     1      35.054 -20.187 -21.652  0.00  0.00    +0.001 C 
ATOM     18  C   UNL     1      36.138 -19.252 -21.093  0.00  0.00    +0.000 C 
ATOM     19  C   UNL     1      34.099 -19.417 -22.583  0.00  0.00    -0.077 C 
ATOM     20  C   UNL     1      36.830 -18.501 -22.228  0.00  0.00    -0.023 C 
ATOM     21  C   UNL     1      35.817 -17.803 -23.132  0.00  0.00    -0.082 C 
ATOM     22  H   UNL     1      34.168 -18.240 -24.246  0.00  0.00    -0.085 HD
ATOM     23  H   UNL     1      35.325 -19.456 -24.202  0.00  0.00    -0.085 HD
ENDBRANCH  10  17
ENDBRANCH   1  13
BRANCH   6  26
ATOM     24  O   UNL     1      27.646 -24.430 -17.528  0.00  0.00    -0.270 OA
ATOM     25  N   UNL     1      27.373 -22.645 -16.115  0.00  0.00    -0.325 N 
ATOM     26  C   UNL     1      28.090 -23.746 -16.585  0.00  0.00    +0.244 C 
ATOM     27  H   UNL     1      26.518 -22.397 -16.537  0.00  0.00    +0.145 HD
ATOM     28  H   UNL     1      27.720 -22.116 -15.362  0.00  0.00    +0.145 HD
ENDBRANCH   6  26
TORSDOF 3
ENDMDL
MODEL 2
REMARK VINA RESULT:     -10.8      4.242      5.533
REMARK  Name = 24958200
REMARK  3 active torsions:
REMARK  status: ('A' for Active; 'I' for Inactive)
REMARK    1  A    between atoms: N_1  and  C_13
REMARK    2  A    between atoms: C_6  and  C_26
REMARK    3  A    between atoms: C_10  and  C_17
REMARK                            x       y       z     vdW  Elec       q    Type
REMARK                         _______ _______ _______ _____ _____    ______ ____
ROOT
ATOM      1  N   UNL     1      35.719 -23.218 -15.988  0.00  0.00    -0.189 N 
ATOM      2  N   UNL     1      36.650 -24.167 -15.769  0.00  0.00    -0.174 NA
ATOM      3  C   UNL     1      35.304 -23.851 -13.967  0.00  0.00    +0.036 C 
ATOM      4  C   UNL     1      34.881 -22.986 -14.937  0.00  0.00    +0.091 C 
ATOM      5  C   UNL     1      36.420 -24.586 -14.512  0.00  0.00    +0.105 C 
ATOM      6  C   UNL     1      37.078 -25.563 -13.742  0.00  0.00    +0.072 C 
ATOM      7  C   UNL     1      34.748 -23.983 -12.701  0.00  0.00    +0.003 C 
ATOM      8  C   UNL     1      36.536 -25.720 -12.447  0.00  0.00    +0.006 C 
ATOM      9  C   UNL     1      35.425 -24.965 -11.953  0.00  0.00    +0.000 C 
ENDROOT
BRANCH   1  13
ATOM     10  C   UNL     1      35.570 -21.248 -19.664  0.00  0.00    -0.024 C 
ATOM     11  C   UNL     1      36.702 -21.134 -18.856  0.00  0.00    -0.003 C 
ATOM     12  C   UNL     1      34.488 -22.021 -19.242  0.00  0.00    -0.003 C 
ATOM     13  C   UNL     1      35.670 -22.565 -17.206  0.00  0.00    +0.074 C 
ATOM     14  C   UNL     1      36.752 -21.793 -17.628  0.00  0.00    +0.016 C 
ATOM     15  C   UNL     1      34.537 -22.679 -18.014  0.00  0.00    +0.016 C 
BRANCH  10  17
ATOM     16  N   UNL     1      34.062 -19.343 -22.623  0.00  0.00    +0.384 N 
ATOM     17  C   UNL     1      35.515 -20.530 -21.000  0.00  0.00    +0.001 C 
ATOM     18  C   UNL     1      36.545 -19.392 -21.079  0.00  0.00    +0.000 C 
ATOM     19  C   UNL     1      34.102 -20.007 -21.318  0.00  0.00    -0.077 C 
ATOM     20  C   UNL     1      36.428 -18.661 -22.415  0.00  0.00    -0.023 C 
ATOM     21  C   UNL     1      34.992 -18.215 -22.680  0.00  0.00    -0.082 C 
ATOM     22  H   UNL     1      33.115 -19.002 -22.792  0.00  0.00    -0.085 HD
ATOM     23  H   UNL     1      34.335 -20.020 -23.335  0.00  0.00    -0.085 HD
ENDBRANCH  10  17
ENDBRANCH   1  13
BRANCH   6  26
ATOM     24  O   UNL     1      38.047 -27.313 -14.984  0.00  0.00    -0.270 OA
ATOM     25  N   UNL     1      39.482 -25.948 -13.829  0.00  0.00    -0.325 N 
ATOM     26  C   UNL     1      38.202 -26.336 -14.224  0.00  0.00    +0.244 C 
ATOM     27  H   UNL     1      40.268 -26.453 -14.140  0.00  0.00    +0.145 HD
ATOM     28  H   UNL     1      39.600 -25.168 -13.240  0.00  0.00    +0.145 HD
ENDBRANCH   6  26
TORSDOF 3
ENDMDL
MODEL 3
REMARK VINA RESULT:     -10.8      2.579      3.556
REMARK  Name = 24958200
REMARK  3 active torsions:
REMARK  status: ('A' for Active; 'I' for Inactive)
REMARK    1  A    between atoms: N_1  and  C_13
REMARK    2  A    between atoms: C_6  and  C_26
REMARK    3  A    between atoms: C_10  and  C_17
REMARK                            x       y       z     vdW  Elec       q    Type
REMARK                         _______ _______ _______ _____ _____    ______ ____
ROOT
ATOM      1  N   UNL     1      33.267 -22.548 -18.000  0.00  0.00    -0.189 N 
ATOM      2  N   UNL     1      34.190 -23.216 -17.282  0.00  0.00    -0.174 NA
ATOM      3  C   UNL     1      32.090 -23.514 -16.470  0.00  0.00    +0.036 C 
ATOM      4  C   UNL     1      31.984 -22.691 -17.556  0.00  0.00    +0.091 C 
ATOM      5  C   UNL     1      33.488 -23.833 -16.314  0.00  0.00    +0.105 C 
ATOM      6  C   UNL     1      33.919 -24.672 -15.270  0.00  0.00    +0.072 C 
ATOM      7  C   UNL     1      31.035 -23.950 -15.679  0.00  0.00    +0.003 C 
ATOM      8  C   UNL     1      32.868 -25.132 -14.446  0.00  0.00    +0.006 C 
ATOM      9  C   UNL     1      31.493 -24.786 -14.643  0.00  0.00    +0.000 C 
ENDROOT
BRANCH   1  13
ATOM     10  C   UNL     1      34.432 -20.261 -21.290  0.00  0.00    -0.024 C 
ATOM     11  C   UNL     1      33.085 -20.339 -20.936  0.00  0.00    -0.003 C 
ATOM     12  C   UNL     1      35.390 -20.948 -20.543  0.00  0.00    -0.003 C 
ATOM     13  C   UNL     1      33.653 -21.791 -19.090  0.00  0.00    +0.074 C 
ATOM     14  C   UNL     1      32.695 -21.104 -19.837  0.00  0.00    +0.016 C 
ATOM     15  C   UNL     1      35.001 -21.712 -19.443  0.00  0.00    +0.016 C 
BRANCH  10  17
ATOM     16  N   UNL     1      34.229 -18.650 -24.758  0.00  0.00    +0.384 N 
ATOM     17  C   UNL     1      34.856 -19.431 -22.488  0.00  0.00    +0.001 C 
ATOM     18  C   UNL     1      35.218 -17.992 -22.085  0.00  0.00    +0.000 C 
ATOM     19  C   UNL     1      33.790 -19.432 -23.599  0.00  0.00    -0.077 C 
ATOM     20  C   UNL     1      35.591 -17.174 -23.319  0.00  0.00    -0.023 C 
ATOM     21  C   UNL     1      34.509 -17.262 -24.392  0.00  0.00    -0.082 C 
ATOM     22  H   UNL     1      33.494 -18.665 -25.465  0.00  0.00    -0.085 HD
ATOM     23  H   UNL     1      35.088 -19.066 -25.118  0.00  0.00    -0.085 HD
ENDBRANCH  10  17
ENDBRANCH   1  13
BRANCH   6  26
ATOM     24  O   UNL     1      36.150 -24.196 -14.686  0.00  0.00    -0.270 OA
ATOM     25  N   UNL     1      35.671 -26.364 -15.256  0.00  0.00    -0.325 N 
ATOM     26  C   UNL     1      35.303 -25.034 -15.055  0.00  0.00    +0.244 C 
ATOM     27  H   UNL     1      36.606 -26.644 -15.119  0.00  0.00    +0.145 HD
ATOM     28  H   UNL     1      34.997 -27.025 -15.535  0.00  0.00    +0.145 HD
ENDBRANCH   6  26
TORSDOF 3
ENDMDL
MODEL 4
REMARK VINA RESULT:     -10.8      3.442      4.731
REMARK  Name = 24958200
REMARK  3 active torsions:
REMARK  status: ('A' for Active; 'I' for Inactive)
REMARK    1  A    between atoms: N_1  and  C_13
REMARK    2  A    between atoms: C_6  and  C_26
REMARK    3  A    between atoms: C_10  and  C_17
REMARK                            x       y       z     vdW  Elec       q    Type
REMARK                         _______ _______ _______ _____ _____    ______ ____
ROOT
ATOM      1  N   UNL     1      34.622 -22.306 -18.144  0.00  0.00    -0.189 N 
ATOM      2  N   UNL     1      35.711 -22.575 -17.398  0.00  0.00    -0.174 NA
ATOM      3  C   UNL     1      33.834 -23.541 -16.559  0.00  0.00    +0.036 C 
ATOM      4  C   UNL     1      33.464 -22.862 -17.686  0.00  0.00    +0.091 C 
ATOM      5  C   UNL     1      35.255 -23.348 -16.396  0.00  0.00    +0.105 C 
ATOM      6  C   UNL     1      35.937 -23.931 -15.312  0.00  0.00    +0.072 C 
ATOM      7  C   UNL     1      32.986 -24.275 -15.741  0.00  0.00    +0.003 C 
ATOM      8  C   UNL     1      35.100 -24.684 -14.459  0.00  0.00    +0.006 C 
ATOM      9  C   UNL     1      33.694 -24.847 -14.665  0.00  0.00    +0.000 C 
ENDROOT
BRANCH   1  13
ATOM     10  C   UNL     1      34.963 -19.932 -21.559  0.00  0.00    -0.024 C 
ATOM     11  C   UNL     1      36.109 -20.361 -20.890  0.00  0.00    -0.003 C 
ATOM     12  C   UNL     1      33.702 -20.298 -21.086  0.00  0.00    -0.003 C 
ATOM     13  C   UNL     1      34.735 -21.519 -19.275  0.00  0.00    +0.074 C 
ATOM     14  C   UNL     1      35.996 -21.154 -19.749  0.00  0.00    +0.016 C 
ATOM     15  C   UNL     1      33.588 -21.091 -19.945  0.00  0.00    +0.016 C 
BRANCH  10  17
ATOM     16  N   UNL     1      34.063 -18.461 -24.978  0.00  0.00    +0.384 N 
ATOM     17  C   UNL     1      35.086 -19.067 -22.800  0.00  0.00    +0.001 C 
ATOM     18  C   UNL     1      35.232 -17.578 -22.446  0.00  0.00    +0.000 C 
ATOM     19  C   UNL     1      33.912 -19.282 -23.774  0.00  0.00    -0.077 C 
ATOM     20  C   UNL     1      35.302 -16.735 -23.717  0.00  0.00    -0.023 C 
ATOM     21  C   UNL     1      34.133 -17.037 -24.650  0.00  0.00    -0.082 C 
ATOM     22  H   UNL     1      33.264 -18.622 -25.591  0.00  0.00    -0.085 HD
ATOM     23  H   UNL     1      34.933 -18.727 -25.440  0.00  0.00    -0.085 HD
ENDBRANCH  10  17
ENDBRANCH   1  13
BRANCH   6  26
ATOM     24  O   UNL     1      37.855 -23.874 -13.948  0.00  0.00    -0.270 OA
ATOM     25  N   UNL     1      38.174 -23.539 -16.193  0.00  0.00    -0.325 N 
ATOM     26  C   UNL     1      37.358 -23.779 -15.088  0.00  0.00    +0.244 C 
ATOM     27  H   UNL     1      39.146 -23.431 -16.075  0.00  0.00    +0.145 HD
ATOM     28  H   UNL     1      37.778 -23.478 -17.093  0.00  0.00    +0.145 HD
ENDBRANCH   6  26
TORSDOF 3
ENDMDL
MODEL 5
REMARK VINA RESULT:     -10.0      4.340      7.737
REMARK  Name = 24958200
REMARK  3 active torsions:
REMARK  status: ('A' for Active; 'I' for Inactive)
REMARK    1  A    between atoms: N_1  and  C_13
REMARK    2  A    between atoms: C_6  and  C_26
REMARK    3  A    between atoms: C_10  and  C_17
REMARK                            x       y       z     vdW  Elec       q    Type
REMARK                         _______ _______ _______ _____ _____    ______ ____
ROOT
ATOM      1  N   UNL     1      35.005 -17.881 -22.091  0.00  0.00    -0.189 N 
ATOM      2  N   UNL     1      34.059 -18.720 -21.625  0.00  0.00    -0.174 NA
ATOM      3  C   UNL     1      36.158 -19.416 -21.104  0.00  0.00    +0.036 C 
ATOM      4  C   UNL     1      36.287 -18.251 -21.806  0.00  0.00    +0.091 C 
ATOM      5  C   UNL     1      34.745 -19.694 -21.001  0.00  0.00    +0.105 C 
ATOM      6  C   UNL     1      34.288 -20.841 -20.325  0.00  0.00    +0.072 C 
ATOM      7  C   UNL     1      37.203 -20.174 -20.593  0.00  0.00    +0.003 C 
ATOM      8  C   UNL     1      35.329 -21.634 -19.794  0.00  0.00    +0.006 C 
ATOM      9  C   UNL     1      36.718 -21.314 -19.922  0.00  0.00    +0.000 C 
ENDROOT
BRANCH   1  13
ATOM     10  C   UNL     1      33.903 -14.468 -24.223  0.00  0.00    -0.024 C 
ATOM     11  C   UNL     1      34.017 -15.694 -24.879  0.00  0.00    -0.003 C 
ATOM     12  C   UNL     1      34.157 -14.383 -22.853  0.00  0.00    -0.003 C 
ATOM     13  C   UNL     1      34.641 -16.750 -22.798  0.00  0.00    +0.074 C 
ATOM     14  C   UNL     1      34.386 -16.834 -24.166  0.00  0.00    +0.016 C 
ATOM     15  C   UNL     1      34.526 -15.524 -22.141  0.00  0.00    +0.016 C 
BRANCH  10  17
ATOM     16  N   UNL     1      33.703 -10.757 -25.145  0.00  0.00    +0.384 N 
ATOM     17  C   UNL     1      33.504 -13.226 -24.998  0.00  0.00    +0.001 C 
ATOM     18  C   UNL     1      33.849 -13.349 -26.491  0.00  0.00    +0.000 C 
ATOM     19  C   UNL     1      34.122 -11.947 -24.401  0.00  0.00    -0.077 C 
ATOM     20  C   UNL     1      33.480 -12.065 -27.229  0.00  0.00    -0.023 C 
ATOM     21  C   UNL     1      34.090 -10.840 -26.553  0.00  0.00    -0.082 C 
ATOM     22  H   UNL     1      34.140  -9.935 -24.728  0.00  0.00    -0.085 HD
ATOM     23  H   UNL     1      32.686 -10.690 -25.096  0.00  0.00    -0.085 HD
ENDBRANCH  10  17
ENDBRANCH   1  13
BRANCH   6  26
ATOM     24  O   UNL     1      32.502 -22.034 -19.362  0.00  0.00    -0.270 OA
ATOM     25  N   UNL     1      31.968 -20.507 -20.986  0.00  0.00    -0.325 N 
ATOM     26  C   UNL     1      32.889 -21.180 -20.183  0.00  0.00    +0.244 C 
ATOM     27  H   UNL     1      31.007 -20.714 -20.914  0.00  0.00    +0.145 HD
ATOM     28  H   UNL     1      32.277 -19.824 -21.624  0.00  0.00    +0.145 HD
ENDBRANCH   6  26
TORSDOF 3
ENDMDL
MODEL 6
REMARK VINA RESULT:      -9.9      2.681      3.677
REMARK  Name = 24958200
REMARK  3 active torsions:
REMARK  status: ('A' for Active; 'I' for Inactive)
REMARK    1  A    between atoms: N_1  and  C_13
REMARK    2  A    between atoms: C_6  and  C_26
REMARK    3  A    between atoms: C_10  and  C_17
REMARK                            x       y       z     vdW  Elec       q    Type
REMARK                         _______ _______ _______ _____ _____    ______ ____
ROOT
ATOM      1  N   UNL     1      35.495 -22.852 -16.642  0.00  0.00    -0.189 N 
ATOM      2  N   UNL     1      34.335 -23.139 -16.020  0.00  0.00    -0.174 NA
ATOM      3  C   UNL     1      36.143 -23.850 -14.841  0.00  0.00    +0.036 C 
ATOM      4  C   UNL     1      36.616 -23.257 -15.978  0.00  0.00    +0.091 C 
ATOM      5  C   UNL     1      34.703 -23.765 -14.887  0.00  0.00    +0.105 C 
ATOM      6  C   UNL     1      33.921 -24.296 -13.844  0.00  0.00    +0.072 C 
ATOM      7  C   UNL     1      36.920 -24.420 -13.842  0.00  0.00    +0.003 C 
ATOM      8  C   UNL     1      34.684 -24.884 -12.811  0.00  0.00    +0.006 C 
ATOM      9  C   UNL     1      36.113 -24.943 -12.812  0.00  0.00    +0.000 C 
ENDROOT
BRANCH   1  13
ATOM     10  C   UNL     1      35.460 -20.875 -20.317  0.00  0.00    -0.024 C 
ATOM     11  C   UNL     1      36.610 -20.862 -19.528  0.00  0.00    -0.003 C 
ATOM     12  C   UNL     1      34.320 -21.551 -19.877  0.00  0.00    -0.003 C 
ATOM     13  C   UNL     1      35.483 -22.196 -17.859  0.00  0.00    +0.074 C 
ATOM     14  C   UNL     1      36.622 -21.522 -18.300  0.00  0.00    +0.016 C 
ATOM     15  C   UNL     1      34.332 -22.211 -18.649  0.00  0.00    +0.016 C 
BRANCH  10  17
ATOM     16  N   UNL     1      34.021 -19.129 -23.406  0.00  0.00    +0.384 N 
ATOM     17  C   UNL     1      35.446 -20.155 -21.653  0.00  0.00    +0.001 C 
ATOM     18  C   UNL     1      36.339 -18.904 -21.637  0.00  0.00    +0.000 C 
ATOM     19  C   UNL     1      34.017 -19.797 -22.102  0.00  0.00    -0.077 C 
ATOM     20  C   UNL     1      36.262 -18.179 -22.978  0.00  0.00    -0.023 C 
ATOM     21  C   UNL     1      34.815 -17.900 -23.376  0.00  0.00    -0.082 C 
ATOM     22  H   UNL     1      33.061 -18.898 -23.663  0.00  0.00    -0.085 HD
ATOM     23  H   UNL     1      34.437 -19.763 -24.089  0.00  0.00    -0.085 HD
ENDBRANCH  10  17
ENDBRANCH   1  13
BRANCH   6  26
ATOM     24  O   UNL     1      31.784 -25.283 -13.808  0.00  0.00    -0.270 OA
ATOM     25  N   UNL     1      31.864 -22.992 -13.806  0.00  0.00    -0.325 N 
ATOM     26  C   UNL     1      32.476 -24.245 -13.825  0.00  0.00    +0.244 C 
ATOM     27  H   UNL     1      30.882 -22.922 -13.792  0.00  0.00    +0.145 HD
ATOM     28  H   UNL     1      32.414 -22.175 -13.806  0.00  0.00    +0.145 HD
ENDBRANCH   6  26
TORSDOF 3
ENDMDL
MODEL 7
REMARK VINA RESULT:      -9.7      4.055      8.919
REMARK  Name = 24958200
REMARK  3 active torsions:
REMARK  status: ('A' for Active; 'I' for Inactive)
REMARK    1  A    between atoms: N_1  and  C_13
REMARK    2  A    between atoms: C_6  and  C_26
REMARK    3  A    between atoms: C_10  and  C_17
REMARK                            x       y       z     vdW  Elec       q    Type
REMARK                         _______ _______ _______ _____ _____    ______ ____
ROOT
ATOM      1  N   UNL     1      34.817 -21.611 -19.019  0.00  0.00    -0.189 N 
ATOM      2  N   UNL     1      35.837 -20.852 -19.464  0.00  0.00    -0.174 NA
ATOM      3  C   UNL     1      33.973 -20.623 -20.741  0.00  0.00    +0.036 C 
ATOM      4  C   UNL     1      33.669 -21.513 -19.750  0.00  0.00    +0.091 C 
ATOM      5  C   UNL     1      35.343 -20.218 -20.543  0.00  0.00    +0.105 C 
ATOM      6  C   UNL     1      35.951 -19.297 -21.416  0.00  0.00    +0.072 C 
ATOM      7  C   UNL     1      33.107 -20.200 -21.742  0.00  0.00    +0.003 C 
ATOM      8  C   UNL     1      35.096 -18.848 -22.446  0.00  0.00    +0.006 C 
ATOM      9  C   UNL     1      33.741 -19.280 -22.600  0.00  0.00    +0.000 C 
ENDROOT
BRANCH   1  13
ATOM     10  C   UNL     1      35.321 -24.017 -15.646  0.00  0.00    -0.024 C 
ATOM     11  C   UNL     1      36.377 -23.230 -16.106  0.00  0.00    -0.003 C 
ATOM     12  C   UNL     1      34.096 -23.999 -16.314  0.00  0.00    -0.003 C 
ATOM     13  C   UNL     1      34.985 -22.409 -17.902  0.00  0.00    +0.074 C 
ATOM     14  C   UNL     1      36.209 -22.426 -17.234  0.00  0.00    +0.016 C 
ATOM     15  C   UNL     1      33.928 -23.195 -17.441  0.00  0.00    +0.016 C 
BRANCH  10  17
ATOM     16  N   UNL     1      36.669 -26.871 -13.479  0.00  0.00    +0.384 N 
ATOM     17  C   UNL     1      35.505 -24.893 -14.421  0.00  0.00    +0.001 C 
ATOM     18  C   UNL     1      35.890 -24.068 -13.182  0.00  0.00    +0.000 C 
ATOM     19  C   UNL     1      36.527 -26.020 -14.663  0.00  0.00    -0.077 C 
ATOM     20  C   UNL     1      36.115 -24.985 -11.982  0.00  0.00    -0.023 C 
ATOM     21  C   UNL     1      37.102 -26.101 -12.314  0.00  0.00    -0.082 C 
ATOM     22  H   UNL     1      37.360 -27.596 -13.674  0.00  0.00    -0.085 HD
ATOM     23  H   UNL     1      35.759 -27.284 -13.271  0.00  0.00    -0.085 HD
ENDBRANCH  10  17
ENDBRANCH   1  13
BRANCH   6  26
ATOM     24  O   UNL     1      37.817 -18.598 -20.160  0.00  0.00    -0.270 OA
ATOM     25  N   UNL     1      38.086 -18.713 -22.434  0.00  0.00    -0.325 N 
ATOM     26  C   UNL     1      37.319 -18.847 -21.276  0.00  0.00    +0.244 C 
ATOM     27  H   UNL     1      39.021 -18.410 -22.374  0.00  0.00    +0.145 HD
ATOM     28  H   UNL     1      37.693 -18.924 -23.312  0.00  0.00    +0.145 HD
ENDBRANCH   6  26
TORSDOF 3
ENDMDL
MODEL 8
REMARK VINA RESULT:      -9.6      7.938     13.048
REMARK  Name = 24958200
REMARK  3 active torsions:
REMARK  status: ('A' for Active; 'I' for Inactive)
REMARK    1  A    between atoms: N_1  and  C_13
REMARK    2  A    between atoms: C_6  and  C_26
REMARK    3  A    between atoms: C_10  and  C_17
REMARK                            x       y       z     vdW  Elec       q    Type
REMARK                         _______ _______ _______ _____ _____    ______ ____
ROOT
ATOM      1  N   UNL     1      33.253 -11.218 -24.113  0.00  0.00    -0.189 N 
ATOM      2  N   UNL     1      32.934 -10.653 -22.933  0.00  0.00    -0.174 NA
ATOM      3  C   UNL     1      32.793  -9.181 -24.658  0.00  0.00    +0.036 C 
ATOM      4  C   UNL     1      33.186 -10.379 -25.187  0.00  0.00    +0.091 C 
ATOM      5  C   UNL     1      32.639  -9.375 -23.236  0.00  0.00    +0.105 C 
ATOM      6  C   UNL     1      32.239  -8.311 -22.408  0.00  0.00    +0.072 C 
ATOM      7  C   UNL     1      32.584  -8.010 -25.374  0.00  0.00    +0.003 C 
ATOM      8  C   UNL     1      32.020  -7.104 -23.107  0.00  0.00    +0.006 C 
ATOM      9  C   UNL     1      32.185  -6.962 -24.521  0.00  0.00    +0.000 C 
ENDROOT
BRANCH   1  13
ATOM     10  C   UNL     1      34.344 -15.243 -24.273  0.00  0.00    -0.024 C 
ATOM     11  C   UNL     1      34.501 -14.524 -23.088  0.00  0.00    -0.003 C 
ATOM     12  C   UNL     1      33.822 -14.616 -25.406  0.00  0.00    -0.003 C 
ATOM     13  C   UNL     1      33.616 -12.551 -24.166  0.00  0.00    +0.074 C 
ATOM     14  C   UNL     1      34.137 -13.179 -23.035  0.00  0.00    +0.016 C 
ATOM     15  C   UNL     1      33.458 -13.271 -25.352  0.00  0.00    +0.016 C 
BRANCH  10  17
ATOM     16  N   UNL     1      35.680 -18.621 -23.064  0.00  0.00    +0.384 N 
ATOM     17  C   UNL     1      34.742 -16.706 -24.332  0.00  0.00    +0.001 C 
ATOM     18  C   UNL     1      33.588 -17.592 -24.830  0.00  0.00    +0.000 C 
ATOM     19  C   UNL     1      35.275 -17.216 -22.980  0.00  0.00    -0.077 C 
ATOM     20  C   UNL     1      34.007 -19.060 -24.829  0.00  0.00    -0.023 C 
ATOM     21  C   UNL     1      34.566 -19.477 -23.471  0.00  0.00    -0.082 C 
ATOM     22  H   UNL     1      36.015 -18.925 -22.149  0.00  0.00    -0.085 HD
ATOM     23  H   UNL     1      36.418 -18.700 -23.764  0.00  0.00    -0.085 HD
ENDBRANCH  10  17
ENDBRANCH   1  13
BRANCH   6  26
ATOM     24  O   UNL     1      31.181  -9.164 -20.485  0.00  0.00    -0.270 OA
ATOM     25  N   UNL     1      32.933  -7.723 -20.148  0.00  0.00    -0.325 N 
ATOM     26  C   UNL     1      32.065  -8.435 -20.977  0.00  0.00    +0.244 C 
ATOM     27  H   UNL     1      32.841  -7.786 -19.169  0.00  0.00    +0.145 HD
ATOM     28  H   UNL     1      33.637  -7.159 -20.541  0.00  0.00    +0.145 HD
ENDBRANCH   6  26
TORSDOF 3
ENDMDL
MODEL 9
REMARK VINA RESULT:      -9.6      7.780     12.910
REMARK  Name = 24958200
REMARK  3 active torsions:
REMARK  status: ('A' for Active; 'I' for Inactive)
REMARK    1  A    between atoms: N_1  and  C_13
REMARK    2  A    between atoms: C_6  and  C_26
REMARK    3  A    between atoms: C_10  and  C_17
REMARK                            x       y       z     vdW  Elec       q    Type
REMARK                         _______ _______ _______ _____ _____    ______ ____
ROOT
ATOM      1  N   UNL     1      33.190 -11.887 -23.262  0.00  0.00    -0.189 N 
ATOM      2  N   UNL     1      33.803 -11.003 -24.073  0.00  0.00    -0.174 NA
ATOM      3  C   UNL     1      32.017 -10.094 -23.003  0.00  0.00    +0.036 C 
ATOM      4  C   UNL     1      32.108 -11.395 -22.592  0.00  0.00    +0.091 C 
ATOM      5  C   UNL     1      33.094  -9.868 -23.936  0.00  0.00    +0.105 C 
ATOM      6  C   UNL     1      33.266  -8.608 -24.539  0.00  0.00    +0.072 C 
ATOM      7  C   UNL     1      31.059  -9.179 -22.586  0.00  0.00    +0.003 C 
ATOM      8  C   UNL     1      32.306  -7.654 -24.136  0.00  0.00    +0.006 C 
ATOM      9  C   UNL     1      31.254  -7.928 -23.205  0.00  0.00    +0.000 C 
ENDROOT
BRANCH   1  13
ATOM     10  C   UNL     1      34.635 -15.790 -22.957  0.00  0.00    -0.024 C 
ATOM     11  C   UNL     1      34.399 -15.229 -24.213  0.00  0.00    -0.003 C 
ATOM     12  C   UNL     1      34.388 -15.045 -21.803  0.00  0.00    -0.003 C 
ATOM     13  C   UNL     1      33.668 -13.181 -23.161  0.00  0.00    +0.074 C 
ATOM     14  C   UNL     1      33.916 -13.925 -24.315  0.00  0.00    +0.016 C 
ATOM     15  C   UNL     1      33.905 -13.741 -21.905  0.00  0.00    +0.016 C 
BRANCH  10  17
ATOM     16  N   UNL     1      35.708 -19.069 -21.297  0.00  0.00    +0.384 N 
ATOM     17  C   UNL     1      35.159 -17.210 -22.846  0.00  0.00    +0.001 C 
ATOM     18  C   UNL     1      34.374 -18.180 -23.743  0.00  0.00    +0.000 C 
ATOM     19  C   UNL     1      35.173 -17.709 -21.388  0.00  0.00    -0.077 C 
ATOM     20  C   UNL     1      34.895 -19.605 -23.568  0.00  0.00    -0.023 C 
ATOM     21  C   UNL     1      34.922 -20.009 -22.096  0.00  0.00    -0.082 C 
ATOM     22  H   UNL     1      35.691 -19.367 -20.322  0.00  0.00    -0.085 HD
ATOM     23  H   UNL     1      36.663 -19.063 -21.657  0.00  0.00    -0.085 HD
ENDBRANCH  10  17
ENDBRANCH   1  13
BRANCH   6  26
ATOM     24  O   UNL     1      34.825  -7.173 -25.565  0.00  0.00    -0.270 OA
ATOM     25  N   UNL     1      34.786  -9.346 -26.293  0.00  0.00    -0.325 N 
ATOM     26  C   UNL     1      34.323  -8.311 -25.481  0.00  0.00    +0.244 C 
ATOM     27  H   UNL     1      35.505  -9.177 -26.945  0.00  0.00    +0.145 HD
ATOM     28  H   UNL     1      34.395 -10.246 -26.215  0.00  0.00    +0.145 HD
ENDBRANCH   6  26
TORSDOF 3
ENDMDL
