MODEL 1
REMARK VINA RESULT:     -12.4      0.000      0.000
REMARK  Name = 25101874
REMARK  5 active torsions:
REMARK  status: ('A' for Active; 'I' for Inactive)
REMARK    1  A    between atoms: N_1  and  C_22
REMARK    2  A    between atoms: C_2  and  N_8
REMARK    3  A    between atoms: N_8  and  C_11
REMARK    4  A    between atoms: C_11  and  C_14
REMARK    5  A    between atoms: C_22  and  C_28
REMARK                            x       y       z     vdW  Elec       q    Type
REMARK                         _______ _______ _______ _____ _____    ______ ____
ROOT
ATOM      1  N   UNL     1      34.123 -22.695 -19.229  0.00  0.00    +0.388 N 
ATOM      2  C   UNL     1      34.673 -20.213 -20.679  0.00  0.00    -0.066 C 
ATOM      3  C   UNL     1      35.454 -22.074 -19.165  0.00  0.00    -0.079 C 
ATOM      4  C   UNL     1      33.071 -21.682 -19.396  0.00  0.00    -0.079 C 
ATOM      5  C   UNL     1      35.751 -21.272 -20.435  0.00  0.00    -0.044 C 
ATOM      6  C   UNL     1      33.288 -20.867 -20.673  0.00  0.00    -0.044 C 
ATOM      7  H   UNL     1      34.102 -23.307 -20.043  0.00  0.00    -0.080 HD
ENDROOT
BRANCH   2   8
ATOM      8  N   UNL     1      34.919 -19.523 -21.943  0.00  0.00    +0.389 N 
ATOM      9  H   UNL     1      34.063 -19.523 -22.497  0.00  0.00    -0.084 HD
ATOM     10  H   UNL     1      35.664 -20.010 -22.441  0.00  0.00    -0.084 HD
BRANCH   8  11
ATOM     11  C   UNL     1      35.337 -18.149 -21.709  0.00  0.00    -0.034 C 
BRANCH  11  14
ATOM     12  O   UNL     1      33.707 -14.904 -25.963  0.00  0.00    -0.474 OA
ATOM     13  N   UNL     1      34.759 -17.790 -24.043  0.00  0.00    -0.247 NA
ATOM     14  C   UNL     1      34.900 -17.232 -22.821  0.00  0.00    +0.037 C 
ATOM     15  C   UNL     1      34.672 -15.893 -22.546  0.00  0.00    +0.011 C 
ATOM     16  C   UNL     1      34.274 -15.061 -23.594  0.00  0.00    +0.015 C 
ATOM     17  C   UNL     1      34.015 -13.603 -23.348  0.00  0.00    +0.033 C 
ATOM     18  C   UNL     1      34.096 -15.615 -24.864  0.00  0.00    +0.154 C 
ATOM     19  C   UNL     1      33.989 -12.843 -24.667  0.00  0.00    +0.052 C 
ATOM     20  C   UNL     1      34.361 -16.966 -25.037  0.00  0.00    +0.135 C 
ATOM     21  C   UNL     1      33.152 -13.615 -25.676  0.00  0.00    +0.206 C 
ENDBRANCH  11  14
ENDBRANCH   8  11
ENDBRANCH   2   8
BRANCH   1  22
ATOM     22  C   UNL     1      33.876 -23.498 -18.031  0.00  0.00    -0.055 C 
BRANCH  22  28
ATOM     23  O   UNL     1      31.242 -22.898 -15.976  0.00  0.00    -0.273 OA
ATOM     24  O   UNL     1      37.976 -23.814 -14.664  0.00  0.00    -0.270 OA
ATOM     25  N   UNL     1      33.517 -23.259 -15.587  0.00  0.00    -0.261 N 
ATOM     26  N   UNL     1      35.713 -23.556 -15.107  0.00  0.00    -0.255 N 
ATOM     27  N   UNL     1      32.769 -24.437 -13.154  0.00  0.00    -0.262 NA
ATOM     28  C   UNL     1      34.215 -22.715 -16.768  0.00  0.00    +0.076 C 
ATOM     29  C   UNL     1      35.717 -22.847 -16.394  0.00  0.00    +0.113 C 
ATOM     30  C   UNL     1      34.426 -23.734 -14.699  0.00  0.00    +0.196 C 
ATOM     31  C   UNL     1      34.075 -24.296 -13.546  0.00  0.00    +0.092 C 
ATOM     32  C   UNL     1      32.176 -23.307 -15.304  0.00  0.00    +0.252 C 
ATOM     33  C   UNL     1      36.798 -23.959 -14.352  0.00  0.00    +0.251 C 
ATOM     34  C   UNL     1      35.141 -24.763 -12.687  0.00  0.00    +0.022 C 
ATOM     35  C   UNL     1      31.870 -23.972 -13.972  0.00  0.00    +0.210 C 
ATOM     36  C   UNL     1      36.430 -24.619 -13.047  0.00  0.00    +0.059 C 
ENDBRANCH  22  28
ENDBRANCH   1  22
TORSDOF 5
ENDMDL
MODEL 2
REMARK VINA RESULT:     -12.4      3.407     11.940
REMARK  Name = 25101874
REMARK  5 active torsions:
REMARK  status: ('A' for Active; 'I' for Inactive)
REMARK    1  A    between atoms: N_1  and  C_22
REMARK    2  A    between atoms: C_2  and  N_8
REMARK    3  A    between atoms: N_8  and  C_11
REMARK    4  A    between atoms: C_11  and  C_14
REMARK    5  A    between atoms: C_22  and  C_28
REMARK                            x       y       z     vdW  Elec       q    Type
REMARK                         _______ _______ _______ _____ _____    ______ ____
ROOT
ATOM      1  N   UNL     1      34.290 -15.225 -22.832  0.00  0.00    +0.388 N 
ATOM      2  C   UNL     1      35.368 -17.944 -22.798  0.00  0.00    -0.066 C 
ATOM      3  C   UNL     1      34.901 -15.768 -21.611  0.00  0.00    -0.079 C 
ATOM      4  C   UNL     1      34.910 -15.794 -24.036  0.00  0.00    -0.079 C 
ATOM      5  C   UNL     1      34.761 -17.292 -21.554  0.00  0.00    -0.044 C 
ATOM      6  C   UNL     1      34.770 -17.318 -24.061  0.00  0.00    -0.044 C 
ATOM      7  H   UNL     1      33.304 -15.487 -22.832  0.00  0.00    -0.080 HD
ENDROOT
BRANCH   2   8
ATOM      8  N   UNL     1      35.141 -19.388 -22.773  0.00  0.00    +0.389 N 
ATOM      9  H   UNL     1      35.955 -19.847 -22.365  0.00  0.00    -0.084 HD
ATOM     10  H   UNL     1      34.993 -19.711 -23.730  0.00  0.00    -0.084 HD
BRANCH   8  11
ATOM     11  C   UNL     1      33.963 -19.713 -21.984  0.00  0.00    -0.034 C 
BRANCH  11  14
ATOM     12  O   UNL     1      35.424 -22.843 -17.584  0.00  0.00    -0.474 OA
ATOM     13  N   UNL     1      35.616 -20.694 -20.495  0.00  0.00    -0.247 NA
ATOM     14  C   UNL     1      34.304 -20.569 -20.793  0.00  0.00    +0.037 C 
ATOM     15  C   UNL     1      33.283 -21.176 -20.079  0.00  0.00    +0.011 C 
ATOM     16  C   UNL     1      33.623 -21.970 -18.983  0.00  0.00    +0.015 C 
ATOM     17  C   UNL     1      32.554 -22.649 -18.177  0.00  0.00    +0.033 C 
ATOM     18  C   UNL     1      34.970 -22.098 -18.635  0.00  0.00    +0.154 C 
ATOM     19  C   UNL     1      33.161 -23.747 -17.314  0.00  0.00    +0.052 C 
ATOM     20  C   UNL     1      35.918 -21.458 -19.421  0.00  0.00    +0.135 C 
ATOM     21  C   UNL     1      34.416 -23.217 -16.637  0.00  0.00    +0.206 C 
ENDBRANCH  11  14
ENDBRANCH   8  11
ENDBRANCH   2   8
BRANCH   1  22
ATOM     22  C   UNL     1      34.387 -13.765 -22.846  0.00  0.00    -0.055 C 
BRANCH  22  28
ATOM     23  O   UNL     1      31.545 -13.650 -20.995  0.00  0.00    -0.273 OA
ATOM     24  O   UNL     1      33.945  -9.499 -25.986  0.00  0.00    -0.270 OA
ATOM     25  N   UNL     1      32.423 -12.259 -22.652  0.00  0.00    -0.261 N 
ATOM     26  N   UNL     1      33.169 -10.868 -24.280  0.00  0.00    -0.255 N 
ATOM     27  N   UNL     1      31.165 -10.129 -21.331  0.00  0.00    -0.262 NA
ATOM     28  C   UNL     1      33.188 -13.144 -23.553  0.00  0.00    +0.076 C 
ATOM     29  C   UNL     1      33.623 -12.200 -24.706  0.00  0.00    +0.113 C 
ATOM     30  C   UNL     1      32.473 -10.985 -23.115  0.00  0.00    +0.196 C 
ATOM     31  C   UNL     1      31.881  -9.972 -22.490  0.00  0.00    +0.092 C 
ATOM     32  C   UNL     1      31.713 -12.561 -21.519  0.00  0.00    +0.252 C 
ATOM     33  C   UNL     1      33.338  -9.661 -24.930  0.00  0.00    +0.251 C 
ATOM     34  C   UNL     1      32.010  -8.661 -23.086  0.00  0.00    +0.022 C 
ATOM     35  C   UNL     1      31.078 -11.342 -20.869  0.00  0.00    +0.210 C 
ATOM     36  C   UNL     1      32.694  -8.489 -24.233  0.00  0.00    +0.059 C 
ENDBRANCH  22  28
ENDBRANCH   1  22
TORSDOF 5
ENDMDL
MODEL 3
REMARK VINA RESULT:     -12.1      3.703     12.550
REMARK  Name = 25101874
REMARK  5 active torsions:
REMARK  status: ('A' for Active; 'I' for Inactive)
REMARK    1  A    between atoms: N_1  and  C_22
REMARK    2  A    between atoms: C_2  and  N_8
REMARK    3  A    between atoms: N_8  and  C_11
REMARK    4  A    between atoms: C_11  and  C_14
REMARK    5  A    between atoms: C_22  and  C_28
REMARK                            x       y       z     vdW  Elec       q    Type
REMARK                         _______ _______ _______ _____ _____    ______ ____
ROOT
ATOM      1  N   UNL     1      33.428 -14.768 -24.121  0.00  0.00    +0.388 N 
ATOM      2  C   UNL     1      35.282 -16.994 -23.708  0.00  0.00    -0.066 C 
ATOM      3  C   UNL     1      34.513 -14.660 -23.136  0.00  0.00    -0.079 C 
ATOM      4  C   UNL     1      33.813 -15.634 -25.245  0.00  0.00    -0.079 C 
ATOM      5  C   UNL     1      34.893 -16.035 -22.580  0.00  0.00    -0.044 C 
ATOM      6  C   UNL     1      34.170 -17.042 -24.759  0.00  0.00    -0.044 C 
ATOM      7  H   UNL     1      32.626 -15.193 -23.658  0.00  0.00    -0.080 HD
ENDROOT
BRANCH   2   8
ATOM      8  N   UNL     1      35.549 -18.326 -23.169  0.00  0.00    +0.389 N 
ATOM      9  H   UNL     1      36.232 -18.251 -22.415  0.00  0.00    -0.084 HD
ATOM     10  H   UNL     1      35.911 -18.915 -23.919  0.00  0.00    -0.084 HD
BRANCH   8  11
ATOM     11  C   UNL     1      34.329 -18.928 -22.651  0.00  0.00    -0.034 C 
BRANCH  11  14
ATOM     12  O   UNL     1      35.570 -22.420 -18.462  0.00  0.00    -0.474 OA
ATOM     13  N   UNL     1      35.910 -20.098 -21.221  0.00  0.00    -0.247 NA
ATOM     14  C   UNL     1      34.610 -19.879 -21.518  0.00  0.00    +0.037 C 
ATOM     15  C   UNL     1      33.550 -20.473 -20.852  0.00  0.00    +0.011 C 
ATOM     16  C   UNL     1      33.835 -21.356 -19.809  0.00  0.00    +0.015 C 
ATOM     17  C   UNL     1      32.721 -22.025 -19.057  0.00  0.00    +0.033 C 
ATOM     18  C   UNL     1      35.169 -21.582 -19.463  0.00  0.00    +0.154 C 
ATOM     19  C   UNL     1      33.258 -23.210 -18.265  0.00  0.00    +0.052 C 
ATOM     20  C   UNL     1      36.158 -20.947 -20.200  0.00  0.00    +0.135 C 
ATOM     21  C   UNL     1      34.534 -22.798 -17.547  0.00  0.00    +0.206 C 
ENDBRANCH  11  14
ENDBRANCH   8  11
ENDBRANCH   2   8
BRANCH   1  22
ATOM     22  C   UNL     1      33.043 -13.443 -24.605  0.00  0.00    -0.055 C 
BRANCH  22  28
ATOM     23  O   UNL     1      35.180 -11.244 -26.061  0.00  0.00    -0.273 OA
ATOM     24  O   UNL     1      30.634 -10.496 -20.896  0.00  0.00    -0.270 OA
ATOM     25  N   UNL     1      33.599 -11.037 -24.354  0.00  0.00    -0.261 N 
ATOM     26  N   UNL     1      32.122 -10.742 -22.660  0.00  0.00    -0.255 N 
ATOM     27  N   UNL     1      33.226  -8.393 -25.214  0.00  0.00    -0.262 NA
ATOM     28  C   UNL     1      33.564 -12.350 -23.680  0.00  0.00    +0.076 C 
ATOM     29  C   UNL     1      32.615 -12.114 -22.474  0.00  0.00    +0.113 C 
ATOM     30  C   UNL     1      32.745 -10.184 -23.735  0.00  0.00    +0.196 C 
ATOM     31  C   UNL     1      32.562  -8.931 -24.142  0.00  0.00    +0.092 C 
ATOM     32  C   UNL     1      34.351 -10.617 -25.421  0.00  0.00    +0.252 C 
ATOM     33  C   UNL     1      31.216 -10.049 -21.880  0.00  0.00    +0.251 C 
ATOM     34  C   UNL     1      31.622  -8.124 -23.396  0.00  0.00    +0.022 C 
ATOM     35  C   UNL     1      34.071  -9.177 -25.819  0.00  0.00    +0.210 C 
ATOM     36  C   UNL     1      30.973  -8.629 -22.330  0.00  0.00    +0.059 C 
ENDBRANCH  22  28
ENDBRANCH   1  22
TORSDOF 5
ENDMDL
MODEL 4
REMARK VINA RESULT:     -11.9      1.288      1.855
REMARK  Name = 25101874
REMARK  5 active torsions:
REMARK  status: ('A' for Active; 'I' for Inactive)
REMARK    1  A    between atoms: N_1  and  C_22
REMARK    2  A    between atoms: C_2  and  N_8
REMARK    3  A    between atoms: N_8  and  C_11
REMARK    4  A    between atoms: C_11  and  C_14
REMARK    5  A    between atoms: C_22  and  C_28
REMARK                            x       y       z     vdW  Elec       q    Type
REMARK                         _______ _______ _______ _____ _____    ______ ____
ROOT
ATOM      1  N   UNL     1      34.659 -21.742 -18.848  0.00  0.00    +0.388 N 
ATOM      2  C   UNL     1      34.540 -20.460 -21.476  0.00  0.00    -0.066 C 
ATOM      3  C   UNL     1      33.426 -21.794 -19.646  0.00  0.00    -0.079 C 
ATOM      4  C   UNL     1      35.850 -21.697 -19.709  0.00  0.00    -0.079 C 
ATOM      5  C   UNL     1      33.313 -20.576 -20.568  0.00  0.00    -0.044 C 
ATOM      6  C   UNL     1      35.817 -20.477 -20.632  0.00  0.00    -0.044 C 
ATOM      7  H   UNL     1      34.639 -20.885 -18.296  0.00  0.00    -0.080 HD
ENDROOT
BRANCH   2   8
ATOM      8  N   UNL     1      34.460 -19.243 -22.279  0.00  0.00    +0.389 N 
ATOM      9  H   UNL     1      33.487 -18.943 -22.338  0.00  0.00    -0.084 HD
ATOM     10  H   UNL     1      34.827 -19.441 -23.210  0.00  0.00    -0.084 HD
BRANCH   8  11
ATOM     11  C   UNL     1      35.253 -18.177 -21.684  0.00  0.00    -0.034 C 
BRANCH  11  14
ATOM     12  O   UNL     1      33.692 -13.061 -23.321  0.00  0.00    -0.474 OA
ATOM     13  N   UNL     1      34.677 -15.857 -21.238  0.00  0.00    -0.247 NA
ATOM     14  C   UNL     1      34.827 -16.819 -22.175  0.00  0.00    +0.037 C 
ATOM     15  C   UNL     1      34.614 -16.624 -23.531  0.00  0.00    +0.011 C 
ATOM     16  C   UNL     1      34.214 -15.358 -23.962  0.00  0.00    +0.015 C 
ATOM     17  C   UNL     1      33.969 -15.097 -25.420  0.00  0.00    +0.033 C 
ATOM     18  C   UNL     1      34.074 -14.338 -23.019  0.00  0.00    +0.154 C 
ATOM     19  C   UNL     1      33.178 -13.807 -25.598  0.00  0.00    +0.052 C 
ATOM     20  C   UNL     1      34.301 -14.638 -21.684  0.00  0.00    +0.135 C 
ATOM     21  C   UNL     1      33.775 -12.725 -24.711  0.00  0.00    +0.206 C 
ENDBRANCH  11  14
ENDBRANCH   8  11
ENDBRANCH   2   8
BRANCH   1  22
ATOM     22  C   UNL     1      34.727 -22.885 -17.937  0.00  0.00    -0.055 C 
BRANCH  22  28
ATOM     23  O   UNL     1      32.432 -22.749 -15.441  0.00  0.00    -0.273 OA
ATOM     24  O   UNL     1      39.198 -24.209 -15.385  0.00  0.00    -0.270 OA
ATOM     25  N   UNL     1      34.706 -23.278 -15.487  0.00  0.00    -0.261 N 
ATOM     26  N   UNL     1      36.920 -23.765 -15.418  0.00  0.00    -0.255 N 
ATOM     27  N   UNL     1      34.200 -25.021 -13.348  0.00  0.00    -0.262 NA
ATOM     28  C   UNL     1      35.282 -22.470 -16.580  0.00  0.00    +0.076 C 
ATOM     29  C   UNL     1      36.807 -22.746 -16.471  0.00  0.00    +0.113 C 
ATOM     30  C   UNL     1      35.688 -23.998 -14.888  0.00  0.00    +0.196 C 
ATOM     31  C   UNL     1      35.450 -24.829 -13.876  0.00  0.00    +0.092 C 
ATOM     32  C   UNL     1      33.414 -23.351 -15.035  0.00  0.00    +0.252 C 
ATOM     33  C   UNL     1      38.062 -24.388 -14.954  0.00  0.00    +0.251 C 
ATOM     34  C   UNL     1      36.583 -25.540 -13.325  0.00  0.00    +0.022 C 
ATOM     35  C   UNL     1      33.237 -24.328 -13.885  0.00  0.00    +0.210 C 
ATOM     36  C   UNL     1      37.822 -25.352 -13.818  0.00  0.00    +0.059 C 
ENDBRANCH  22  28
ENDBRANCH   1  22
TORSDOF 5
ENDMDL
MODEL 5
REMARK VINA RESULT:     -11.7      1.363      3.180
REMARK  Name = 25101874
REMARK  5 active torsions:
REMARK  status: ('A' for Active; 'I' for Inactive)
REMARK    1  A    between atoms: N_1  and  C_22
REMARK    2  A    between atoms: C_2  and  N_8
REMARK    3  A    between atoms: N_8  and  C_11
REMARK    4  A    between atoms: C_11  and  C_14
REMARK    5  A    between atoms: C_22  and  C_28
REMARK                            x       y       z     vdW  Elec       q    Type
REMARK                         _______ _______ _______ _____ _____    ______ ____
ROOT
ATOM      1  N   UNL     1      34.644 -21.931 -19.298  0.00  0.00    +0.388 N 
ATOM      2  C   UNL     1      34.347 -19.867 -21.351  0.00  0.00    -0.066 C 
ATOM      3  C   UNL     1      35.796 -21.115 -19.706  0.00  0.00    -0.079 C 
ATOM      4  C   UNL     1      33.388 -21.176 -19.418  0.00  0.00    -0.079 C 
ATOM      5  C   UNL     1      35.652 -20.641 -21.155  0.00  0.00    -0.044 C 
ATOM      6  C   UNL     1      33.164 -20.704 -20.857  0.00  0.00    -0.044 C 
ATOM      7  H   UNL     1      34.589 -22.732 -19.925  0.00  0.00    -0.080 HD
ENDROOT
BRANCH   2   8
ATOM      8  N   UNL     1      34.179 -19.505 -22.756  0.00  0.00    +0.389 N 
ATOM      9  H   UNL     1      33.306 -18.990 -22.868  0.00  0.00    -0.084 HD
ATOM     10  H   UNL     1      34.161 -20.360 -23.314  0.00  0.00    -0.084 HD
BRANCH   8  11
ATOM     11  C   UNL     1      35.285 -18.676 -23.212  0.00  0.00    -0.034 C 
BRANCH  11  14
ATOM     12  O   UNL     1      33.932 -13.248 -23.244  0.00  0.00    -0.474 OA
ATOM     13  N   UNL     1      34.978 -16.528 -22.115  0.00  0.00    -0.247 NA
ATOM     14  C   UNL     1      34.906 -17.220 -23.273  0.00  0.00    +0.037 C 
ATOM     15  C   UNL     1      34.510 -16.672 -24.483  0.00  0.00    +0.011 C 
ATOM     16  C   UNL     1      34.158 -15.321 -24.514  0.00  0.00    +0.015 C 
ATOM     17  C   UNL     1      33.721 -14.681 -25.799  0.00  0.00    +0.033 C 
ATOM     18  C   UNL     1      34.246 -14.575 -23.337  0.00  0.00    +0.154 C 
ATOM     19  C   UNL     1      33.024 -13.357 -25.518  0.00  0.00    +0.052 C 
ATOM     20  C   UNL     1      34.644 -15.220 -22.175  0.00  0.00    +0.135 C 
ATOM     21  C   UNL     1      33.835 -12.568 -24.501  0.00  0.00    +0.206 C 
ENDBRANCH  11  14
ENDBRANCH   8  11
ENDBRANCH   2   8
BRANCH   1  22
ATOM     22  C   UNL     1      34.820 -22.417 -17.930  0.00  0.00    -0.055 C 
BRANCH  22  28
ATOM     23  O   UNL     1      35.995 -24.681 -15.690  0.00  0.00    -0.273 OA
ATOM     24  O   UNL     1      29.564 -22.589 -17.162  0.00  0.00    -0.270 OA
ATOM     25  N   UNL     1      33.851 -23.906 -16.196  0.00  0.00    -0.261 N 
ATOM     26  N   UNL     1      31.726 -23.251 -16.641  0.00  0.00    -0.255 N 
ATOM     27  N   UNL     1      33.213 -24.337 -13.499  0.00  0.00    -0.262 NA
ATOM     28  C   UNL     1      33.875 -23.575 -17.635  0.00  0.00    +0.076 C 
ATOM     29  C   UNL     1      32.398 -23.209 -17.947  0.00  0.00    +0.113 C 
ATOM     30  C   UNL     1      32.610 -23.680 -15.698  0.00  0.00    +0.196 C 
ATOM     31  C   UNL     1      32.304 -23.879 -14.418  0.00  0.00    +0.092 C 
ATOM     32  C   UNL     1      34.846 -24.397 -15.391  0.00  0.00    +0.252 C 
ATOM     33  C   UNL     1      30.405 -22.967 -16.352  0.00  0.00    +0.251 C 
ATOM     34  C   UNL     1      30.945 -23.599 -14.012  0.00  0.00    +0.022 C 
ATOM     35  C   UNL     1      34.409 -24.586 -13.948  0.00  0.00    +0.210 C 
ATOM     36  C   UNL     1      30.034 -23.166 -14.904  0.00  0.00    +0.059 C 
ENDBRANCH  22  28
ENDBRANCH   1  22
TORSDOF 5
ENDMDL
MODEL 6
REMARK VINA RESULT:     -11.1      2.816     12.000
REMARK  Name = 25101874
REMARK  5 active torsions:
REMARK  status: ('A' for Active; 'I' for Inactive)
REMARK    1  A    between atoms: N_1  and  C_22
REMARK    2  A    between atoms: C_2  and  N_8
REMARK    3  A    between atoms: N_8  and  C_11
REMARK    4  A    between atoms: C_11  and  C_14
REMARK    5  A    between atoms: C_22  and  C_28
REMARK                            x       y       z     vdW  Elec       q    Type
REMARK                         _______ _______ _______ _____ _____    ______ ____
ROOT
ATOM      1  N   UNL     1      34.397 -16.081 -23.012  0.00  0.00    +0.388 N 
ATOM      2  C   UNL     1      35.194 -18.855 -22.532  0.00  0.00    -0.066 C 
ATOM      3  C   UNL     1      35.002 -16.471 -21.731  0.00  0.00    -0.079 C 
ATOM      4  C   UNL     1      34.903 -16.911 -24.114  0.00  0.00    -0.079 C 
ATOM      5  C   UNL     1      34.710 -17.939 -21.406  0.00  0.00    -0.044 C 
ATOM      6  C   UNL     1      34.608 -18.393 -23.870  0.00  0.00    -0.044 C 
ATOM      7  H   UNL     1      33.391 -16.232 -22.942  0.00  0.00    -0.080 HD
ENDROOT
BRANCH   2   8
ATOM      8  N   UNL     1      34.823 -20.240 -22.251  0.00  0.00    +0.389 N 
ATOM      9  H   UNL     1      35.598 -20.705 -21.778  0.00  0.00    -0.084 HD
ATOM     10  H   UNL     1      34.613 -20.708 -23.134  0.00  0.00    -0.084 HD
BRANCH   8  11
ATOM     11  C   UNL     1      33.643 -20.298 -21.402  0.00  0.00    -0.034 C 
BRANCH  11  14
ATOM     12  O   UNL     1      34.313 -23.494 -16.861  0.00  0.00    -0.474 OA
ATOM     13  N   UNL     1      32.811 -21.829 -19.706  0.00  0.00    -0.247 NA
ATOM     14  C   UNL     1      33.874 -21.139 -20.175  0.00  0.00    +0.037 C 
ATOM     15  C   UNL     1      35.134 -21.165 -19.597  0.00  0.00    +0.011 C 
ATOM     16  C   UNL     1      35.323 -21.948 -18.457  0.00  0.00    +0.015 C 
ATOM     17  C   UNL     1      36.669 -22.008 -17.794  0.00  0.00    +0.033 C 
ATOM     18  C   UNL     1      34.249 -22.692 -17.964  0.00  0.00    +0.154 C 
ATOM     19  C   UNL     1      36.538 -22.580 -16.388  0.00  0.00    +0.052 C 
ATOM     20  C   UNL     1      33.025 -22.589 -18.609  0.00  0.00    +0.135 C 
ATOM     21  C   UNL     1      35.642 -23.809 -16.427  0.00  0.00    +0.206 C 
ENDBRANCH  11  14
ENDBRANCH   8  11
ENDBRANCH   2   8
BRANCH   1  22
ATOM     22  C   UNL     1      34.641 -14.665 -23.283  0.00  0.00    -0.055 C 
BRANCH  22  28
ATOM     23  O   UNL     1      32.036 -13.524 -21.430  0.00  0.00    -0.273 OA
ATOM     24  O   UNL     1      34.615 -11.435 -27.504  0.00  0.00    -0.270 OA
ATOM     25  N   UNL     1      32.975 -12.833 -23.454  0.00  0.00    -0.261 N 
ATOM     26  N   UNL     1      33.785 -12.110 -25.444  0.00  0.00    -0.255 N 
ATOM     27  N   UNL     1      32.205 -10.227 -22.758  0.00  0.00    -0.262 NA
ATOM     28  C   UNL     1      33.499 -14.057 -24.090  0.00  0.00    +0.076 C 
ATOM     29  C   UNL     1      33.976 -13.567 -25.484  0.00  0.00    +0.113 C 
ATOM     30  C   UNL     1      33.189 -11.769 -24.269  0.00  0.00    +0.196 C 
ATOM     31  C   UNL     1      32.829 -10.532 -23.940  0.00  0.00    +0.092 C 
ATOM     32  C   UNL     1      32.330 -12.673 -22.254  0.00  0.00    +0.252 C 
ATOM     33  C   UNL     1      34.089 -11.184 -26.423  0.00  0.00    +0.251 C 
ATOM     34  C   UNL     1      33.114  -9.485 -24.896  0.00  0.00    +0.022 C 
ATOM     35  C   UNL     1      31.964 -11.227 -21.961  0.00  0.00    +0.210 C 
ATOM     36  C   UNL     1      33.710  -9.767 -26.071  0.00  0.00    +0.059 C 
ENDBRANCH  22  28
ENDBRANCH   1  22
TORSDOF 5
ENDMDL
MODEL 7
REMARK VINA RESULT:     -11.0      1.844      2.411
REMARK  Name = 25101874
REMARK  5 active torsions:
REMARK  status: ('A' for Active; 'I' for Inactive)
REMARK    1  A    between atoms: N_1  and  C_22
REMARK    2  A    between atoms: C_2  and  N_8
REMARK    3  A    between atoms: N_8  and  C_11
REMARK    4  A    between atoms: C_11  and  C_14
REMARK    5  A    between atoms: C_22  and  C_28
REMARK                            x       y       z     vdW  Elec       q    Type
REMARK                         _______ _______ _______ _____ _____    ______ ____
ROOT
ATOM      1  N   UNL     1      35.256 -21.156 -19.481  0.00  0.00    +0.388 N 
ATOM      2  C   UNL     1      35.032 -19.521 -21.897  0.00  0.00    -0.066 C 
ATOM      3  C   UNL     1      34.039 -21.206 -20.303  0.00  0.00    -0.079 C 
ATOM      4  C   UNL     1      36.442 -20.875 -20.301  0.00  0.00    -0.079 C 
ATOM      5  C   UNL     1      33.816 -19.883 -21.040  0.00  0.00    -0.044 C 
ATOM      6  C   UNL     1      36.299 -19.541 -21.038  0.00  0.00    -0.044 C 
ATOM      7  H   UNL     1      35.150 -20.395 -18.811  0.00  0.00    -0.080 HD
ENDROOT
BRANCH   2   8
ATOM      8  N   UNL     1      34.841 -18.211 -22.516  0.00  0.00    +0.389 N 
ATOM      9  H   UNL     1      33.855 -18.091 -22.747  0.00  0.00    -0.084 HD
ATOM     10  H   UNL     1      35.412 -18.164 -23.361  0.00  0.00    -0.084 HD
BRANCH   8  11
ATOM     11  C   UNL     1      35.254 -17.147 -21.614  0.00  0.00    -0.034 C 
BRANCH  11  14
ATOM     12  O   UNL     1      32.895 -12.284 -23.053  0.00  0.00    -0.474 OA
ATOM     13  N   UNL     1      34.936 -15.276 -23.133  0.00  0.00    -0.247 NA
ATOM     14  C   UNL     1      34.595 -15.836 -21.953  0.00  0.00    +0.037 C 
ATOM     15  C   UNL     1      33.692 -15.280 -21.059  0.00  0.00    +0.011 C 
ATOM     16  C   UNL     1      33.098 -14.061 -21.392  0.00  0.00    +0.015 C 
ATOM     17  C   UNL     1      32.115 -13.417 -20.457  0.00  0.00    +0.033 C 
ATOM     18  C   UNL     1      33.413 -13.470 -22.617  0.00  0.00    +0.154 C 
ATOM     19  C   UNL     1      31.916 -11.954 -20.830  0.00  0.00    +0.052 C 
ATOM     20  C   UNL     1      34.337 -14.103 -23.437  0.00  0.00    +0.135 C 
ATOM     21  C   UNL     1      31.737 -11.838 -22.336  0.00  0.00    +0.206 C 
ENDBRANCH  11  14
ENDBRANCH   8  11
ENDBRANCH   2   8
BRANCH   1  22
ATOM     22  C   UNL     1      35.427 -22.409 -18.745  0.00  0.00    -0.055 C 
BRANCH  22  28
ATOM     23  O   UNL     1      32.618 -22.480 -16.842  0.00  0.00    -0.273 OA
ATOM     24  O   UNL     1      39.194 -24.073 -15.383  0.00  0.00    -0.270 OA
ATOM     25  N   UNL     1      34.843 -23.047 -16.418  0.00  0.00    -0.261 N 
ATOM     26  N   UNL     1      36.983 -23.583 -15.893  0.00  0.00    -0.255 N 
ATOM     27  N   UNL     1      33.864 -24.986 -14.644  0.00  0.00    -0.262 NA
ATOM     28  C   UNL     1      35.653 -22.144 -17.261  0.00  0.00    +0.076 C 
ATOM     29  C   UNL     1      37.112 -22.461 -16.834  0.00  0.00    +0.113 C 
ATOM     30  C   UNL     1      35.663 -23.844 -15.687  0.00  0.00    +0.196 C 
ATOM     31  C   UNL     1      35.202 -24.767 -14.848  0.00  0.00    +0.092 C 
ATOM     32  C   UNL     1      33.482 -23.139 -16.286  0.00  0.00    +0.252 C 
ATOM     33  C   UNL     1      37.990 -24.272 -15.245  0.00  0.00    +0.251 C 
ATOM     34  C   UNL     1      36.179 -25.553 -14.128  0.00  0.00    +0.022 C 
ATOM     35  C   UNL     1      33.048 -24.224 -15.313  0.00  0.00    +0.210 C 
ATOM     36  C   UNL     1      37.498 -25.340 -14.301  0.00  0.00    +0.059 C 
ENDBRANCH  22  28
ENDBRANCH   1  22
TORSDOF 5
ENDMDL
MODEL 8
REMARK VINA RESULT:     -11.0      1.661      2.685
REMARK  Name = 25101874
REMARK  5 active torsions:
REMARK  status: ('A' for Active; 'I' for Inactive)
REMARK    1  A    between atoms: N_1  and  C_22
REMARK    2  A    between atoms: C_2  and  N_8
REMARK    3  A    between atoms: N_8  and  C_11
REMARK    4  A    between atoms: C_11  and  C_14
REMARK    5  A    between atoms: C_22  and  C_28
REMARK                            x       y       z     vdW  Elec       q    Type
REMARK                         _______ _______ _______ _____ _____    ______ ____
ROOT
ATOM      1  N   UNL     1      35.710 -21.069 -20.949  0.00  0.00    +0.388 N 
ATOM      2  C   UNL     1      35.606 -18.251 -21.732  0.00  0.00    -0.066 C 
ATOM      3  C   UNL     1      36.749 -20.132 -20.498  0.00  0.00    -0.079 C 
ATOM      4  C   UNL     1      34.417 -20.390 -21.115  0.00  0.00    -0.079 C 
ATOM      5  C   UNL     1      36.929 -18.985 -21.496  0.00  0.00    -0.044 C 
ATOM      6  C   UNL     1      34.519 -19.252 -22.134  0.00  0.00    -0.044 C 
ATOM      7  H   UNL     1      35.992 -21.435 -21.857  0.00  0.00    -0.080 HD
ENDROOT
BRANCH   2   8
ATOM      8  N   UNL     1      35.774 -17.223 -22.756  0.00  0.00    +0.389 N 
ATOM      9  H   UNL     1      36.497 -17.519 -23.413  0.00  0.00    -0.084 HD
ATOM     10  H   UNL     1      36.043 -16.350 -22.302  0.00  0.00    -0.084 HD
BRANCH   8  11
ATOM     11  C   UNL     1      34.531 -17.007 -23.481  0.00  0.00    -0.034 C 
BRANCH  11  14
ATOM     12  O   UNL     1      33.741 -11.554 -24.445  0.00  0.00    -0.474 OA
ATOM     13  N   UNL     1      34.334 -14.698 -22.745  0.00  0.00    -0.247 NA
ATOM     14  C   UNL     1      34.309 -15.551 -23.793  0.00  0.00    +0.037 C 
ATOM     15  C   UNL     1      34.092 -15.164 -25.106  0.00  0.00    +0.011 C 
ATOM     16  C   UNL     1      33.882 -13.809 -25.370  0.00  0.00    +0.015 C 
ATOM     17  C   UNL     1      33.642 -13.339 -26.776  0.00  0.00    +0.033 C 
ATOM     18  C   UNL     1      33.927 -12.901 -24.310  0.00  0.00    +0.154 C 
ATOM     19  C   UNL     1      33.057 -11.933 -26.769  0.00  0.00    +0.052 C 
ATOM     20  C   UNL     1      34.141 -13.391 -23.030  0.00  0.00    +0.135 C 
ATOM     21  C   UNL     1      33.838 -11.069 -25.789  0.00  0.00    +0.206 C 
ENDBRANCH  11  14
ENDBRANCH   8  11
ENDBRANCH   2   8
BRANCH   1  22
ATOM     22  C   UNL     1      35.587 -22.184 -20.011  0.00  0.00    -0.055 C 
BRANCH  22  28
ATOM     23  O   UNL     1      32.319 -21.929 -19.128  0.00  0.00    -0.273 OA
ATOM     24  O   UNL     1      37.990 -23.296 -15.403  0.00  0.00    -0.270 OA
ATOM     25  N   UNL     1      34.259 -22.430 -17.928  0.00  0.00    -0.261 N 
ATOM     26  N   UNL     1      36.088 -22.884 -16.666  0.00  0.00    -0.255 N 
ATOM     27  N   UNL     1      32.658 -24.049 -16.290  0.00  0.00    -0.262 NA
ATOM     28  C   UNL     1      35.345 -21.682 -18.593  0.00  0.00    +0.076 C 
ATOM     29  C   UNL     1      36.572 -21.932 -17.675  0.00  0.00    +0.113 C 
ATOM     30  C   UNL     1      34.757 -23.101 -16.859  0.00  0.00    +0.196 C 
ATOM     31  C   UNL     1      34.002 -23.873 -16.082  0.00  0.00    +0.092 C 
ATOM     32  C   UNL     1      32.923 -22.493 -18.229  0.00  0.00    +0.252 C 
ATOM     33  C   UNL     1      36.796 -23.464 -15.631  0.00  0.00    +0.251 C 
ATOM     34  C   UNL     1      34.654 -24.535 -14.974  0.00  0.00    +0.022 C 
ATOM     35  C   UNL     1      32.142 -23.401 -17.294  0.00  0.00    +0.210 C 
ATOM     36  C   UNL     1      35.969 -24.361 -14.744  0.00  0.00    +0.059 C 
ENDBRANCH  22  28
ENDBRANCH   1  22
TORSDOF 5
ENDMDL
MODEL 9
REMARK VINA RESULT:     -11.0      4.039     12.497
REMARK  Name = 25101874
REMARK  5 active torsions:
REMARK  status: ('A' for Active; 'I' for Inactive)
REMARK    1  A    between atoms: N_1  and  C_22
REMARK    2  A    between atoms: C_2  and  N_8
REMARK    3  A    between atoms: N_8  and  C_11
REMARK    4  A    between atoms: C_11  and  C_14
REMARK    5  A    between atoms: C_22  and  C_28
REMARK                            x       y       z     vdW  Elec       q    Type
REMARK                         _______ _______ _______ _____ _____    ______ ____
ROOT
ATOM      1  N   UNL     1      34.137 -13.986 -22.908  0.00  0.00    +0.388 N 
ATOM      2  C   UNL     1      34.377 -16.867 -23.364  0.00  0.00    -0.066 C 
ATOM      3  C   UNL     1      33.399 -14.631 -24.003  0.00  0.00    -0.079 C 
ATOM      4  C   UNL     1      34.320 -14.906 -21.776  0.00  0.00    -0.079 C 
ATOM      5  C   UNL     1      34.133 -15.877 -24.506  0.00  0.00    -0.044 C 
ATOM      6  C   UNL     1      35.085 -16.161 -22.204  0.00  0.00    -0.044 C 
ATOM      7  H   UNL     1      35.059 -13.732 -23.259  0.00  0.00    -0.080 HD
ENDROOT
BRANCH   2   8
ATOM      8  N   UNL     1      35.161 -18.004 -23.839  0.00  0.00    +0.389 N 
ATOM      9  H   UNL     1      35.767 -17.698 -24.600  0.00  0.00    -0.084 HD
ATOM     10  H   UNL     1      34.520 -18.729 -24.165  0.00  0.00    -0.084 HD
BRANCH   8  11
ATOM     11  C   UNL     1      35.978 -18.553 -22.768  0.00  0.00    -0.034 C 
BRANCH  11  14
ATOM     12  O   UNL     1      32.859 -21.847 -19.496  0.00  0.00    -0.474 OA
ATOM     13  N   UNL     1      33.842 -19.437 -22.016  0.00  0.00    -0.247 NA
ATOM     14  C   UNL     1      35.184 -19.454 -21.860  0.00  0.00    +0.037 C 
ATOM     15  C   UNL     1      35.849 -20.238 -20.930  0.00  0.00    +0.011 C 
ATOM     16  C   UNL     1      35.091 -21.060 -20.095  0.00  0.00    +0.015 C 
ATOM     17  C   UNL     1      35.764 -21.927 -19.071  0.00  0.00    +0.033 C 
ATOM     18  C   UNL     1      33.703 -21.082 -20.250  0.00  0.00    +0.154 C 
ATOM     19  C   UNL     1      34.750 -22.411 -18.043  0.00  0.00    +0.052 C 
ATOM     20  C   UNL     1      33.132 -20.252 -21.204  0.00  0.00    +0.135 C 
ATOM     21  C   UNL     1      33.499 -22.896 -18.760  0.00  0.00    +0.206 C 
ENDBRANCH  11  14
ENDBRANCH   8  11
ENDBRANCH   2   8
BRANCH   1  22
ATOM     22  C   UNL     1      33.449 -12.771 -22.474  0.00  0.00    -0.055 C 
BRANCH  22  28
ATOM     23  O   UNL     1      30.681 -10.875 -21.963  0.00  0.00    -0.273 OA
ATOM     24  O   UNL     1      36.243  -9.894 -25.963  0.00  0.00    -0.270 OA
ATOM     25  N   UNL     1      32.600 -10.574 -23.259  0.00  0.00    -0.261 N 
ATOM     26  N   UNL     1      34.403 -10.207 -24.583  0.00  0.00    -0.255 N 
ATOM     27  N   UNL     1      32.305  -7.823 -22.803  0.00  0.00    -0.262 NA
ATOM     28  C   UNL     1      33.020 -11.928 -23.670  0.00  0.00    +0.076 C 
ATOM     29  C   UNL     1      34.202 -11.662 -24.641  0.00  0.00    +0.113 C 
ATOM     30  C   UNL     1      33.439  -9.654 -23.797  0.00  0.00    +0.196 C 
ATOM     31  C   UNL     1      33.304  -8.349 -23.580  0.00  0.00    +0.092 C 
ATOM     32  C   UNL     1      31.536 -10.181 -22.488  0.00  0.00    +0.252 C 
ATOM     33  C   UNL     1      35.359  -9.452 -25.235  0.00  0.00    +0.251 C 
ATOM     34  C   UNL     1      34.266  -7.471 -24.211  0.00  0.00    +0.022 C 
ATOM     35  C   UNL     1      31.467  -8.676 -22.288  0.00  0.00    +0.210 C 
ATOM     36  C   UNL     1      35.244  -7.968 -24.992  0.00  0.00    +0.059 C 
ENDBRANCH  22  28
ENDBRANCH   1  22
TORSDOF 5
ENDMDL
