MODEL 1
REMARK VINA RESULT:     -12.0      0.000      0.000
REMARK  Name = 25151352
REMARK  5 active torsions:
REMARK  status: ('A' for Active; 'I' for Inactive)
REMARK    1  A    between atoms: N_1  and  C_21
REMARK    2  A    between atoms: C_3  and  C_9
REMARK    3  A    between atoms: C_9  and  C_13
REMARK    4  A    between atoms: C_21  and  C_23
REMARK    5  A    between atoms: C_27  and  C_31
REMARK                            x       y       z     vdW  Elec       q    Type
REMARK                         _______ _______ _______ _____ _____    ______ ____
ROOT
ATOM      1  N   UNL     1      32.947 -22.304 -18.999  0.00  0.00    -0.314 N 
ATOM      2  N   UNL     1      32.949 -20.531 -20.592  0.00  0.00    -0.230 NA
ATOM      3  C   UNL     1      35.055 -19.631 -21.366  0.00  0.00    +0.002 C 
ATOM      4  C   UNL     1      35.744 -20.525 -20.552  0.00  0.00    +0.000 C 
ATOM      5  C   UNL     1      33.671 -19.675 -21.350  0.00  0.00    +0.096 C 
ATOM      6  C   UNL     1      33.653 -21.383 -19.814  0.00  0.00    +0.129 C 
ATOM      7  C   UNL     1      35.037 -21.420 -19.758  0.00  0.00    +0.034 C 
ATOM      8  H   UNL     1      31.963 -22.296 -19.022  0.00  0.00    +0.149 HD
ENDROOT
BRANCH   3   9
ATOM      9  C   UNL     1      35.801 -18.640 -22.247  0.00  0.00    +0.056 C 
BRANCH   9  13
ATOM     10 CL   UNL     1      34.194 -12.997 -23.170  0.00  0.00    -0.081 Cl
ATOM     11  N   UNL     1      34.021 -18.306 -25.425  0.00  0.00    -0.297 N 
ATOM     12  N   UNL     1      33.416 -15.991 -25.703  0.00  0.00    -0.228 NA
ATOM     13  C   UNL     1      35.066 -18.230 -23.462  0.00  0.00    -0.000 C 
ATOM     14  C   UNL     1      34.632 -16.918 -23.786  0.00  0.00    +0.030 C 
ATOM     15  C   UNL     1      33.986 -16.999 -25.016  0.00  0.00    +0.132 C 
ATOM     16  C   UNL     1      34.676 -19.064 -24.488  0.00  0.00    +0.059 C 
ATOM     17  C   UNL     1      34.711 -15.654 -23.179  0.00  0.00    +0.015 C 
ATOM     18  C   UNL     1      34.138 -14.574 -23.849  0.00  0.00    +0.077 C 
ATOM     19  C   UNL     1      33.521 -14.798 -25.072  0.00  0.00    +0.112 C 
ATOM     20  H   UNL     1      33.637 -18.649 -26.263  0.00  0.00    +0.154 HD
ENDBRANCH   9  13
ENDBRANCH   3   9
BRANCH   1  21
ATOM     21  C   UNL     1      33.605 -23.239 -18.147  0.00  0.00    +0.117 C 
BRANCH  21  23
ATOM     22  N   UNL     1      32.546 -24.522 -14.749  0.00  0.00    -0.240 NA
ATOM     23  C   UNL     1      32.739 -23.573 -16.964  0.00  0.00    +0.017 C 
ATOM     24  C   UNL     1      31.382 -23.268 -16.960  0.00  0.00    +0.000 C 
ATOM     25  C   UNL     1      33.268 -24.194 -15.844  0.00  0.00    +0.096 C 
ATOM     26  C   UNL     1      30.607 -23.590 -15.851  0.00  0.00    +0.023 C 
ATOM     27  C   UNL     1      31.231 -24.210 -14.781  0.00  0.00    +0.153 C 
BRANCH  27  31
ATOM     28  F   UNL     1      30.952 -25.610 -12.861  0.00  0.00    -0.164 F 
ATOM     29  F   UNL     1      30.305 -23.548 -12.677  0.00  0.00    -0.164 F 
ATOM     30  F   UNL     1      29.153 -24.942 -13.885  0.00  0.00    -0.164 F 
ATOM     31  C   UNL     1      30.429 -24.569 -13.574  0.00  0.00    +0.435 C 
ENDBRANCH  27  31
ENDBRANCH  21  23
ENDBRANCH   1  21
TORSDOF 5
ENDMDL
MODEL 2
REMARK VINA RESULT:     -11.9      3.697      6.371
REMARK  Name = 25151352
REMARK  5 active torsions:
REMARK  status: ('A' for Active; 'I' for Inactive)
REMARK    1  A    between atoms: N_1  and  C_21
REMARK    2  A    between atoms: C_3  and  C_9
REMARK    3  A    between atoms: C_9  and  C_13
REMARK    4  A    between atoms: C_21  and  C_23
REMARK    5  A    between atoms: C_27  and  C_31
REMARK                            x       y       z     vdW  Elec       q    Type
REMARK                         _______ _______ _______ _____ _____    ______ ____
ROOT
ATOM      1  N   UNL     1      35.634 -18.218 -23.422  0.00  0.00    -0.314 N 
ATOM      2  N   UNL     1      34.343 -16.902 -24.933  0.00  0.00    -0.230 NA
ATOM      3  C   UNL     1      33.660 -14.675 -24.284  0.00  0.00    +0.002 C 
ATOM      4  C   UNL     1      34.302 -14.827 -23.060  0.00  0.00    +0.000 C 
ATOM      5  C   UNL     1      33.710 -15.732 -25.178  0.00  0.00    +0.096 C 
ATOM      6  C   UNL     1      34.954 -17.013 -23.732  0.00  0.00    +0.129 C 
ATOM      7  C   UNL     1      34.963 -16.015 -22.770  0.00  0.00    +0.034 C 
ATOM      8  H   UNL     1      35.641 -18.940 -24.090  0.00  0.00    +0.149 HD
ENDROOT
BRANCH   3   9
ATOM      9  C   UNL     1      32.929 -13.387 -24.631  0.00  0.00    +0.056 C 
BRANCH   9  13
ATOM     10 CL   UNL     1      34.784  -7.872 -23.437  0.00  0.00    -0.081 Cl
ATOM     11  N   UNL     1      34.508 -11.889 -27.570  0.00  0.00    -0.297 N 
ATOM     12  N   UNL     1      35.222  -9.665 -26.984  0.00  0.00    -0.228 NA
ATOM     13  C   UNL     1      33.604 -12.557 -25.650  0.00  0.00    -0.000 C 
ATOM     14  C   UNL     1      34.087 -11.233 -25.478  0.00  0.00    +0.030 C 
ATOM     15  C   UNL     1      34.645 -10.846 -26.693  0.00  0.00    +0.132 C 
ATOM     16  C   UNL     1      33.877 -12.935 -26.947  0.00  0.00    +0.059 C 
ATOM     17  C   UNL     1      34.119 -10.302 -24.426  0.00  0.00    +0.015 C 
ATOM     18  C   UNL     1      34.706  -9.062 -24.673  0.00  0.00    +0.077 C 
ATOM     19  C   UNL     1      35.225  -8.808 -25.935  0.00  0.00    +0.112 C 
ATOM     20  H   UNL     1      34.817 -11.889 -28.504  0.00  0.00    +0.154 HD
ENDBRANCH   9  13
ENDBRANCH   3   9
BRANCH   1  21
ATOM     21  C   UNL     1      36.307 -18.424 -22.182  0.00  0.00    +0.117 C 
BRANCH  21  23
ATOM     22  N   UNL     1      35.741 -21.322 -19.816  0.00  0.00    -0.240 NA
ATOM     23  C   UNL     1      35.602 -19.475 -21.369  0.00  0.00    +0.017 C 
ATOM     24  C   UNL     1      34.216 -19.592 -21.396  0.00  0.00    +0.000 C 
ATOM     25  C   UNL     1      36.312 -20.356 -20.570  0.00  0.00    +0.096 C 
ATOM     26  C   UNL     1      33.593 -20.574 -20.634  0.00  0.00    +0.023 C 
ATOM     27  C   UNL     1      34.393 -21.406 -19.867  0.00  0.00    +0.153 C 
BRANCH  27  31
ATOM     28  F   UNL     1      34.408 -22.708 -17.861  0.00  0.00    -0.164 F 
ATOM     29  F   UNL     1      32.469 -22.189 -18.680  0.00  0.00    -0.164 F 
ATOM     30  F   UNL     1      33.705 -23.674 -19.677  0.00  0.00    -0.164 F 
ATOM     31  C   UNL     1      33.757 -22.470 -19.037  0.00  0.00    +0.435 C 
ENDBRANCH  27  31
ENDBRANCH  21  23
ENDBRANCH   1  21
TORSDOF 5
ENDMDL
MODEL 3
REMARK VINA RESULT:     -11.6      3.101      5.232
REMARK  Name = 25151352
REMARK  5 active torsions:
REMARK  status: ('A' for Active; 'I' for Inactive)
REMARK    1  A    between atoms: N_1  and  C_21
REMARK    2  A    between atoms: C_3  and  C_9
REMARK    3  A    between atoms: C_9  and  C_13
REMARK    4  A    between atoms: C_21  and  C_23
REMARK    5  A    between atoms: C_27  and  C_31
REMARK                            x       y       z     vdW  Elec       q    Type
REMARK                         _______ _______ _______ _____ _____    ______ ____
ROOT
ATOM      1  N   UNL     1      34.807 -19.650 -22.741  0.00  0.00    -0.314 N 
ATOM      2  N   UNL     1      33.821 -18.436 -24.540  0.00  0.00    -0.230 NA
ATOM      3  C   UNL     1      34.172 -16.050 -24.698  0.00  0.00    +0.002 C 
ATOM      4  C   UNL     1      34.948 -16.081 -23.544  0.00  0.00    +0.000 C 
ATOM      5  C   UNL     1      33.636 -17.244 -25.151  0.00  0.00    +0.096 C 
ATOM      6  C   UNL     1      34.580 -18.427 -23.421  0.00  0.00    +0.129 C 
ATOM      7  C   UNL     1      35.161 -17.287 -22.888  0.00  0.00    +0.034 C 
ATOM      8  H   UNL     1      34.404 -20.472 -23.102  0.00  0.00    +0.149 HD
ENDROOT
BRANCH   3   9
ATOM      9  C   UNL     1      33.923 -14.745 -25.439  0.00  0.00    +0.056 C 
BRANCH   9  13
ATOM     10 CL   UNL     1      35.385  -9.120 -26.664  0.00  0.00    -0.081 Cl
ATOM     11  N   UNL     1      32.550 -12.475 -22.922  0.00  0.00    -0.297 N 
ATOM     12  N   UNL     1      33.196 -10.230 -23.507  0.00  0.00    -0.228 NA
ATOM     13  C   UNL     1      33.492 -13.625 -24.577  0.00  0.00    -0.000 C 
ATOM     14  C   UNL     1      33.781 -12.249 -24.771  0.00  0.00    +0.030 C 
ATOM     15  C   UNL     1      33.179 -11.559 -23.723  0.00  0.00    +0.132 C 
ATOM     16  C   UNL     1      32.733 -13.734 -23.432  0.00  0.00    +0.059 C 
ATOM     17  C   UNL     1      34.489 -11.493 -25.720  0.00  0.00    +0.015 C 
ATOM     18  C   UNL     1      34.538 -10.111 -25.545  0.00  0.00    +0.077 C 
ATOM     19  C   UNL     1      33.892  -9.553 -24.451  0.00  0.00    +0.112 C 
ATOM     20  H   UNL     1      32.042 -12.262 -22.106  0.00  0.00    +0.154 HD
ENDBRANCH   9  13
ENDBRANCH   3   9
BRANCH   1  21
ATOM     21  C   UNL     1      35.594 -19.735 -21.555  0.00  0.00    +0.117 C 
BRANCH  21  23
ATOM     22  N   UNL     1      35.208 -22.316 -18.815  0.00  0.00    -0.240 NA
ATOM     23  C   UNL     1      34.952 -20.666 -20.564  0.00  0.00    +0.017 C 
ATOM     24  C   UNL     1      33.568 -20.757 -20.457  0.00  0.00    +0.000 C 
ATOM     25  C   UNL     1      35.720 -21.460 -19.727  0.00  0.00    +0.096 C 
ATOM     26  C   UNL     1      33.004 -21.628 -19.531  0.00  0.00    +0.023 C 
ATOM     27  C   UNL     1      33.860 -22.378 -18.741  0.00  0.00    +0.153 C 
BRANCH  27  31
ATOM     28  F   UNL     1      34.066 -23.474 -16.624  0.00  0.00    -0.164 F 
ATOM     29  F   UNL     1      32.063 -22.943 -17.265  0.00  0.00    -0.164 F 
ATOM     30  F   UNL     1      33.115 -24.579 -18.237  0.00  0.00    -0.164 F 
ATOM     31  C   UNL     1      33.288 -23.321 -17.736  0.00  0.00    +0.435 C 
ENDBRANCH  27  31
ENDBRANCH  21  23
ENDBRANCH   1  21
TORSDOF 5
ENDMDL
MODEL 4
REMARK VINA RESULT:     -11.4      4.266      6.945
REMARK  Name = 25151352
REMARK  5 active torsions:
REMARK  status: ('A' for Active; 'I' for Inactive)
REMARK    1  A    between atoms: N_1  and  C_21
REMARK    2  A    between atoms: C_3  and  C_9
REMARK    3  A    between atoms: C_9  and  C_13
REMARK    4  A    between atoms: C_21  and  C_23
REMARK    5  A    between atoms: C_27  and  C_31
REMARK                            x       y       z     vdW  Elec       q    Type
REMARK                         _______ _______ _______ _____ _____    ______ ____
ROOT
ATOM      1  N   UNL     1      35.140 -16.848 -21.945  0.00  0.00    -0.314 N 
ATOM      2  N   UNL     1      34.323 -14.617 -22.127  0.00  0.00    -0.230 NA
ATOM      3  C   UNL     1      33.668 -13.763 -24.291  0.00  0.00    +0.002 C 
ATOM      4  C   UNL     1      34.000 -14.979 -24.879  0.00  0.00    +0.000 C 
ATOM      5  C   UNL     1      33.846 -13.634 -22.923  0.00  0.00    +0.096 C 
ATOM      6  C   UNL     1      34.636 -15.783 -22.734  0.00  0.00    +0.129 C 
ATOM      7  C   UNL     1      34.494 -16.013 -24.093  0.00  0.00    +0.034 C 
ATOM      8  H   UNL     1      35.250 -16.708 -20.978  0.00  0.00    +0.149 HD
ENDROOT
BRANCH   3   9
ATOM      9  C   UNL     1      33.123 -12.613 -25.125  0.00  0.00    +0.056 C 
BRANCH   9  13
ATOM     10 CL   UNL     1      31.489  -8.145 -21.569  0.00  0.00    -0.081 Cl
ATOM     11  N   UNL     1      35.490  -9.835 -25.368  0.00  0.00    -0.297 N 
ATOM     12  N   UNL     1      34.740  -8.083 -23.894  0.00  0.00    -0.228 NA
ATOM     13  C   UNL     1      33.910 -11.365 -25.032  0.00  0.00    -0.000 C 
ATOM     14  C   UNL     1      33.616 -10.238 -24.222  0.00  0.00    +0.030 C 
ATOM     15  C   UNL     1      34.620  -9.302 -24.453  0.00  0.00    +0.132 C 
ATOM     16  C   UNL     1      35.069 -11.089 -25.727  0.00  0.00    +0.059 C 
ATOM     17  C   UNL     1      32.608  -9.892 -23.307  0.00  0.00    +0.015 C 
ATOM     18  C   UNL     1      32.684  -8.640 -22.699  0.00  0.00    +0.077 C 
ATOM     19  C   UNL     1      33.743  -7.803 -23.023  0.00  0.00    +0.112 C 
ATOM     20  H   UNL     1      36.295  -9.387 -25.713  0.00  0.00    +0.154 HD
ENDBRANCH   9  13
ENDBRANCH   3   9
BRANCH   1  21
ATOM     21  C   UNL     1      35.495 -18.114 -22.499  0.00  0.00    +0.117 C 
BRANCH  21  23
ATOM     22  N   UNL     1      35.558 -20.977 -20.026  0.00  0.00    -0.240 NA
ATOM     23  C   UNL     1      35.023 -19.229 -21.609  0.00  0.00    +0.017 C 
ATOM     24  C   UNL     1      33.673 -19.557 -21.525  0.00  0.00    +0.000 C 
ATOM     25  C   UNL     1      35.916 -19.963 -20.845  0.00  0.00    +0.096 C 
ATOM     26  C   UNL     1      33.266 -20.595 -20.693  0.00  0.00    +0.023 C 
ATOM     27  C   UNL     1      34.239 -21.267 -19.971  0.00  0.00    +0.153 C 
BRANCH  27  31
ATOM     28  F   UNL     1      34.671 -22.552 -18.000  0.00  0.00    -0.164 F 
ATOM     29  F   UNL     1      32.592 -22.231 -18.528  0.00  0.00    -0.164 F 
ATOM     30  F   UNL     1      33.813 -23.592 -19.706  0.00  0.00    -0.164 F 
ATOM     31  C   UNL     1      33.837 -22.385 -19.068  0.00  0.00    +0.435 C 
ENDBRANCH  27  31
ENDBRANCH  21  23
ENDBRANCH   1  21
TORSDOF 5
ENDMDL
MODEL 5
REMARK VINA RESULT:     -11.4      8.036     12.868
REMARK  Name = 25151352
REMARK  5 active torsions:
REMARK  status: ('A' for Active; 'I' for Inactive)
REMARK    1  A    between atoms: N_1  and  C_21
REMARK    2  A    between atoms: C_3  and  C_9
REMARK    3  A    between atoms: C_9  and  C_13
REMARK    4  A    between atoms: C_21  and  C_23
REMARK    5  A    between atoms: C_27  and  C_31
REMARK                            x       y       z     vdW  Elec       q    Type
REMARK                         _______ _______ _______ _____ _____    ______ ____
ROOT
ATOM      1  N   UNL     1      34.187 -12.770 -24.027  0.00  0.00    -0.314 N 
ATOM      2  N   UNL     1      34.642 -14.695 -22.697  0.00  0.00    -0.230 NA
ATOM      3  C   UNL     1      34.444 -16.893 -23.682  0.00  0.00    +0.002 C 
ATOM      4  C   UNL     1      34.075 -16.324 -24.896  0.00  0.00    +0.000 C 
ATOM      5  C   UNL     1      34.715 -16.043 -22.623  0.00  0.00    +0.096 C 
ATOM      6  C   UNL     1      34.279 -14.178 -23.893  0.00  0.00    +0.129 C 
ATOM      7  C   UNL     1      33.988 -14.942 -25.011  0.00  0.00    +0.034 C 
ATOM      8  H   UNL     1      34.389 -12.207 -23.246  0.00  0.00    +0.149 HD
ENDROOT
BRANCH   3   9
ATOM      9  C   UNL     1      34.549 -18.403 -23.524  0.00  0.00    +0.056 C 
BRANCH   9  13
ATOM     10 CL   UNL     1      33.102 -22.276 -19.261  0.00  0.00    -0.081 Cl
ATOM     11  N   UNL     1      37.417 -19.067 -21.354  0.00  0.00    -0.297 N 
ATOM     12  N   UNL     1      36.729 -20.642 -19.666  0.00  0.00    -0.228 NA
ATOM     13  C   UNL     1      35.529 -18.844 -22.510  0.00  0.00    -0.000 C 
ATOM     14  C   UNL     1      35.296 -19.760 -21.451  0.00  0.00    +0.030 C 
ATOM     15  C   UNL     1      36.492 -19.877 -20.749  0.00  0.00    +0.132 C 
ATOM     16  C   UNL     1      36.843 -18.434 -22.425  0.00  0.00    +0.059 C 
ATOM     17  C   UNL     1      34.203 -20.514 -20.995  0.00  0.00    +0.015 C 
ATOM     18  C   UNL     1      34.392 -21.324 -19.877  0.00  0.00    +0.077 C 
ATOM     19  C   UNL     1      35.641 -21.345 -19.271  0.00  0.00    +0.112 C 
ATOM     20  H   UNL     1      38.350 -18.956 -21.063  0.00  0.00    +0.154 HD
ENDBRANCH   9  13
ENDBRANCH   3   9
BRANCH   1  21
ATOM     21  C   UNL     1      33.813 -12.137 -25.249  0.00  0.00    +0.117 C 
BRANCH  21  23
ATOM     22  N   UNL     1      33.282  -8.564 -24.123  0.00  0.00    -0.240 NA
ATOM     23  C   UNL     1      33.972 -10.646 -25.140  0.00  0.00    +0.017 C 
ATOM     24  C   UNL     1      34.910  -9.966 -25.910  0.00  0.00    +0.000 C 
ATOM     25  C   UNL     1      33.190  -9.905 -24.269  0.00  0.00    +0.096 C 
ATOM     26  C   UNL     1      35.034  -8.587 -25.788  0.00  0.00    +0.023 C 
ATOM     27  C   UNL     1      34.205  -7.938 -24.888  0.00  0.00    +0.153 C 
BRANCH  27  31
ATOM     28  F   UNL     1      35.543  -5.962 -25.049  0.00  0.00    -0.164 F 
ATOM     29  F   UNL     1      33.433  -5.761 -25.511  0.00  0.00    -0.164 F 
ATOM     30  F   UNL     1      34.070  -6.048 -23.451  0.00  0.00    -0.164 F 
ATOM     31  C   UNL     1      34.311  -6.458 -24.731  0.00  0.00    +0.435 C 
ENDBRANCH  27  31
ENDBRANCH  21  23
ENDBRANCH   1  21
TORSDOF 5
ENDMDL
MODEL 6
REMARK VINA RESULT:     -11.4      2.050      2.685
REMARK  Name = 25151352
REMARK  5 active torsions:
REMARK  status: ('A' for Active; 'I' for Inactive)
REMARK    1  A    between atoms: N_1  and  C_21
REMARK    2  A    between atoms: C_3  and  C_9
REMARK    3  A    between atoms: C_9  and  C_13
REMARK    4  A    between atoms: C_21  and  C_23
REMARK    5  A    between atoms: C_27  and  C_31
REMARK                            x       y       z     vdW  Elec       q    Type
REMARK                         _______ _______ _______ _____ _____    ______ ____
ROOT
ATOM      1  N   UNL     1      34.779 -22.017 -19.396  0.00  0.00    -0.314 N 
ATOM      2  N   UNL     1      36.169 -20.305 -20.300  0.00  0.00    -0.230 NA
ATOM      3  C   UNL     1      35.252 -18.757 -21.914  0.00  0.00    +0.002 C 
ATOM      4  C   UNL     1      34.019 -19.396 -21.837  0.00  0.00    +0.000 C 
ATOM      5  C   UNL     1      36.286 -19.246 -21.132  0.00  0.00    +0.096 C 
ATOM      6  C   UNL     1      34.957 -20.901 -20.253  0.00  0.00    +0.129 C 
ATOM      7  C   UNL     1      33.860 -20.489 -20.993  0.00  0.00    +0.034 C 
ATOM      8  H   UNL     1      35.543 -22.327 -18.861  0.00  0.00    +0.149 HD
ENDROOT
BRANCH   3   9
ATOM      9  C   UNL     1      35.456 -17.557 -22.827  0.00  0.00    +0.056 C 
BRANCH   9  13
ATOM     10 CL   UNL     1      33.396 -13.436 -26.575  0.00  0.00    -0.081 Cl
ATOM     11  N   UNL     1      34.051 -14.726 -20.989  0.00  0.00    -0.297 N 
ATOM     12  N   UNL     1      33.247 -13.118 -22.592  0.00  0.00    -0.228 NA
ATOM     13  C   UNL     1      34.834 -16.308 -22.342  0.00  0.00    -0.000 C 
ATOM     14  C   UNL     1      34.311 -15.258 -23.141  0.00  0.00    +0.030 C 
ATOM     15  C   UNL     1      33.830 -14.288 -22.268  0.00  0.00    +0.132 C 
ATOM     16  C   UNL     1      34.661 -15.952 -21.022  0.00  0.00    +0.059 C 
ATOM     17  C   UNL     1      34.184 -15.009 -24.518  0.00  0.00    +0.015 C 
ATOM     18  C   UNL     1      33.587 -13.812 -24.909  0.00  0.00    +0.077 C 
ATOM     19  C   UNL     1      33.152 -12.930 -23.929  0.00  0.00    +0.112 C 
ATOM     20  H   UNL     1      33.808 -14.235 -20.171  0.00  0.00    +0.154 HD
ENDBRANCH   9  13
ENDBRANCH   3   9
BRANCH   1  21
ATOM     21  C   UNL     1      33.536 -22.707 -19.281  0.00  0.00    +0.117 C 
BRANCH  21  23
ATOM     22  N   UNL     1      34.079 -23.556 -15.634  0.00  0.00    -0.240 NA
ATOM     23  C   UNL     1      33.245 -23.031 -17.841  0.00  0.00    +0.017 C 
ATOM     24  C   UNL     1      31.937 -23.110 -17.374  0.00  0.00    +0.000 C 
ATOM     25  C   UNL     1      34.271 -23.260 -16.939  0.00  0.00    +0.096 C 
ATOM     26  C   UNL     1      31.700 -23.412 -16.038  0.00  0.00    +0.023 C 
ATOM     27  C   UNL     1      32.795 -23.624 -15.216  0.00  0.00    +0.153 C 
BRANCH  27  31
ATOM     28  F   UNL     1      31.728 -23.087 -13.143  0.00  0.00    -0.164 F 
ATOM     29  F   UNL     1      32.043 -25.190 -13.571  0.00  0.00    -0.164 F 
ATOM     30  F   UNL     1      33.733 -23.924 -13.051  0.00  0.00    -0.164 F 
ATOM     31  C   UNL     1      32.576 -23.950 -13.776  0.00  0.00    +0.435 C 
ENDBRANCH  27  31
ENDBRANCH  21  23
ENDBRANCH   1  21
TORSDOF 5
ENDMDL
MODEL 7
REMARK VINA RESULT:     -11.3      4.186      6.729
REMARK  Name = 25151352
REMARK  5 active torsions:
REMARK  status: ('A' for Active; 'I' for Inactive)
REMARK    1  A    between atoms: N_1  and  C_21
REMARK    2  A    between atoms: C_3  and  C_9
REMARK    3  A    between atoms: C_9  and  C_13
REMARK    4  A    between atoms: C_21  and  C_23
REMARK    5  A    between atoms: C_27  and  C_31
REMARK                            x       y       z     vdW  Elec       q    Type
REMARK                         _______ _______ _______ _____ _____    ______ ____
ROOT
ATOM      1  N   UNL     1      35.686 -17.987 -23.394  0.00  0.00    -0.314 N 
ATOM      2  N   UNL     1      34.268 -16.531 -24.638  0.00  0.00    -0.230 NA
ATOM      3  C   UNL     1      33.562 -14.436 -23.659  0.00  0.00    +0.002 C 
ATOM      4  C   UNL     1      34.282 -14.725 -22.505  0.00  0.00    +0.000 C 
ATOM      5  C   UNL     1      33.587 -15.363 -24.688  0.00  0.00    +0.096 C 
ATOM      6  C   UNL     1      34.954 -16.777 -23.500  0.00  0.00    +0.129 C 
ATOM      7  C   UNL     1      34.993 -15.915 -22.415  0.00  0.00    +0.034 C 
ATOM      8  H   UNL     1      35.672 -18.614 -24.151  0.00  0.00    +0.149 HD
ENDROOT
BRANCH   3   9
ATOM      9  C   UNL     1      32.775 -13.140 -23.788  0.00  0.00    +0.056 C 
BRANCH   9  13
ATOM     10 CL   UNL     1      32.102  -7.304 -22.915  0.00  0.00    -0.081 Cl
ATOM     11  N   UNL     1      31.512 -12.474 -20.421  0.00  0.00    -0.297 N 
ATOM     12  N   UNL     1      31.275 -10.090 -20.169  0.00  0.00    -0.228 NA
ATOM     13  C   UNL     1      32.276 -12.599 -22.507  0.00  0.00    -0.000 C 
ATOM     14  C   UNL     1      32.077 -11.230 -22.187  0.00  0.00    +0.030 C 
ATOM     15  C   UNL     1      31.600 -11.187 -20.881  0.00  0.00    +0.132 C 
ATOM     16  C   UNL     1      31.920 -13.341 -21.401  0.00  0.00    +0.059 C 
ATOM     17  C   UNL     1      32.245 -10.006 -22.855  0.00  0.00    +0.015 C 
ATOM     18  C   UNL     1      31.923  -8.839 -22.165  0.00  0.00    +0.077 C 
ATOM     19  C   UNL     1      31.457  -8.941 -20.861  0.00  0.00    +0.112 C 
ATOM     20  H   UNL     1      31.202 -12.737 -19.525  0.00  0.00    +0.154 HD
ENDBRANCH   9  13
ENDBRANCH   3   9
BRANCH   1  21
ATOM     21  C   UNL     1      36.439 -18.330 -22.232  0.00  0.00    +0.117 C 
BRANCH  21  23
ATOM     22  N   UNL     1      35.812 -21.158 -19.798  0.00  0.00    -0.240 NA
ATOM     23  C   UNL     1      35.716 -19.373 -21.426  0.00  0.00    +0.017 C 
ATOM     24  C   UNL     1      34.339 -19.536 -21.534  0.00  0.00    +0.000 C 
ATOM     25  C   UNL     1      36.400 -20.202 -20.551  0.00  0.00    +0.096 C 
ATOM     26  C   UNL     1      33.698 -20.510 -20.775  0.00  0.00    +0.023 C 
ATOM     27  C   UNL     1      34.473 -21.287 -19.929  0.00  0.00    +0.153 C 
BRANCH  27  31
ATOM     28  F   UNL     1      33.744 -23.556 -19.718  0.00  0.00    -0.164 F 
ATOM     29  F   UNL     1      34.455 -22.580 -17.916  0.00  0.00    -0.164 F 
ATOM     30  F   UNL     1      32.533 -22.022 -18.766  0.00  0.00    -0.164 F 
ATOM     31  C   UNL     1      33.817 -22.340 -19.100  0.00  0.00    +0.435 C 
ENDBRANCH  27  31
ENDBRANCH  21  23
ENDBRANCH   1  21
TORSDOF 5
ENDMDL
MODEL 8
REMARK VINA RESULT:     -11.1      6.020     10.880
REMARK  Name = 25151352
REMARK  5 active torsions:
REMARK  status: ('A' for Active; 'I' for Inactive)
REMARK    1  A    between atoms: N_1  and  C_21
REMARK    2  A    between atoms: C_3  and  C_9
REMARK    3  A    between atoms: C_9  and  C_13
REMARK    4  A    between atoms: C_21  and  C_23
REMARK    5  A    between atoms: C_27  and  C_31
REMARK                            x       y       z     vdW  Elec       q    Type
REMARK                         _______ _______ _______ _____ _____    ______ ____
ROOT
ATOM      1  N   UNL     1      33.916 -19.267 -21.552  0.00  0.00    -0.314 N 
ATOM      2  N   UNL     1      32.788 -20.925 -20.264  0.00  0.00    -0.230 NA
ATOM      3  C   UNL     1      34.079 -22.563 -19.043  0.00  0.00    +0.002 C 
ATOM      4  C   UNL     1      35.258 -21.989 -19.505  0.00  0.00    +0.000 C 
ATOM      5  C   UNL     1      32.880 -21.999 -19.448  0.00  0.00    +0.096 C 
ATOM      6  C   UNL     1      33.955 -20.395 -20.694  0.00  0.00    +0.129 C 
ATOM      7  C   UNL     1      35.204 -20.884 -20.347  0.00  0.00    +0.034 C 
ATOM      8  H   UNL     1      33.040 -18.902 -21.812  0.00  0.00    +0.149 HD
ENDROOT
BRANCH   3   9
ATOM      9  C   UNL     1      34.106 -23.772 -18.120  0.00  0.00    +0.056 C 
BRANCH   9  13
ATOM     10 CL   UNL     1      28.386 -23.934 -16.529  0.00  0.00    -0.081 Cl
ATOM     11  N   UNL     1      33.729 -22.985 -14.569  0.00  0.00    -0.297 N 
ATOM     12  N   UNL     1      31.383 -23.077 -14.027  0.00  0.00    -0.228 NA
ATOM     13  C   UNL     1      33.676 -23.492 -16.734  0.00  0.00    -0.000 C 
ATOM     14  C   UNL     1      32.345 -23.501 -16.243  0.00  0.00    +0.030 C 
ATOM     15  C   UNL     1      32.412 -23.182 -14.890  0.00  0.00    +0.132 C 
ATOM     16  C   UNL     1      34.507 -23.171 -15.682  0.00  0.00    +0.059 C 
ATOM     17  C   UNL     1      31.073 -23.745 -16.787  0.00  0.00    +0.015 C 
ATOM     18  C   UNL     1      29.973 -23.650 -15.937  0.00  0.00    +0.077 C 
ATOM     19  C   UNL     1      30.184 -23.321 -14.605  0.00  0.00    +0.112 C 
ATOM     20  H   UNL     1      34.065 -22.747 -13.675  0.00  0.00    +0.154 HD
ENDBRANCH   9  13
ENDBRANCH   3   9
BRANCH   1  21
ATOM     21  C   UNL     1      35.096 -18.641 -22.054  0.00  0.00    +0.117 C 
BRANCH  21  23
ATOM     22  N   UNL     1      34.338 -15.013 -22.814  0.00  0.00    -0.240 NA
ATOM     23  C   UNL     1      34.746 -17.396 -22.820  0.00  0.00    +0.017 C 
ATOM     24  C   UNL     1      34.510 -17.440 -24.191  0.00  0.00    +0.000 C 
ATOM     25  C   UNL     1      34.649 -16.168 -22.185  0.00  0.00    +0.096 C 
ATOM     26  C   UNL     1      34.188 -16.271 -24.872  0.00  0.00    +0.023 C 
ATOM     27  C   UNL     1      34.116 -15.095 -24.145  0.00  0.00    +0.153 C 
BRANCH  27  31
ATOM     28  F   UNL     1      34.603 -12.784 -24.530  0.00  0.00    -0.164 F 
ATOM     29  F   UNL     1      33.822 -13.917 -26.207  0.00  0.00    -0.164 F 
ATOM     30  F   UNL     1      32.513 -13.385 -24.553  0.00  0.00    -0.164 F 
ATOM     31  C   UNL     1      33.773 -13.822 -24.845  0.00  0.00    +0.435 C 
ENDBRANCH  27  31
ENDBRANCH  21  23
ENDBRANCH   1  21
TORSDOF 5
ENDMDL
MODEL 9
REMARK VINA RESULT:     -10.9      3.136      4.052
REMARK  Name = 25151352
REMARK  5 active torsions:
REMARK  status: ('A' for Active; 'I' for Inactive)
REMARK    1  A    between atoms: N_1  and  C_21
REMARK    2  A    between atoms: C_3  and  C_9
REMARK    3  A    between atoms: C_9  and  C_13
REMARK    4  A    between atoms: C_21  and  C_23
REMARK    5  A    between atoms: C_27  and  C_31
REMARK                            x       y       z     vdW  Elec       q    Type
REMARK                         _______ _______ _______ _____ _____    ______ ____
ROOT
ATOM      1  N   UNL     1      36.220 -21.098 -19.565  0.00  0.00    -0.314 N 
ATOM      2  N   UNL     1      36.881 -19.295 -20.976  0.00  0.00    -0.230 NA
ATOM      3  C   UNL     1      35.273 -18.326 -22.499  0.00  0.00    +0.002 C 
ATOM      4  C   UNL     1      34.303 -19.217 -22.053  0.00  0.00    +0.000 C 
ATOM      5  C   UNL     1      36.535 -18.405 -21.934  0.00  0.00    +0.096 C 
ATOM      6  C   UNL     1      35.912 -20.145 -20.568  0.00  0.00    +0.129 C 
ATOM      7  C   UNL     1      34.620 -20.147 -21.069  0.00  0.00    +0.034 C 
ATOM      8  H   UNL     1      37.131 -21.116 -19.195  0.00  0.00    +0.149 HD
ENDROOT
BRANCH   3   9
ATOM      9  C   UNL     1      34.956 -17.296 -23.573  0.00  0.00    +0.056 C 
BRANCH   9  13
ATOM     10 CL   UNL     1      33.455 -12.832 -27.192  0.00  0.00    -0.081 Cl
ATOM     11  N   UNL     1      34.160 -14.287 -21.653  0.00  0.00    -0.297 N 
ATOM     12  N   UNL     1      33.567 -12.544 -23.205  0.00  0.00    -0.228 NA
ATOM     13  C   UNL     1      34.586 -15.964 -23.051  0.00  0.00    -0.000 C 
ATOM     14  C   UNL     1      34.213 -14.829 -23.818  0.00  0.00    +0.030 C 
ATOM     15  C   UNL     1      33.953 -13.801 -22.916  0.00  0.00    +0.132 C 
ATOM     16  C   UNL     1      34.545 -15.601 -21.722  0.00  0.00    +0.059 C 
ATOM     17  C   UNL     1      34.061 -14.544 -25.185  0.00  0.00    +0.015 C 
ATOM     18  C   UNL     1      33.662 -13.257 -25.540  0.00  0.00    +0.077 C 
ATOM     19  C   UNL     1      33.437 -12.326 -24.535  0.00  0.00    +0.112 C 
ATOM     20  H   UNL     1      34.048 -13.773 -20.821  0.00  0.00    +0.154 HD
ENDBRANCH   9  13
ENDBRANCH   3   9
BRANCH   1  21
ATOM     21  C   UNL     1      35.262 -22.033 -19.073  0.00  0.00    +0.117 C 
BRANCH  21  23
ATOM     22  N   UNL     1      34.853 -23.390 -15.565  0.00  0.00    -0.240 NA
ATOM     23  C   UNL     1      35.581 -22.416 -17.654  0.00  0.00    +0.017 C 
ATOM     24  C   UNL     1      36.838 -22.172 -17.111  0.00  0.00    +0.000 C 
ATOM     25  C   UNL     1      34.632 -23.022 -16.847  0.00  0.00    +0.096 C 
ATOM     26  C   UNL     1      37.103 -22.536 -15.795  0.00  0.00    +0.023 C 
ATOM     27  C   UNL     1      36.086 -23.137 -15.071  0.00  0.00    +0.153 C 
BRANCH  27  31
ATOM     28  F   UNL     1      36.788 -24.824 -13.527  0.00  0.00    -0.164 F 
ATOM     29  F   UNL     1      37.267 -22.769 -13.023  0.00  0.00    -0.164 F 
ATOM     30  F   UNL     1      35.213 -23.469 -12.884  0.00  0.00    -0.164 F 
ATOM     31  C   UNL     1      36.336 -23.542 -13.657  0.00  0.00    +0.435 C 
ENDBRANCH  27  31
ENDBRANCH  21  23
ENDBRANCH   1  21
TORSDOF 5
ENDMDL
