MODEL 1
REMARK VINA RESULT:     -12.8      0.000      0.000
REMARK  Name = 11167118
REMARK  6 active torsions:
REMARK  status: ('A' for Active; 'I' for Inactive)
REMARK    1  A    between atoms: N_2  and  C_6
REMARK    2  A    between atoms: N_2  and  C_15
REMARK    3  A    between atoms: C_8  and  O_25
REMARK    4  A    between atoms: C_17  and  C_24
REMARK    5  A    between atoms: O_25  and  C_27
REMARK    6  A    between atoms: C_30  and  C_34
REMARK                            x       y       z     vdW  Elec       q    Type
REMARK                         _______ _______ _______ _____ _____    ______ ____
ROOT
ATOM      1  N   UNL     1      33.275 -21.041 -20.190  0.00  0.00    -0.302 N 
ATOM      2  N   UNL     1      34.990 -22.157 -19.321  0.00  0.00    -0.302 N 
ATOM      3  C   UNL     1      34.395 -20.359 -20.589  0.00  0.00    +0.063 C 
ATOM      4  C   UNL     1      35.452 -21.075 -20.034  0.00  0.00    +0.060 C 
ATOM      5  C   UNL     1      33.680 -22.106 -19.435  0.00  0.00    +0.225 C 
ATOM      6  C   UNL     1      34.571 -19.212 -21.365  0.00  0.00    +0.053 C 
ATOM      7  C   UNL     1      35.887 -18.790 -21.576  0.00  0.00    +0.147 C 
ATOM      8  C   UNL     1      36.768 -20.636 -20.255  0.00  0.00    +0.019 C 
ATOM      9  C   UNL     1      36.968 -19.487 -21.032  0.00  0.00    +0.039 C 
ATOM     10  H   UNL     1      32.344 -20.805 -20.408  0.00  0.00    +0.150 HD
ATOM     11  H   UNL     1      35.522 -22.824 -18.830  0.00  0.00    +0.150 HD
ENDROOT
BRANCH   5  12
ATOM     12  N   UNL     1      32.736 -22.929 -18.929  0.00  0.00    -0.303 N 
ATOM     13  H   UNL     1      32.297 -23.511 -19.590  0.00  0.00    +0.150 HD
BRANCH  12  15
ATOM     14 CL   UNL     1      30.856 -23.603 -13.349  0.00  0.00    -0.082 Cl
ATOM     15  C   UNL     1      32.275 -23.089 -17.591  0.00  0.00    +0.047 C 
ATOM     16  C   UNL     1      30.924 -22.938 -17.310  0.00  0.00    +0.019 C 
ATOM     17  C   UNL     1      30.473 -23.095 -16.000  0.00  0.00    +0.083 C 
ATOM     18  C   UNL     1      33.184 -23.393 -16.587  0.00  0.00    +0.015 C 
ATOM     19  C   UNL     1      31.378 -23.401 -14.982  0.00  0.00    +0.062 C 
ATOM     20  C   UNL     1      32.733 -23.549 -15.276  0.00  0.00    +0.013 C 
BRANCH  17  24
ATOM     21  F   UNL     1      28.446 -24.070 -15.268  0.00  0.00    -0.166 F 
ATOM     22  F   UNL     1      28.768 -21.972 -14.799  0.00  0.00    -0.166 F 
ATOM     23  F   UNL     1      28.345 -22.574 -16.851  0.00  0.00    -0.166 F 
ATOM     24  C   UNL     1      29.013 -22.928 -15.727  0.00  0.00    +0.419 C 
ENDBRANCH  17  24
ENDBRANCH  12  15
ENDBRANCH   5  12
BRANCH   7  25
ATOM     25  O   UNL     1      36.118 -17.675 -22.326  0.00  0.00    -0.453 OA
BRANCH  25  27
ATOM     26  N   UNL     1      33.415 -16.796 -25.357  0.00  0.00    -0.239 NA
ATOM     27  C   UNL     1      35.218 -17.382 -23.335  0.00  0.00    +0.149 C 
ATOM     28  C   UNL     1      34.892 -16.066 -23.588  0.00  0.00    +0.061 C 
ATOM     29  C   UNL     1      34.667 -18.412 -24.067  0.00  0.00    +0.058 C 
ATOM     30  C   UNL     1      33.987 -15.826 -24.609  0.00  0.00    +0.137 C 
ATOM     31  C   UNL     1      33.771 -18.067 -25.066  0.00  0.00    +0.102 C 
BRANCH  30  34
ATOM     32  O   UNL     1      32.847 -14.237 -25.902  0.00  0.00    -0.268 OA
ATOM     33  N   UNL     1      34.074 -13.448 -24.101  0.00  0.00    -0.298 N 
ATOM     34  C   UNL     1      33.594 -14.465 -24.934  0.00  0.00    +0.264 C 
ATOM     35  C   UNL     1      33.754 -12.049 -24.280  0.00  0.00    +0.111 C 
ATOM     36  H   UNL     1      34.662 -13.698 -23.352  0.00  0.00    +0.150 HD
ENDBRANCH  30  34
ENDBRANCH  25  27
ENDBRANCH   7  25
TORSDOF 6
ENDMDL
MODEL 2
REMARK VINA RESULT:     -12.7      5.479     10.369
REMARK  Name = 11167118
REMARK  6 active torsions:
REMARK  status: ('A' for Active; 'I' for Inactive)
REMARK    1  A    between atoms: N_2  and  C_6
REMARK    2  A    between atoms: N_2  and  C_15
REMARK    3  A    between atoms: C_8  and  O_25
REMARK    4  A    between atoms: C_17  and  C_24
REMARK    5  A    between atoms: O_25  and  C_27
REMARK    6  A    between atoms: C_30  and  C_34
REMARK                            x       y       z     vdW  Elec       q    Type
REMARK                         _______ _______ _______ _____ _____    ______ ____
ROOT
ATOM      1  N   UNL     1      34.337 -19.623 -21.451  0.00  0.00    -0.302 N 
ATOM      2  N   UNL     1      36.382 -20.077 -20.708  0.00  0.00    -0.302 N 
ATOM      3  C   UNL     1      34.176 -20.617 -20.520  0.00  0.00    +0.063 C 
ATOM      4  C   UNL     1      35.468 -20.883 -20.072  0.00  0.00    +0.060 C 
ATOM      5  C   UNL     1      35.671 -19.334 -21.528  0.00  0.00    +0.225 C 
ATOM      6  C   UNL     1      33.047 -21.288 -20.046  0.00  0.00    +0.053 C 
ATOM      7  C   UNL     1      33.260 -22.268 -19.073  0.00  0.00    +0.147 C 
ATOM      8  C   UNL     1      35.663 -21.872 -19.094  0.00  0.00    +0.019 C 
ATOM      9  C   UNL     1      34.544 -22.557 -18.603  0.00  0.00    +0.039 C 
ATOM     10  H   UNL     1      33.619 -19.194 -21.970  0.00  0.00    +0.150 HD
ATOM     11  H   UNL     1      37.358 -20.058 -20.580  0.00  0.00    +0.150 HD
ENDROOT
BRANCH   5  12
ATOM     12  N   UNL     1      36.069 -18.372 -22.389  0.00  0.00    -0.303 N 
ATOM     13  H   UNL     1      37.035 -18.359 -22.576  0.00  0.00    +0.150 HD
BRANCH  12  15
ATOM     14 CL   UNL     1      32.925 -14.250 -25.260  0.00  0.00    -0.082 Cl
ATOM     15  C   UNL     1      35.313 -17.376 -23.071  0.00  0.00    +0.047 C 
ATOM     16  C   UNL     1      35.003 -16.190 -22.421  0.00  0.00    +0.019 C 
ATOM     17  C   UNL     1      34.263 -15.213 -23.089  0.00  0.00    +0.083 C 
ATOM     18  C   UNL     1      34.898 -17.607 -24.375  0.00  0.00    +0.015 C 
ATOM     19  C   UNL     1      33.841 -15.435 -24.401  0.00  0.00    +0.062 C 
ATOM     20  C   UNL     1      34.158 -16.631 -25.043  0.00  0.00    +0.013 C 
BRANCH  17  24
ATOM     21  F   UNL     1      34.401 -12.853 -23.026  0.00  0.00    -0.166 F 
ATOM     22  F   UNL     1      32.612 -13.769 -22.197  0.00  0.00    -0.166 F 
ATOM     23  F   UNL     1      34.508 -13.933 -21.134  0.00  0.00    -0.166 F 
ATOM     24  C   UNL     1      33.945 -13.945 -22.366  0.00  0.00    +0.419 C 
ENDBRANCH  17  24
ENDBRANCH  12  15
ENDBRANCH   5  12
BRANCH   7  25
ATOM     25  O   UNL     1      32.194 -22.956 -18.574  0.00  0.00    -0.453 OA
BRANCH  25  27
ATOM     26  N   UNL     1      31.981 -23.455 -14.454  0.00  0.00    -0.239 NA
ATOM     27  C   UNL     1      32.122 -23.122 -17.202  0.00  0.00    +0.149 C 
ATOM     28  C   UNL     1      33.238 -23.555 -16.517  0.00  0.00    +0.061 C 
ATOM     29  C   UNL     1      30.939 -22.850 -16.550  0.00  0.00    +0.058 C 
ATOM     30  C   UNL     1      33.116 -23.706 -15.144  0.00  0.00    +0.137 C 
ATOM     31  C   UNL     1      30.919 -23.033 -15.176  0.00  0.00    +0.102 C 
BRANCH  30  34
ATOM     32  O   UNL     1      35.039 -25.005 -14.809  0.00  0.00    -0.268 OA
ATOM     33  N   UNL     1      34.409 -23.585 -13.087  0.00  0.00    -0.298 N 
ATOM     34  C   UNL     1      34.247 -24.159 -14.354  0.00  0.00    +0.264 C 
ATOM     35  C   UNL     1      35.496 -23.915 -12.192  0.00  0.00    +0.111 C 
ATOM     36  H   UNL     1      33.746 -22.922 -12.788  0.00  0.00    +0.150 HD
ENDBRANCH  30  34
ENDBRANCH  25  27
ENDBRANCH   7  25
TORSDOF 6
ENDMDL
MODEL 3
REMARK VINA RESULT:     -12.6      1.875      2.312
REMARK  Name = 11167118
REMARK  6 active torsions:
REMARK  status: ('A' for Active; 'I' for Inactive)
REMARK    1  A    between atoms: N_2  and  C_6
REMARK    2  A    between atoms: N_2  and  C_15
REMARK    3  A    between atoms: C_8  and  O_25
REMARK    4  A    between atoms: C_17  and  C_24
REMARK    5  A    between atoms: O_25  and  C_27
REMARK    6  A    between atoms: C_30  and  C_34
REMARK                            x       y       z     vdW  Elec       q    Type
REMARK                         _______ _______ _______ _____ _____    ______ ____
ROOT
ATOM      1  N   UNL     1      32.766 -21.235 -19.882  0.00  0.00    -0.302 N 
ATOM      2  N   UNL     1      34.305 -22.455 -18.843  0.00  0.00    -0.302 N 
ATOM      3  C   UNL     1      33.972 -20.735 -20.300  0.00  0.00    +0.063 C 
ATOM      4  C   UNL     1      34.917 -21.513 -19.637  0.00  0.00    +0.060 C 
ATOM      5  C   UNL     1      33.016 -22.260 -19.014  0.00  0.00    +0.225 C 
ATOM      6  C   UNL     1      34.309 -19.700 -21.175  0.00  0.00    +0.053 C 
ATOM      7  C   UNL     1      35.672 -19.461 -21.371  0.00  0.00    +0.147 C 
ATOM      8  C   UNL     1      36.283 -21.258 -19.847  0.00  0.00    +0.019 C 
ATOM      9  C   UNL     1      36.643 -20.224 -20.720  0.00  0.00    +0.039 C 
ATOM     10  H   UNL     1      31.878 -20.912 -20.159  0.00  0.00    +0.150 HD
ATOM     11  H   UNL     1      34.737 -23.129 -18.270  0.00  0.00    +0.150 HD
ENDROOT
BRANCH   5  12
ATOM     12  N   UNL     1      31.964 -22.909 -18.469  0.00  0.00    -0.303 N 
ATOM     13  H   UNL     1      31.336 -23.299 -19.120  0.00  0.00    +0.150 HD
BRANCH  12  15
ATOM     14 CL   UNL     1      30.486 -23.771 -12.796  0.00  0.00    -0.082 Cl
ATOM     15  C   UNL     1      31.618 -23.121 -17.105  0.00  0.00    +0.047 C 
ATOM     16  C   UNL     1      32.559 -23.653 -16.235  0.00  0.00    +0.019 C 
ATOM     17  C   UNL     1      32.220 -23.859 -14.897  0.00  0.00    +0.083 C 
ATOM     18  C   UNL     1      30.344 -22.790 -16.664  0.00  0.00    +0.015 C 
ATOM     19  C   UNL     1      30.942 -23.531 -14.443  0.00  0.00    +0.062 C 
ATOM     20  C   UNL     1      30.004 -22.997 -15.327  0.00  0.00    +0.013 C 
BRANCH  17  24
ATOM     21  F   UNL     1      32.778 -25.481 -13.269  0.00  0.00    -0.166 F 
ATOM     22  F   UNL     1      34.343 -24.880 -14.653  0.00  0.00    -0.166 F 
ATOM     23  F   UNL     1      33.685 -23.506 -13.093  0.00  0.00    -0.166 F 
ATOM     24  C   UNL     1      33.254 -24.432 -13.983  0.00  0.00    +0.419 C 
ENDBRANCH  17  24
ENDBRANCH  12  15
ENDBRANCH   5  12
BRANCH   7  25
ATOM     25  O   UNL     1      36.060 -18.461 -22.215  0.00  0.00    -0.453 OA
BRANCH  25  27
ATOM     26  N   UNL     1      33.527 -17.511 -25.369  0.00  0.00    -0.239 NA
ATOM     27  C   UNL     1      35.217 -18.145 -23.265  0.00  0.00    +0.149 C 
ATOM     28  C   UNL     1      35.020 -16.821 -23.597  0.00  0.00    +0.061 C 
ATOM     29  C   UNL     1      34.591 -19.159 -23.957  0.00  0.00    +0.058 C 
ATOM     30  C   UNL     1      34.167 -16.556 -24.656  0.00  0.00    +0.137 C 
ATOM     31  C   UNL     1      33.756 -18.791 -25.000  0.00  0.00    +0.102 C 
BRANCH  30  34
ATOM     32  O   UNL     1      33.554 -14.930 -26.230  0.00  0.00    -0.268 OA
ATOM     33  N   UNL     1      34.058 -14.193 -24.090  0.00  0.00    -0.298 N 
ATOM     34  C   UNL     1      33.910 -15.186 -25.065  0.00  0.00    +0.264 C 
ATOM     35  C   UNL     1      33.818 -12.788 -24.336  0.00  0.00    +0.111 C 
ATOM     36  H   UNL     1      34.344 -14.465 -23.188  0.00  0.00    +0.150 HD
ENDBRANCH  30  34
ENDBRANCH  25  27
ENDBRANCH   7  25
TORSDOF 6
ENDMDL
MODEL 4
REMARK VINA RESULT:     -12.6      3.441      4.196
REMARK  Name = 11167118
REMARK  6 active torsions:
REMARK  status: ('A' for Active; 'I' for Inactive)
REMARK    1  A    between atoms: N_2  and  C_6
REMARK    2  A    between atoms: N_2  and  C_15
REMARK    3  A    between atoms: C_8  and  O_25
REMARK    4  A    between atoms: C_17  and  C_24
REMARK    5  A    between atoms: O_25  and  C_27
REMARK    6  A    between atoms: C_30  and  C_34
REMARK                            x       y       z     vdW  Elec       q    Type
REMARK                         _______ _______ _______ _____ _____    ______ ____
ROOT
ATOM      1  N   UNL     1      34.624 -22.781 -18.493  0.00  0.00    -0.302 N 
ATOM      2  N   UNL     1      32.427 -22.473 -18.621  0.00  0.00    -0.302 N 
ATOM      3  C   UNL     1      34.447 -21.787 -19.421  0.00  0.00    +0.063 C 
ATOM      4  C   UNL     1      33.067 -21.614 -19.483  0.00  0.00    +0.060 C 
ATOM      5  C   UNL     1      33.389 -23.158 -18.043  0.00  0.00    +0.225 C 
ATOM      6  C   UNL     1      35.347 -21.047 -20.189  0.00  0.00    +0.053 C 
ATOM      7  C   UNL     1      34.802 -20.092 -21.053  0.00  0.00    +0.147 C 
ATOM      8  C   UNL     1      32.536 -20.650 -20.357  0.00  0.00    +0.019 C 
ATOM      9  C   UNL     1      33.421 -19.896 -21.137  0.00  0.00    +0.039 C 
ATOM     10  H   UNL     1      35.487 -23.155 -18.202  0.00  0.00    +0.150 HD
ATOM     11  H   UNL     1      31.458 -22.559 -18.468  0.00  0.00    +0.150 HD
ENDROOT
BRANCH   5  12
ATOM     12  N   UNL     1      33.318 -24.134 -17.112  0.00  0.00    -0.303 N 
ATOM     13  H   UNL     1      32.835 -24.943 -17.397  0.00  0.00    +0.150 HD
BRANCH  12  15
ATOM     14 CL   UNL     1      35.410 -24.302 -11.570  0.00  0.00    -0.082 Cl
ATOM     15  C   UNL     1      33.829 -24.179 -15.784  0.00  0.00    +0.047 C 
ATOM     16  C   UNL     1      35.113 -24.656 -15.561  0.00  0.00    +0.019 C 
ATOM     17  C   UNL     1      35.614 -24.699 -14.259  0.00  0.00    +0.083 C 
ATOM     18  C   UNL     1      33.035 -23.744 -14.732  0.00  0.00    +0.015 C 
ATOM     19  C   UNL     1      34.824 -24.265 -13.193  0.00  0.00    +0.062 C 
ATOM     20  C   UNL     1      33.535 -23.787 -13.430  0.00  0.00    +0.013 C 
BRANCH  17  24
ATOM     21  F   UNL     1      37.022 -26.294 -13.228  0.00  0.00    -0.166 F 
ATOM     22  F   UNL     1      37.589 -25.598 -15.208  0.00  0.00    -0.166 F 
ATOM     23  F   UNL     1      37.793 -24.272 -13.490  0.00  0.00    -0.166 F 
ATOM     24  C   UNL     1      37.000 -25.217 -14.049  0.00  0.00    +0.419 C 
ENDBRANCH  17  24
ENDBRANCH  12  15
ENDBRANCH   5  12
BRANCH   7  25
ATOM     25  O   UNL     1      35.634 -19.340 -21.828  0.00  0.00    -0.453 OA
BRANCH  25  27
ATOM     26  N   UNL     1      34.021 -17.553 -25.215  0.00  0.00    -0.239 NA
ATOM     27  C   UNL     1      35.097 -18.746 -22.956  0.00  0.00    +0.149 C 
ATOM     28  C   UNL     1      34.994 -17.371 -23.009  0.00  0.00    +0.061 C 
ATOM     29  C   UNL     1      34.677 -19.538 -24.003  0.00  0.00    +0.058 C 
ATOM     30  C   UNL     1      34.449 -16.824 -24.160  0.00  0.00    +0.137 C 
ATOM     31  C   UNL     1      34.146 -18.895 -25.109  0.00  0.00    +0.102 C 
BRANCH  30  34
ATOM     32  O   UNL     1      34.826 -14.619 -23.456  0.00  0.00    -0.268 OA
ATOM     33  N   UNL     1      33.591 -14.912 -25.396  0.00  0.00    -0.298 N 
ATOM     34  C   UNL     1      34.308 -15.384 -24.290  0.00  0.00    +0.264 C 
ATOM     35  C   UNL     1      33.383 -13.508 -25.675  0.00  0.00    +0.111 C 
ATOM     36  H   UNL     1      33.207 -15.572 -26.017  0.00  0.00    +0.150 HD
ENDBRANCH  30  34
ENDBRANCH  25  27
ENDBRANCH   7  25
TORSDOF 6
ENDMDL
MODEL 5
REMARK VINA RESULT:     -12.5      5.633     10.265
REMARK  Name = 11167118
REMARK  6 active torsions:
REMARK  status: ('A' for Active; 'I' for Inactive)
REMARK    1  A    between atoms: N_2  and  C_6
REMARK    2  A    between atoms: N_2  and  C_15
REMARK    3  A    between atoms: C_8  and  O_25
REMARK    4  A    between atoms: C_17  and  C_24
REMARK    5  A    between atoms: O_25  and  C_27
REMARK    6  A    between atoms: C_30  and  C_34
REMARK                            x       y       z     vdW  Elec       q    Type
REMARK                         _______ _______ _______ _____ _____    ______ ____
ROOT
ATOM      1  N   UNL     1      35.920 -20.235 -20.612  0.00  0.00    -0.302 N 
ATOM      2  N   UNL     1      33.857 -19.841 -21.339  0.00  0.00    -0.302 N 
ATOM      3  C   UNL     1      35.110 -21.069 -19.885  0.00  0.00    +0.063 C 
ATOM      4  C   UNL     1      33.828 -20.804 -20.358  0.00  0.00    +0.060 C 
ATOM      5  C   UNL     1      35.126 -19.522 -21.467  0.00  0.00    +0.225 C 
ATOM      6  C   UNL     1      35.380 -22.005 -18.885  0.00  0.00    +0.053 C 
ATOM      7  C   UNL     1      34.285 -22.692 -18.354  0.00  0.00    +0.147 C 
ATOM      8  C   UNL     1      32.738 -21.504 -19.813  0.00  0.00    +0.019 C 
ATOM      9  C   UNL     1      32.986 -22.448 -18.808  0.00  0.00    +0.039 C 
ATOM     10  H   UNL     1      36.899 -20.163 -20.532  0.00  0.00    +0.150 HD
ATOM     11  H   UNL     1      33.094 -19.470 -21.839  0.00  0.00    +0.150 HD
ENDROOT
BRANCH   5  12
ATOM     12  N   UNL     1      35.715 -18.628 -22.291  0.00  0.00    -0.303 N 
ATOM     13  H   UNL     1      36.691 -18.722 -22.375  0.00  0.00    +0.150 HD
BRANCH  12  15
ATOM     14 CL   UNL     1      33.357 -14.251 -25.516  0.00  0.00    -0.082 Cl
ATOM     15  C   UNL     1      35.148 -17.571 -23.057  0.00  0.00    +0.047 C 
ATOM     16  C   UNL     1      34.872 -16.355 -22.448  0.00  0.00    +0.019 C 
ATOM     17  C   UNL     1      34.317 -15.319 -23.199  0.00  0.00    +0.083 C 
ATOM     18  C   UNL     1      34.879 -17.771 -24.404  0.00  0.00    +0.015 C 
ATOM     19  C   UNL     1      34.042 -15.510 -24.554  0.00  0.00    +0.062 C 
ATOM     20  C   UNL     1      34.323 -16.736 -25.156  0.00  0.00    +0.013 C 
BRANCH  17  24
ATOM     21  F   UNL     1      32.702 -13.787 -22.401  0.00  0.00    -0.166 F 
ATOM     22  F   UNL     1      34.546 -13.973 -21.264  0.00  0.00    -0.166 F 
ATOM     23  F   UNL     1      34.562 -12.981 -23.205  0.00  0.00    -0.166 F 
ATOM     24  C   UNL     1      34.032 -14.020 -22.517  0.00  0.00    +0.419 C 
ENDBRANCH  17  24
ENDBRANCH  12  15
ENDBRANCH   5  12
BRANCH   7  25
ATOM     25  O   UNL     1      34.489 -23.618 -17.373  0.00  0.00    -0.453 OA
BRANCH  25  27
ATOM     26  N   UNL     1      31.730 -23.776 -14.270  0.00  0.00    -0.239 NA
ATOM     27  C   UNL     1      33.571 -23.670 -16.340  0.00  0.00    +0.149 C 
ATOM     28  C   UNL     1      32.224 -23.713 -16.635  0.00  0.00    +0.061 C 
ATOM     29  C   UNL     1      34.020 -23.680 -15.037  0.00  0.00    +0.058 C 
ATOM     30  C   UNL     1      31.345 -23.765 -15.566  0.00  0.00    +0.137 C 
ATOM     31  C   UNL     1      33.061 -23.733 -14.038  0.00  0.00    +0.102 C 
BRANCH  30  34
ATOM     32  O   UNL     1      29.179 -24.530 -15.093  0.00  0.00    -0.268 OA
ATOM     33  N   UNL     1      29.405 -23.001 -16.821  0.00  0.00    -0.298 N 
ATOM     34  C   UNL     1      29.911 -23.811 -15.797  0.00  0.00    +0.264 C 
ATOM     35  C   UNL     1      28.001 -22.920 -17.158  0.00  0.00    +0.111 C 
ATOM     36  H   UNL     1      30.040 -22.457 -17.341  0.00  0.00    +0.150 HD
ENDBRANCH  30  34
ENDBRANCH  25  27
ENDBRANCH   7  25
TORSDOF 6
ENDMDL
MODEL 6
REMARK VINA RESULT:     -12.5      1.201      1.837
REMARK  Name = 11167118
REMARK  6 active torsions:
REMARK  status: ('A' for Active; 'I' for Inactive)
REMARK    1  A    between atoms: N_2  and  C_6
REMARK    2  A    between atoms: N_2  and  C_15
REMARK    3  A    between atoms: C_8  and  O_25
REMARK    4  A    between atoms: C_17  and  C_24
REMARK    5  A    between atoms: O_25  and  C_27
REMARK    6  A    between atoms: C_30  and  C_34
REMARK                            x       y       z     vdW  Elec       q    Type
REMARK                         _______ _______ _______ _____ _____    ______ ____
ROOT
ATOM      1  N   UNL     1      34.941 -22.206 -18.858  0.00  0.00    -0.302 N 
ATOM      2  N   UNL     1      32.732 -22.134 -19.098  0.00  0.00    -0.302 N 
ATOM      3  C   UNL     1      34.710 -21.294 -19.857  0.00  0.00    +0.063 C 
ATOM      4  C   UNL     1      33.324 -21.268 -19.987  0.00  0.00    +0.060 C 
ATOM      5  C   UNL     1      33.730 -22.680 -18.437  0.00  0.00    +0.225 C 
ATOM      6  C   UNL     1      35.568 -20.514 -20.634  0.00  0.00    +0.053 C 
ATOM      7  C   UNL     1      34.972 -19.675 -21.580  0.00  0.00    +0.147 C 
ATOM      8  C   UNL     1      32.742 -20.419 -20.944  0.00  0.00    +0.019 C 
ATOM      9  C   UNL     1      33.584 -19.627 -21.734  0.00  0.00    +0.039 C 
ATOM     10  H   UNL     1      35.822 -22.471 -18.508  0.00  0.00    +0.150 HD
ATOM     11  H   UNL     1      31.771 -22.309 -18.980  0.00  0.00    +0.150 HD
ENDROOT
BRANCH   5  12
ATOM     12  N   UNL     1      33.712 -23.599 -17.447  0.00  0.00    -0.303 N 
ATOM     13  H   UNL     1      34.420 -24.280 -17.502  0.00  0.00    +0.150 HD
BRANCH  12  15
ATOM     14 CL   UNL     1      30.078 -24.200 -12.805  0.00  0.00    -0.082 Cl
ATOM     15  C   UNL     1      32.831 -23.740 -16.338  0.00  0.00    +0.047 C 
ATOM     16  C   UNL     1      31.477 -23.484 -16.502  0.00  0.00    +0.019 C 
ATOM     17  C   UNL     1      30.614 -23.623 -15.414  0.00  0.00    +0.083 C 
ATOM     18  C   UNL     1      33.340 -24.132 -15.107  0.00  0.00    +0.015 C 
ATOM     19  C   UNL     1      31.115 -24.016 -14.172  0.00  0.00    +0.062 C 
ATOM     20  C   UNL     1      32.478 -24.271 -14.019  0.00  0.00    +0.013 C 
BRANCH  17  24
ATOM     21  F   UNL     1      28.752 -22.245 -14.938  0.00  0.00    -0.166 F 
ATOM     22  F   UNL     1      28.857 -23.125 -16.923  0.00  0.00    -0.166 F 
ATOM     23  F   UNL     1      28.399 -24.380 -15.202  0.00  0.00    -0.166 F 
ATOM     24  C   UNL     1      29.161 -23.341 -15.621  0.00  0.00    +0.419 C 
ENDBRANCH  17  24
ENDBRANCH  12  15
ENDBRANCH   5  12
BRANCH   7  25
ATOM     25  O   UNL     1      35.761 -18.890 -22.368  0.00  0.00    -0.453 OA
BRANCH  25  27
ATOM     26  N   UNL     1      33.877 -16.145 -24.855  0.00  0.00    -0.239 NA
ATOM     27  C   UNL     1      35.134 -17.977 -23.196  0.00  0.00    +0.149 C 
ATOM     28  C   UNL     1      35.027 -16.662 -22.792  0.00  0.00    +0.061 C 
ATOM     29  C   UNL     1      34.630 -18.398 -24.408  0.00  0.00    +0.058 C 
ATOM     30  C   UNL     1      34.390 -15.786 -23.656  0.00  0.00    +0.137 C 
ATOM     31  C   UNL     1      34.011 -17.445 -25.201  0.00  0.00    +0.102 C 
BRANCH  30  34
ATOM     32  O   UNL     1      34.327 -14.022 -22.113  0.00  0.00    -0.268 OA
ATOM     33  N   UNL     1      34.017 -13.483 -24.346  0.00  0.00    -0.298 N 
ATOM     34  C   UNL     1      34.239 -14.386 -23.300  0.00  0.00    +0.264 C 
ATOM     35  C   UNL     1      33.868 -12.058 -24.156  0.00  0.00    +0.111 C 
ATOM     36  H   UNL     1      33.957 -13.838 -25.263  0.00  0.00    +0.150 HD
ENDBRANCH  30  34
ENDBRANCH  25  27
ENDBRANCH   7  25
TORSDOF 6
ENDMDL
MODEL 7
REMARK VINA RESULT:     -12.3      2.609      3.159
REMARK  Name = 11167118
REMARK  6 active torsions:
REMARK  status: ('A' for Active; 'I' for Inactive)
REMARK    1  A    between atoms: N_2  and  C_6
REMARK    2  A    between atoms: N_2  and  C_15
REMARK    3  A    between atoms: C_8  and  O_25
REMARK    4  A    between atoms: C_17  and  C_24
REMARK    5  A    between atoms: O_25  and  C_27
REMARK    6  A    between atoms: C_30  and  C_34
REMARK                            x       y       z     vdW  Elec       q    Type
REMARK                         _______ _______ _______ _____ _____    ______ ____
ROOT
ATOM      1  N   UNL     1      33.024 -20.899 -20.570  0.00  0.00    -0.302 N 
ATOM      2  N   UNL     1      34.845 -21.612 -19.515  0.00  0.00    -0.302 N 
ATOM      3  C   UNL     1      34.058 -20.161 -21.086  0.00  0.00    +0.063 C 
ATOM      4  C   UNL     1      35.184 -20.625 -20.411  0.00  0.00    +0.060 C 
ATOM      5  C   UNL     1      33.543 -21.751 -19.637  0.00  0.00    +0.225 C 
ATOM      6  C   UNL     1      34.105 -19.157 -22.055  0.00  0.00    +0.053 C 
ATOM      7  C   UNL     1      35.362 -18.614 -22.338  0.00  0.00    +0.147 C 
ATOM      8  C   UNL     1      36.439 -20.067 -20.708  0.00  0.00    +0.019 C 
ATOM      9  C   UNL     1      36.509 -19.059 -21.678  0.00  0.00    +0.039 C 
ATOM     10  H   UNL     1      32.076 -20.827 -20.828  0.00  0.00    +0.150 HD
ATOM     11  H   UNL     1      35.446 -22.108 -18.913  0.00  0.00    +0.150 HD
ENDROOT
BRANCH   5  12
ATOM     12  N   UNL     1      32.699 -22.585 -18.991  0.00  0.00    -0.303 N 
ATOM     13  H   UNL     1      31.953 -22.924 -19.537  0.00  0.00    +0.150 HD
BRANCH  12  15
ATOM     14 CL   UNL     1      32.725 -24.521 -13.390  0.00  0.00    -0.082 Cl
ATOM     15  C   UNL     1      32.715 -23.052 -17.646  0.00  0.00    +0.047 C 
ATOM     16  C   UNL     1      33.923 -23.395 -17.055  0.00  0.00    +0.019 C 
ATOM     17  C   UNL     1      33.939 -23.852 -15.737  0.00  0.00    +0.083 C 
ATOM     18  C   UNL     1      31.522 -23.156 -16.945  0.00  0.00    +0.015 C 
ATOM     19  C   UNL     1      32.745 -23.961 -15.023  0.00  0.00    +0.062 C 
ATOM     20  C   UNL     1      31.537 -23.613 -15.627  0.00  0.00    +0.013 C 
BRANCH  17  24
ATOM     21  F   UNL     1      35.500 -23.512 -13.994  0.00  0.00    -0.166 F 
ATOM     22  F   UNL     1      35.326 -25.525 -14.796  0.00  0.00    -0.166 F 
ATOM     23  F   UNL     1      36.274 -23.962 -15.982  0.00  0.00    -0.166 F 
ATOM     24  C   UNL     1      35.254 -24.213 -15.127  0.00  0.00    +0.419 C 
ENDBRANCH  17  24
ENDBRANCH  12  15
ENDBRANCH   5  12
BRANCH   7  25
ATOM     25  O   UNL     1      35.468 -17.630 -23.276  0.00  0.00    -0.453 OA
BRANCH  25  27
ATOM     26  N   UNL     1      33.947 -13.883 -22.320  0.00  0.00    -0.239 NA
ATOM     27  C   UNL     1      34.961 -16.382 -22.957  0.00  0.00    +0.149 C 
ATOM     28  C   UNL     1      34.673 -15.492 -23.971  0.00  0.00    +0.061 C 
ATOM     29  C   UNL     1      34.755 -16.055 -21.635  0.00  0.00    +0.058 C 
ATOM     30  C   UNL     1      34.168 -14.256 -23.600  0.00  0.00    +0.137 C 
ATOM     31  C   UNL     1      34.247 -14.794 -21.367  0.00  0.00    +0.102 C 
BRANCH  30  34
ATOM     32  O   UNL     1      33.217 -13.592 -25.637  0.00  0.00    -0.268 OA
ATOM     33  N   UNL     1      34.235 -11.946 -24.361  0.00  0.00    -0.298 N 
ATOM     34  C   UNL     1      33.840 -13.266 -24.611  0.00  0.00    +0.264 C 
ATOM     35  C   UNL     1      33.963 -10.846 -25.258  0.00  0.00    +0.111 C 
ATOM     36  H   UNL     1      34.726 -11.757 -23.528  0.00  0.00    +0.150 HD
ENDBRANCH  30  34
ENDBRANCH  25  27
ENDBRANCH   7  25
TORSDOF 6
ENDMDL
MODEL 8
REMARK VINA RESULT:     -12.3      5.980     10.871
REMARK  Name = 11167118
REMARK  6 active torsions:
REMARK  status: ('A' for Active; 'I' for Inactive)
REMARK    1  A    between atoms: N_2  and  C_6
REMARK    2  A    between atoms: N_2  and  C_15
REMARK    3  A    between atoms: C_8  and  O_25
REMARK    4  A    between atoms: C_17  and  C_24
REMARK    5  A    between atoms: O_25  and  C_27
REMARK    6  A    between atoms: C_30  and  C_34
REMARK                            x       y       z     vdW  Elec       q    Type
REMARK                         _______ _______ _______ _____ _____    ______ ____
ROOT
ATOM      1  N   UNL     1      33.759 -23.063 -17.513  0.00  0.00    -0.302 N 
ATOM      2  N   UNL     1      31.564 -22.755 -17.669  0.00  0.00    -0.302 N 
ATOM      3  C   UNL     1      33.248 -23.453 -16.302  0.00  0.00    +0.063 C 
ATOM      4  C   UNL     1      31.876 -23.251 -16.425  0.00  0.00    +0.060 C 
ATOM      5  C   UNL     1      32.715 -22.655 -18.295  0.00  0.00    +0.225 C 
ATOM      6  C   UNL     1      33.849 -23.950 -15.144  0.00  0.00    +0.053 C 
ATOM      7  C   UNL     1      33.000 -24.250 -14.074  0.00  0.00    +0.147 C 
ATOM      8  C   UNL     1      31.038 -23.558 -15.339  0.00  0.00    +0.019 C 
ATOM      9  C   UNL     1      31.620 -24.058 -14.167  0.00  0.00    +0.039 C 
ATOM     10  H   UNL     1      34.709 -23.075 -17.772  0.00  0.00    +0.150 HD
ATOM     11  H   UNL     1      30.672 -22.525 -18.017  0.00  0.00    +0.150 HD
ENDROOT
BRANCH   5  12
ATOM     12  N   UNL     1      32.984 -22.223 -19.547  0.00  0.00    -0.303 N 
ATOM     13  H   UNL     1      32.328 -22.495 -20.228  0.00  0.00    +0.150 HD
BRANCH  12  15
ATOM     14 CL   UNL     1      37.509 -18.967 -21.557  0.00  0.00    -0.082 Cl
ATOM     15  C   UNL     1      34.065 -21.437 -20.037  0.00  0.00    +0.047 C 
ATOM     16  C   UNL     1      33.848 -20.551 -21.083  0.00  0.00    +0.019 C 
ATOM     17  C   UNL     1      34.907 -19.780 -21.563  0.00  0.00    +0.083 C 
ATOM     18  C   UNL     1      35.321 -21.567 -19.460  0.00  0.00    +0.015 C 
ATOM     19  C   UNL     1      36.175 -19.904 -20.991  0.00  0.00    +0.062 C 
ATOM     20  C   UNL     1      36.381 -20.797 -19.940  0.00  0.00    +0.013 C 
BRANCH  17  24
ATOM     21  F   UNL     1      34.668 -17.542 -22.286  0.00  0.00    -0.166 F 
ATOM     22  F   UNL     1      35.558 -18.949 -23.683  0.00  0.00    -0.166 F 
ATOM     23  F   UNL     1      33.427 -19.060 -23.240  0.00  0.00    -0.166 F 
ATOM     24  C   UNL     1      34.644 -18.835 -22.690  0.00  0.00    +0.419 C 
ENDBRANCH  17  24
ENDBRANCH  12  15
ENDBRANCH   5  12
BRANCH   7  25
ATOM     25  O   UNL     1      33.532 -24.738 -12.917  0.00  0.00    -0.453 OA
BRANCH  25  27
ATOM     26  N   UNL     1      37.632 -24.346 -12.365  0.00  0.00    -0.239 NA
ATOM     27  C   UNL     1      34.897 -24.607 -12.733  0.00  0.00    +0.149 C 
ATOM     28  C   UNL     1      35.756 -25.387 -13.479  0.00  0.00    +0.061 C 
ATOM     29  C   UNL     1      35.370 -23.700 -11.809  0.00  0.00    +0.058 C 
ATOM     30  C   UNL     1      37.113 -25.219 -13.258  0.00  0.00    +0.137 C 
ATOM     31  C   UNL     1      36.745 -23.607 -11.662  0.00  0.00    +0.102 C 
BRANCH  30  34
ATOM     32  O   UNL     1      37.727 -27.035 -14.608  0.00  0.00    -0.268 OA
ATOM     33  N   UNL     1      39.399 -25.537 -14.029  0.00  0.00    -0.298 N 
ATOM     34  C   UNL     1      38.080 -26.006 -14.005  0.00  0.00    +0.264 C 
ATOM     35  C   UNL     1      40.469 -26.195 -14.746  0.00  0.00    +0.111 C 
ATOM     36  H   UNL     1      39.610 -24.715 -13.529  0.00  0.00    +0.150 HD
ENDBRANCH  30  34
ENDBRANCH  25  27
ENDBRANCH   7  25
TORSDOF 6
ENDMDL
MODEL 9
REMARK VINA RESULT:     -12.3      5.156     10.158
REMARK  Name = 11167118
REMARK  6 active torsions:
REMARK  status: ('A' for Active; 'I' for Inactive)
REMARK    1  A    between atoms: N_2  and  C_6
REMARK    2  A    between atoms: N_2  and  C_15
REMARK    3  A    between atoms: C_8  and  O_25
REMARK    4  A    between atoms: C_17  and  C_24
REMARK    5  A    between atoms: O_25  and  C_27
REMARK    6  A    between atoms: C_30  and  C_34
REMARK                            x       y       z     vdW  Elec       q    Type
REMARK                         _______ _______ _______ _____ _____    ______ ____
ROOT
ATOM      1  N   UNL     1      34.778 -15.164 -23.317  0.00  0.00    -0.302 N 
ATOM      2  N   UNL     1      33.865 -15.887 -25.210  0.00  0.00    -0.302 N 
ATOM      3  C   UNL     1      34.814 -16.532 -23.241  0.00  0.00    +0.063 C 
ATOM      4  C   UNL     1      34.238 -16.960 -24.435  0.00  0.00    +0.060 C 
ATOM      5  C   UNL     1      34.202 -14.826 -24.510  0.00  0.00    +0.225 C 
ATOM      6  C   UNL     1      35.286 -17.408 -22.261  0.00  0.00    +0.053 C 
ATOM      7  C   UNL     1      35.159 -18.775 -22.525  0.00  0.00    +0.147 C 
ATOM      8  C   UNL     1      34.118 -18.338 -24.682  0.00  0.00    +0.019 C 
ATOM      9  C   UNL     1      34.586 -19.234 -23.713  0.00  0.00    +0.039 C 
ATOM     10  H   UNL     1      35.108 -14.537 -22.633  0.00  0.00    +0.150 HD
ATOM     11  H   UNL     1      33.437 -15.907 -26.097  0.00  0.00    +0.150 HD
ENDROOT
BRANCH   5  12
ATOM     12  N   UNL     1      34.062 -13.515 -24.805  0.00  0.00    -0.303 N 
ATOM     13  H   UNL     1      34.434 -13.244 -25.675  0.00  0.00    +0.150 HD
BRANCH  12  15
ATOM     14 CL   UNL     1      31.577  -9.108 -21.720  0.00  0.00    -0.082 Cl
ATOM     15  C   UNL     1      33.460 -12.463 -24.057  0.00  0.00    +0.047 C 
ATOM     16  C   UNL     1      32.729 -12.765 -22.917  0.00  0.00    +0.019 C 
ATOM     17  C   UNL     1      32.141 -11.734 -22.185  0.00  0.00    +0.083 C 
ATOM     18  C   UNL     1      33.615 -11.150 -24.480  0.00  0.00    +0.015 C 
ATOM     19  C   UNL     1      32.289 -10.410 -22.601  0.00  0.00    +0.062 C 
ATOM     20  C   UNL     1      33.026 -10.118 -23.749  0.00  0.00    +0.013 C 
BRANCH  17  24
ATOM     21  F   UNL     1      31.916 -11.577 -19.836  0.00  0.00    -0.166 F 
ATOM     22  F   UNL     1      30.087 -11.627 -21.010  0.00  0.00    -0.166 F 
ATOM     23  F   UNL     1      31.291 -13.431 -20.799  0.00  0.00    -0.166 F 
ATOM     24  C   UNL     1      31.360 -12.088 -20.961  0.00  0.00    +0.419 C 
ENDBRANCH  17  24
ENDBRANCH  12  15
ENDBRANCH   5  12
BRANCH   7  25
ATOM     25  O   UNL     1      35.603 -19.676 -21.603  0.00  0.00    -0.453 OA
BRANCH  25  27
ATOM     26  N   UNL     1      32.751 -21.700 -19.358  0.00  0.00    -0.239 NA
ATOM     27  C   UNL     1      34.653 -20.350 -20.856  0.00  0.00    +0.149 C 
ATOM     28  C   UNL     1      35.065 -21.224 -19.872  0.00  0.00    +0.061 C 
ATOM     29  C   UNL     1      33.316 -20.133 -21.109  0.00  0.00    +0.058 C 
ATOM     30  C   UNL     1      34.076 -21.875 -19.151  0.00  0.00    +0.137 C 
ATOM     31  C   UNL     1      32.404 -20.832 -20.334  0.00  0.00    +0.102 C 
BRANCH  30  34
ATOM     32  O   UNL     1      33.809 -23.880 -17.966  0.00  0.00    -0.268 OA
ATOM     33  N   UNL     1      35.508 -22.463 -17.275  0.00  0.00    -0.298 N 
ATOM     34  C   UNL     1      34.432 -22.811 -18.099  0.00  0.00    +0.264 C 
ATOM     35  C   UNL     1      35.996 -23.299 -16.200  0.00  0.00    +0.111 C 
ATOM     36  H   UNL     1      35.957 -21.602 -17.435  0.00  0.00    +0.150 HD
ENDBRANCH  30  34
ENDBRANCH  25  27
ENDBRANCH   7  25
TORSDOF 6
ENDMDL
