MODEL 1
REMARK VINA RESULT:     -12.5      0.000      0.000
REMARK  Name = 25025505
REMARK  6 active torsions:
REMARK  status: ('A' for Active; 'I' for Inactive)
REMARK    1  A    between atoms: C_3  and  C_9
REMARK    2  A    between atoms: C_4  and  C_20
REMARK    3  A    between atoms: C_17  and  C_18
REMARK    4  A    between atoms: C_20  and  O_21
REMARK    5  A    between atoms: O_21  and  C_22
REMARK    6  A    between atoms: C_25  and  N_28
REMARK                            x       y       z     vdW  Elec       q    Type
REMARK                         _______ _______ _______ _____ _____    ______ ____
ROOT
ATOM      1  S   UNL     1      36.357 -23.714 -15.460  0.00  0.00    -0.079 S 
ATOM      2  N   UNL     1      33.793 -23.578 -15.750  0.00  0.00    -0.404 NA
ATOM      3  C   UNL     1      34.937 -23.388 -16.366  0.00  0.00    +0.134 C 
ATOM      4  C   UNL     1      34.045 -24.014 -14.464  0.00  0.00    +0.142 C 
ATOM      5  C   UNL     1      35.375 -24.148 -14.123  0.00  0.00    +0.122 C 
ENDROOT
BRANCH   3   9
ATOM      6  N   UNL     1      35.015 -20.955 -19.934  0.00  0.00    -0.253 N 
ATOM      7  N   UNL     1      36.086 -19.217 -21.071  0.00  0.00    -0.203 NA
ATOM      8  N   UNL     1      33.992 -20.112 -21.858  0.00  0.00    -0.181 NA
ATOM      9  C   UNL     1      35.071 -22.908 -17.800  0.00  0.00    +0.062 C 
ATOM     10  C   UNL     1      33.749 -22.351 -18.348  0.00  0.00    +0.030 C 
ATOM     11  C   UNL     1      36.177 -21.854 -17.956  0.00  0.00    +0.030 C 
ATOM     12  C   UNL     1      33.895 -21.893 -19.800  0.00  0.00    +0.102 C 
ATOM     13  C   UNL     1      36.313 -21.405 -19.411  0.00  0.00    +0.102 C 
ATOM     14  C   UNL     1      35.032 -20.053 -21.005  0.00  0.00    +0.090 C 
ATOM     15  C   UNL     1      36.069 -18.360 -22.113  0.00  0.00    +0.161 C 
ATOM     16  C   UNL     1      34.040 -19.229 -22.877  0.00  0.00    +0.104 C 
ATOM     17  C   UNL     1      35.063 -18.320 -23.056  0.00  0.00    +0.001 C 
BRANCH  17  18
ATOM     18  C   UNL     1      35.081 -17.363 -24.189  0.00  0.00    +0.026 C 
ATOM     19  C   UNL     1      35.031 -15.905 -23.730  0.00  0.00    +0.005 C 
ENDBRANCH  17  18
ENDBRANCH   3   9
BRANCH   4  20
ATOM     20  C   UNL     1      32.897 -24.293 -13.579  0.00  0.00    +0.260 C 
BRANCH  20  21
ATOM     21  O   UNL     1      31.990 -25.186 -14.225  0.00  0.00    -0.468 OA
BRANCH  21  22
ATOM     22  C   UNL     1      30.886 -24.624 -14.805  0.00  0.00    +0.139 C 
ATOM     23  C   UNL     1      29.965 -25.427 -15.477  0.00  0.00    +0.038 C 
ATOM     24  C   UNL     1      30.681 -23.247 -14.725  0.00  0.00    +0.038 C 
ATOM     25  C   UNL     1      28.636 -23.477 -15.989  0.00  0.00    +0.078 C 
ATOM     26  C   UNL     1      28.840 -24.854 -16.069  0.00  0.00    +0.020 C 
ATOM     27  C   UNL     1      29.556 -22.673 -15.316  0.00  0.00    +0.020 C 
BRANCH  25  28
ATOM     28  N   UNL     1      27.520 -22.908 -16.576  0.00  0.00    -0.149 N 
ATOM     29  N   UNL     1      27.336 -22.894 -17.903  0.00  0.00    -0.048 NA
ATOM     30  N   UNL     1      25.625 -21.898 -16.878  0.00  0.00    -0.107 NA
ATOM     31  N   UNL     1      26.176 -22.275 -18.083  0.00  0.00    -0.024 NA
ATOM     32  C   UNL     1      26.472 -22.300 -15.960  0.00  0.00    +0.215 C 
ENDBRANCH  25  28
ENDBRANCH  21  22
ENDBRANCH  20  21
ENDBRANCH   4  20
TORSDOF 6
ENDMDL
MODEL 2
REMARK VINA RESULT:     -12.2      4.536      7.026
REMARK  Name = 25025505
REMARK  6 active torsions:
REMARK  status: ('A' for Active; 'I' for Inactive)
REMARK    1  A    between atoms: C_3  and  C_9
REMARK    2  A    between atoms: C_4  and  C_20
REMARK    3  A    between atoms: C_17  and  C_18
REMARK    4  A    between atoms: C_20  and  O_21
REMARK    5  A    between atoms: O_21  and  C_22
REMARK    6  A    between atoms: C_25  and  N_28
REMARK                            x       y       z     vdW  Elec       q    Type
REMARK                         _______ _______ _______ _____ _____    ______ ____
ROOT
ATOM      1  S   UNL     1      33.022 -20.579 -20.935  0.00  0.00    -0.079 S 
ATOM      2  N   UNL     1      35.481 -20.420 -20.153  0.00  0.00    -0.404 NA
ATOM      3  C   UNL     1      34.606 -19.923 -20.999  0.00  0.00    +0.134 C 
ATOM      4  C   UNL     1      34.862 -21.393 -19.393  0.00  0.00    +0.142 C 
ATOM      5  C   UNL     1      33.531 -21.621 -19.671  0.00  0.00    +0.122 C 
ENDROOT
BRANCH   3   9
ATOM      6  N   UNL     1      34.326 -16.481 -23.594  0.00  0.00    -0.253 N 
ATOM      7  N   UNL     1      34.128 -14.157 -23.714  0.00  0.00    -0.203 NA
ATOM      8  N   UNL     1      33.917 -15.525 -25.686  0.00  0.00    -0.181 NA
ATOM      9  C   UNL     1      34.911 -18.828 -22.004  0.00  0.00    +0.062 C 
ATOM     10  C   UNL     1      33.987 -18.894 -23.229  0.00  0.00    +0.030 C 
ATOM     11  C   UNL     1      34.832 -17.428 -21.376  0.00  0.00    +0.030 C 
ATOM     12  C   UNL     1      34.323 -17.798 -24.241  0.00  0.00    +0.102 C 
ATOM     13  C   UNL     1      35.170 -16.343 -22.399  0.00  0.00    +0.102 C 
ATOM     14  C   UNL     1      34.115 -15.334 -24.368  0.00  0.00    +0.090 C 
ATOM     15  C   UNL     1      33.919 -13.072 -24.489  0.00  0.00    +0.161 C 
ATOM     16  C   UNL     1      33.715 -14.398 -26.400  0.00  0.00    +0.104 C 
ATOM     17  C   UNL     1      33.704 -13.133 -25.851  0.00  0.00    +0.001 C 
BRANCH  17  18
ATOM     18  C   UNL     1      33.478 -11.917 -26.668  0.00  0.00    +0.026 C 
ATOM     19  C   UNL     1      34.719 -11.500 -27.459  0.00  0.00    +0.005 C 
ENDBRANCH  17  18
ENDBRANCH   3   9
BRANCH   4  20
ATOM     20  C   UNL     1      35.660 -22.095 -18.368  0.00  0.00    +0.260 C 
BRANCH  20  21
ATOM     21  O   UNL     1      34.896 -23.156 -17.797  0.00  0.00    -0.468 OA
BRANCH  21  22
ATOM     22  C   UNL     1      35.064 -23.380 -16.458  0.00  0.00    +0.139 C 
ATOM     23  C   UNL     1      36.279 -23.072 -15.845  0.00  0.00    +0.038 C 
ATOM     24  C   UNL     1      34.021 -23.916 -15.704  0.00  0.00    +0.038 C 
ATOM     25  C   UNL     1      35.407 -23.838 -13.728  0.00  0.00    +0.078 C 
ATOM     26  C   UNL     1      36.451 -23.301 -14.480  0.00  0.00    +0.020 C 
ATOM     27  C   UNL     1      34.192 -24.146 -14.339  0.00  0.00    +0.020 C 
BRANCH  25  28
ATOM     28  N   UNL     1      35.577 -24.065 -12.374  0.00  0.00    -0.149 N 
ATOM     29  N   UNL     1      34.838 -24.955 -11.697  0.00  0.00    -0.048 NA
ATOM     30  N   UNL     1      36.298 -23.970 -10.331  0.00  0.00    -0.107 NA
ATOM     31  N   UNL     1      35.283 -24.893 -10.448  0.00  0.00    -0.024 NA
ATOM     32  C   UNL     1      36.464 -23.470 -11.533  0.00  0.00    +0.215 C 
ENDBRANCH  25  28
ENDBRANCH  21  22
ENDBRANCH  20  21
ENDBRANCH   4  20
TORSDOF 6
ENDMDL
MODEL 3
REMARK VINA RESULT:     -12.0      6.690     10.749
REMARK  Name = 25025505
REMARK  6 active torsions:
REMARK  status: ('A' for Active; 'I' for Inactive)
REMARK    1  A    between atoms: C_3  and  C_9
REMARK    2  A    between atoms: C_4  and  C_20
REMARK    3  A    between atoms: C_17  and  C_18
REMARK    4  A    between atoms: C_20  and  O_21
REMARK    5  A    between atoms: O_21  and  C_22
REMARK    6  A    between atoms: C_25  and  N_28
REMARK                            x       y       z     vdW  Elec       q    Type
REMARK                         _______ _______ _______ _____ _____    ______ ____
ROOT
ATOM      1  S   UNL     1      33.504 -15.189 -25.270  0.00  0.00    -0.079 S 
ATOM      2  N   UNL     1      34.675 -15.371 -22.973  0.00  0.00    -0.404 NA
ATOM      3  C   UNL     1      34.134 -14.523 -23.819  0.00  0.00    +0.134 C 
ATOM      4  C   UNL     1      34.589 -16.644 -23.501  0.00  0.00    +0.142 C 
ATOM      5  C   UNL     1      33.987 -16.745 -24.738  0.00  0.00    +0.122 C 
ENDROOT
BRANCH   3   9
ATOM      6  N   UNL     1      32.901 -10.385 -23.918  0.00  0.00    -0.253 N 
ATOM      7  N   UNL     1      31.252  -8.841 -23.325  0.00  0.00    -0.203 NA
ATOM      8  N   UNL     1      33.066  -8.222 -24.785  0.00  0.00    -0.181 NA
ATOM      9  C   UNL     1      34.039 -13.026 -23.592  0.00  0.00    +0.062 C 
ATOM     10  C   UNL     1      34.207 -12.231 -24.895  0.00  0.00    +0.030 C 
ATOM     11  C   UNL     1      32.719 -12.628 -22.915  0.00  0.00    +0.030 C 
ATOM     12  C   UNL     1      34.130 -10.725 -24.644  0.00  0.00    +0.102 C 
ATOM     13  C   UNL     1      32.655 -11.120 -22.670  0.00  0.00    +0.102 C 
ATOM     14  C   UNL     1      32.382  -9.088 -24.013  0.00  0.00    +0.090 C 
ATOM     15  C   UNL     1      30.778  -7.582 -23.441  0.00  0.00    +0.161 C 
ATOM     16  C   UNL     1      32.537  -6.982 -24.855  0.00  0.00    +0.104 C 
ATOM     17  C   UNL     1      31.384  -6.602 -24.199  0.00  0.00    +0.001 C 
BRANCH  17  18
ATOM     18  C   UNL     1      30.833  -5.229 -24.301  0.00  0.00    +0.026 C 
ATOM     19  C   UNL     1      31.900  -4.150 -24.108  0.00  0.00    +0.005 C 
ENDBRANCH  17  18
ENDBRANCH   3   9
BRANCH   4  20
ATOM     20  C   UNL     1      35.138 -17.767 -22.716  0.00  0.00    +0.260 C 
BRANCH  20  21
ATOM     21  O   UNL     1      34.272 -18.897 -22.810  0.00  0.00    -0.468 OA
BRANCH  21  22
ATOM     22  C   UNL     1      34.279 -19.764 -21.752  0.00  0.00    +0.139 C 
ATOM     23  C   UNL     1      35.490 -20.237 -21.244  0.00  0.00    +0.038 C 
ATOM     24  C   UNL     1      33.076 -20.176 -21.179  0.00  0.00    +0.038 C 
ATOM     25  C   UNL     1      34.294 -21.533 -19.594  0.00  0.00    +0.078 C 
ATOM     26  C   UNL     1      35.497 -21.121 -20.166  0.00  0.00    +0.020 C 
ATOM     27  C   UNL     1      33.083 -21.060 -20.100  0.00  0.00    +0.020 C 
BRANCH  25  28
ATOM     28  N   UNL     1      34.301 -22.410 -18.525  0.00  0.00    -0.149 N 
ATOM     29  N   UNL     1      35.387 -22.606 -17.765  0.00  0.00    -0.048 NA
ATOM     30  N   UNL     1      33.700 -23.870 -17.038  0.00  0.00    -0.107 NA
ATOM     31  N   UNL     1      35.015 -23.499 -16.857  0.00  0.00    -0.024 NA
ATOM     32  C   UNL     1      33.278 -23.183 -18.074  0.00  0.00    +0.215 C 
ENDBRANCH  25  28
ENDBRANCH  21  22
ENDBRANCH  20  21
ENDBRANCH   4  20
TORSDOF 6
ENDMDL
MODEL 4
REMARK VINA RESULT:     -11.5      6.098      9.896
REMARK  Name = 25025505
REMARK  6 active torsions:
REMARK  status: ('A' for Active; 'I' for Inactive)
REMARK    1  A    between atoms: C_3  and  C_9
REMARK    2  A    between atoms: C_4  and  C_20
REMARK    3  A    between atoms: C_17  and  C_18
REMARK    4  A    between atoms: C_20  and  O_21
REMARK    5  A    between atoms: O_21  and  C_22
REMARK    6  A    between atoms: C_25  and  N_28
REMARK                            x       y       z     vdW  Elec       q    Type
REMARK                         _______ _______ _______ _____ _____    ______ ____
ROOT
ATOM      1  S   UNL     1      33.844 -16.575 -25.124  0.00  0.00    -0.079 S 
ATOM      2  N   UNL     1      34.604 -15.907 -22.746  0.00  0.00    -0.404 NA
ATOM      3  C   UNL     1      33.965 -15.477 -23.810  0.00  0.00    +0.134 C 
ATOM      4  C   UNL     1      35.035 -17.199 -22.975  0.00  0.00    +0.142 C 
ATOM      5  C   UNL     1      34.718 -17.731 -24.207  0.00  0.00    +0.122 C 
ENDROOT
BRANCH   3   9
ATOM      6  N   UNL     1      33.230 -11.225 -23.621  0.00  0.00    -0.253 N 
ATOM      7  N   UNL     1      33.880  -9.112 -24.375  0.00  0.00    -0.203 NA
ATOM      8  N   UNL     1      32.289  -9.356 -22.582  0.00  0.00    -0.181 NA
ATOM      9  C   UNL     1      33.342 -14.099 -23.940  0.00  0.00    +0.062 C 
ATOM     10  C   UNL     1      33.087 -13.449 -22.572  0.00  0.00    +0.030 C 
ATOM     11  C   UNL     1      34.195 -13.159 -24.804  0.00  0.00    +0.030 C 
ATOM     12  C   UNL     1      32.440 -12.072 -22.721  0.00  0.00    +0.102 C 
ATOM     13  C   UNL     1      33.537 -11.786 -24.944  0.00  0.00    +0.102 C 
ATOM     14  C   UNL     1      33.128  -9.832 -23.522  0.00  0.00    +0.090 C 
ATOM     15  C   UNL     1      33.758  -7.773 -24.251  0.00  0.00    +0.161 C 
ATOM     16  C   UNL     1      32.217  -8.011 -22.513  0.00  0.00    +0.104 C 
ATOM     17  C   UNL     1      32.935  -7.161 -23.329  0.00  0.00    +0.001 C 
BRANCH  17  18
ATOM     18  C   UNL     1      32.829  -5.686 -23.223  0.00  0.00    +0.026 C 
ATOM     19  C   UNL     1      33.277  -4.970 -24.499  0.00  0.00    +0.005 C 
ENDBRANCH  17  18
ENDBRANCH   3   9
BRANCH   4  20
ATOM     20  C   UNL     1      35.784 -17.888 -21.906  0.00  0.00    +0.260 C 
BRANCH  20  21
ATOM     21  O   UNL     1      35.792 -19.295 -22.145  0.00  0.00    -0.468 OA
BRANCH  21  22
ATOM     22  C   UNL     1      35.180 -20.079 -21.207  0.00  0.00    +0.139 C 
ATOM     23  C   UNL     1      35.947 -20.868 -20.348  0.00  0.00    +0.038 C 
ATOM     24  C   UNL     1      33.789 -20.092 -21.107  0.00  0.00    +0.038 C 
ATOM     25  C   UNL     1      33.933 -21.680 -19.292  0.00  0.00    +0.078 C 
ATOM     26  C   UNL     1      35.323 -21.668 -19.391  0.00  0.00    +0.020 C 
ATOM     27  C   UNL     1      33.164 -20.892 -20.150  0.00  0.00    +0.020 C 
BRANCH  25  28
ATOM     28  N   UNL     1      33.314 -22.473 -18.343  0.00  0.00    -0.149 N 
ATOM     29  N   UNL     1      31.983 -22.620 -18.288  0.00  0.00    -0.048 NA
ATOM     30  N   UNL     1      32.956 -23.811 -16.674  0.00  0.00    -0.107 NA
ATOM     31  N   UNL     1      31.769 -23.439 -17.266  0.00  0.00    -0.024 NA
ATOM     32  C   UNL     1      33.898 -23.203 -17.357  0.00  0.00    +0.215 C 
ENDBRANCH  25  28
ENDBRANCH  21  22
ENDBRANCH  20  21
ENDBRANCH   4  20
TORSDOF 6
ENDMDL
MODEL 5
REMARK VINA RESULT:     -11.4      4.615     10.392
REMARK  Name = 25025505
REMARK  6 active torsions:
REMARK  status: ('A' for Active; 'I' for Inactive)
REMARK    1  A    between atoms: C_3  and  C_9
REMARK    2  A    between atoms: C_4  and  C_20
REMARK    3  A    between atoms: C_17  and  C_18
REMARK    4  A    between atoms: C_20  and  O_21
REMARK    5  A    between atoms: O_21  and  C_22
REMARK    6  A    between atoms: C_25  and  N_28
REMARK                            x       y       z     vdW  Elec       q    Type
REMARK                         _______ _______ _______ _____ _____    ______ ____
ROOT
ATOM      1  S   UNL     1      36.703 -19.139 -21.220  0.00  0.00    -0.079 S 
ATOM      2  N   UNL     1      34.494 -19.420 -22.533  0.00  0.00    -0.404 NA
ATOM      3  C   UNL     1      35.206 -19.914 -21.545  0.00  0.00    +0.134 C 
ATOM      4  C   UNL     1      35.173 -18.349 -23.081  0.00  0.00    +0.142 C 
ATOM      5  C   UNL     1      36.388 -18.046 -22.503  0.00  0.00    +0.122 C 
ENDROOT
BRANCH   3   9
ATOM      6  N   UNL     1      33.855 -22.416 -18.294  0.00  0.00    -0.253 N 
ATOM      7  N   UNL     1      32.064 -22.992 -16.908  0.00  0.00    -0.203 NA
ATOM      8  N   UNL     1      34.287 -23.814 -16.473  0.00  0.00    -0.181 NA
ATOM      9  C   UNL     1      34.790 -21.101 -20.697  0.00  0.00    +0.062 C 
ATOM     10  C   UNL     1      35.698 -21.282 -19.471  0.00  0.00    +0.030 C 
ATOM     11  C   UNL     1      33.327 -21.001 -20.241  0.00  0.00    +0.030 C 
ATOM     12  C   UNL     1      35.279 -22.494 -18.639  0.00  0.00    +0.102 C 
ATOM     13  C   UNL     1      32.921 -22.219 -19.411  0.00  0.00    +0.102 C 
ATOM     14  C   UNL     1      33.379 -23.107 -17.173  0.00  0.00    +0.090 C 
ATOM     15  C   UNL     1      31.641 -23.669 -15.821  0.00  0.00    +0.161 C 
ATOM     16  C   UNL     1      33.795 -24.466 -15.399  0.00  0.00    +0.104 C 
ATOM     17  C   UNL     1      32.469 -24.429 -15.020  0.00  0.00    +0.001 C 
BRANCH  17  18
ATOM     18  C   UNL     1      31.965 -25.159 -13.832  0.00  0.00    +0.026 C 
ATOM     19  C   UNL     1      30.516 -24.803 -13.493  0.00  0.00    +0.005 C 
ENDBRANCH  17  18
ENDBRANCH   3   9
BRANCH   4  20
ATOM     20  C   UNL     1      34.555 -17.633 -24.215  0.00  0.00    +0.260 C 
BRANCH  20  21
ATOM     21  O   UNL     1      35.102 -16.319 -24.318  0.00  0.00    -0.468 OA
BRANCH  21  22
ATOM     22  C   UNL     1      34.357 -15.303 -23.785  0.00  0.00    +0.139 C 
ATOM     23  C   UNL     1      34.426 -15.029 -22.418  0.00  0.00    +0.038 C 
ATOM     24  C   UNL     1      33.528 -14.540 -24.607  0.00  0.00    +0.038 C 
ATOM     25  C   UNL     1      32.837 -13.232 -22.697  0.00  0.00    +0.078 C 
ATOM     26  C   UNL     1      33.665 -13.994 -21.875  0.00  0.00    +0.020 C 
ATOM     27  C   UNL     1      32.767 -13.505 -24.064  0.00  0.00    +0.020 C 
BRANCH  25  28
ATOM     28  N   UNL     1      32.083 -12.205 -22.158  0.00  0.00    -0.149 N 
ATOM     29  N   UNL     1      31.331 -12.367 -21.061  0.00  0.00    -0.048 NA
ATOM     30  N   UNL     1      31.157 -10.275 -21.813  0.00  0.00    -0.107 NA
ATOM     31  N   UNL     1      30.767 -11.183 -20.854  0.00  0.00    -0.024 NA
ATOM     32  C   UNL     1      31.971 -10.928 -22.609  0.00  0.00    +0.215 C 
ENDBRANCH  25  28
ENDBRANCH  21  22
ENDBRANCH  20  21
ENDBRANCH   4  20
TORSDOF 6
ENDMDL
MODEL 6
REMARK VINA RESULT:     -11.2      5.886      9.907
REMARK  Name = 25025505
REMARK  6 active torsions:
REMARK  status: ('A' for Active; 'I' for Inactive)
REMARK    1  A    between atoms: C_3  and  C_9
REMARK    2  A    between atoms: C_4  and  C_20
REMARK    3  A    between atoms: C_17  and  C_18
REMARK    4  A    between atoms: C_20  and  O_21
REMARK    5  A    between atoms: O_21  and  C_22
REMARK    6  A    between atoms: C_25  and  N_28
REMARK                            x       y       z     vdW  Elec       q    Type
REMARK                         _______ _______ _______ _____ _____    ______ ____
ROOT
ATOM      1  S   UNL     1      33.891 -16.360 -25.121  0.00  0.00    -0.079 S 
ATOM      2  N   UNL     1      34.859 -16.568 -22.734  0.00  0.00    -0.404 NA
ATOM      3  C   UNL     1      34.404 -15.710 -23.618  0.00  0.00    +0.134 C 
ATOM      4  C   UNL     1      34.803 -17.838 -23.275  0.00  0.00    +0.142 C 
ATOM      5  C   UNL     1      34.307 -17.925 -24.559  0.00  0.00    +0.122 C 
ENDROOT
BRANCH   3   9
ATOM      6  N   UNL     1      33.030 -11.617 -23.475  0.00  0.00    -0.253 N 
ATOM      7  N   UNL     1      31.504 -10.118 -22.535  0.00  0.00    -0.203 NA
ATOM      8  N   UNL     1      32.913  -9.466 -24.379  0.00  0.00    -0.181 NA
ATOM      9  C   UNL     1      34.308 -14.212 -23.390  0.00  0.00    +0.062 C 
ATOM     10  C   UNL     1      34.145 -13.437 -24.706  0.00  0.00    +0.030 C 
ATOM     11  C   UNL     1      33.165 -13.846 -22.433  0.00  0.00    +0.030 C 
ATOM     12  C   UNL     1      34.072 -11.929 -24.460  0.00  0.00    +0.102 C 
ATOM     13  C   UNL     1      33.103 -12.337 -22.195  0.00  0.00    +0.102 C 
ATOM     14  C   UNL     1      32.456 -10.340 -23.462  0.00  0.00    +0.090 C 
ATOM     15  C   UNL     1      30.972  -8.878 -22.552  0.00  0.00    +0.161 C 
ATOM     16  C   UNL     1      32.337  -8.247 -24.339  0.00  0.00    +0.104 C 
ATOM     17  C   UNL     1      31.351  -7.892 -23.440  0.00  0.00    +0.001 C 
BRANCH  17  18
ATOM     18  C   UNL     1      30.742  -6.541 -23.427  0.00  0.00    +0.026 C 
ATOM     19  C   UNL     1      31.099  -5.721 -24.667  0.00  0.00    +0.005 C 
ENDBRANCH  17  18
ENDBRANCH   3   9
BRANCH   4  20
ATOM     20  C   UNL     1      35.269 -18.972 -22.453  0.00  0.00    +0.260 C 
BRANCH  20  21
ATOM     21  O   UNL     1      34.155 -19.756 -22.027  0.00  0.00    -0.468 OA
BRANCH  21  22
ATOM     22  C   UNL     1      34.344 -20.538 -20.921  0.00  0.00    +0.139 C 
ATOM     23  C   UNL     1      33.246 -21.099 -20.267  0.00  0.00    +0.038 C 
ATOM     24  C   UNL     1      35.633 -20.774 -20.445  0.00  0.00    +0.038 C 
ATOM     25  C   UNL     1      34.728 -22.132 -18.664  0.00  0.00    +0.078 C 
ATOM     26  C   UNL     1      33.439 -21.896 -19.138  0.00  0.00    +0.020 C 
ATOM     27  C   UNL     1      35.826 -21.571 -19.317  0.00  0.00    +0.020 C 
BRANCH  25  28
ATOM     28  N   UNL     1      34.919 -22.922 -17.545  0.00  0.00    -0.149 N 
ATOM     29  N   UNL     1      34.055 -23.882 -17.188  0.00  0.00    -0.048 NA
ATOM     30  N   UNL     1      35.749 -23.796 -15.742  0.00  0.00    -0.107 NA
ATOM     31  N   UNL     1      34.567 -24.413 -16.085  0.00  0.00    -0.024 NA
ATOM     32  C   UNL     1      35.948 -22.877 -16.658  0.00  0.00    +0.215 C 
ENDBRANCH  25  28
ENDBRANCH  21  22
ENDBRANCH  20  21
ENDBRANCH   4  20
TORSDOF 6
ENDMDL
MODEL 7
REMARK VINA RESULT:     -11.1      5.086     11.528
REMARK  Name = 25025505
REMARK  6 active torsions:
REMARK  status: ('A' for Active; 'I' for Inactive)
REMARK    1  A    between atoms: C_3  and  C_9
REMARK    2  A    between atoms: C_4  and  C_20
REMARK    3  A    between atoms: C_17  and  C_18
REMARK    4  A    between atoms: C_20  and  O_21
REMARK    5  A    between atoms: O_21  and  C_22
REMARK    6  A    between atoms: C_25  and  N_28
REMARK                            x       y       z     vdW  Elec       q    Type
REMARK                         _______ _______ _______ _____ _____    ______ ____
ROOT
ATOM      1  S   UNL     1      36.056 -18.394 -21.649  0.00  0.00    -0.079 S 
ATOM      2  N   UNL     1      34.175 -18.980 -23.322  0.00  0.00    -0.404 NA
ATOM      3  C   UNL     1      34.748 -19.358 -22.202  0.00  0.00    +0.134 C 
ATOM      4  C   UNL     1      34.809 -17.845 -23.787  0.00  0.00    +0.142 C 
ATOM      5  C   UNL     1      35.853 -17.378 -23.015  0.00  0.00    +0.122 C 
ENDROOT
BRANCH   3   9
ATOM      6  N   UNL     1      33.490 -21.968 -18.998  0.00  0.00    -0.253 N 
ATOM      7  N   UNL     1      31.769 -22.533 -17.523  0.00  0.00    -0.203 NA
ATOM      8  N   UNL     1      33.970 -23.485 -17.287  0.00  0.00    -0.181 NA
ATOM      9  C   UNL     1      34.329 -20.569 -21.389  0.00  0.00    +0.062 C 
ATOM     10  C   UNL     1      35.307 -20.862 -20.241  0.00  0.00    +0.030 C 
ATOM     11  C   UNL     1      32.907 -20.424 -20.827  0.00  0.00    +0.030 C 
ATOM     12  C   UNL     1      34.881 -22.097 -19.446  0.00  0.00    +0.102 C 
ATOM     13  C   UNL     1      32.494 -21.665 -20.036  0.00  0.00    +0.102 C 
ATOM     14  C   UNL     1      33.056 -22.697 -17.884  0.00  0.00    +0.090 C 
ATOM     15  C   UNL     1      31.385 -23.248 -16.445  0.00  0.00    +0.161 C 
ATOM     16  C   UNL     1      33.519 -24.171 -16.217  0.00  0.00    +0.104 C 
ATOM     17  C   UNL     1      32.225 -24.091 -15.745  0.00  0.00    +0.001 C 
BRANCH  17  18
ATOM     18  C   UNL     1      31.764 -24.860 -14.564  0.00  0.00    +0.026 C 
ATOM     19  C   UNL     1      30.273 -24.671 -14.282  0.00  0.00    +0.005 C 
ENDBRANCH  17  18
ENDBRANCH   3   9
BRANCH   4  20
ATOM     20  C   UNL     1      34.329 -17.238 -25.045  0.00  0.00    +0.260 C 
BRANCH  20  21
ATOM     21  O   UNL     1      33.204 -16.400 -24.783  0.00  0.00    -0.468 OA
BRANCH  21  22
ATOM     22  C   UNL     1      33.433 -15.052 -24.782  0.00  0.00    +0.139 C 
ATOM     23  C   UNL     1      33.389 -14.335 -25.978  0.00  0.00    +0.038 C 
ATOM     24  C   UNL     1      33.710 -14.392 -23.585  0.00  0.00    +0.038 C 
ATOM     25  C   UNL     1      33.901 -12.301 -24.780  0.00  0.00    +0.078 C 
ATOM     26  C   UNL     1      33.623 -12.960 -25.977  0.00  0.00    +0.020 C 
ATOM     27  C   UNL     1      33.944 -13.017 -23.583  0.00  0.00    +0.020 C 
BRANCH  25  28
ATOM     28  N   UNL     1      34.132 -10.938 -24.779  0.00  0.00    -0.149 N 
ATOM     29  N   UNL     1      35.073 -10.369 -25.545  0.00  0.00    -0.048 NA
ATOM     30  N   UNL     1      34.017  -8.816 -24.343  0.00  0.00    -0.107 NA
ATOM     31  N   UNL     1      34.998  -9.072 -25.275  0.00  0.00    -0.024 NA
ATOM     32  C   UNL     1      33.494  -9.984 -24.051  0.00  0.00    +0.215 C 
ENDBRANCH  25  28
ENDBRANCH  21  22
ENDBRANCH  20  21
ENDBRANCH   4  20
TORSDOF 6
ENDMDL
MODEL 8
REMARK VINA RESULT:     -10.9      4.924     10.814
REMARK  Name = 25025505
REMARK  6 active torsions:
REMARK  status: ('A' for Active; 'I' for Inactive)
REMARK    1  A    between atoms: C_3  and  C_9
REMARK    2  A    between atoms: C_4  and  C_20
REMARK    3  A    between atoms: C_17  and  C_18
REMARK    4  A    between atoms: C_20  and  O_21
REMARK    5  A    between atoms: O_21  and  C_22
REMARK    6  A    between atoms: C_25  and  N_28
REMARK                            x       y       z     vdW  Elec       q    Type
REMARK                         _______ _______ _______ _____ _____    ______ ____
ROOT
ATOM      1  S   UNL     1      33.207 -20.747 -20.545  0.00  0.00    -0.079 S 
ATOM      2  N   UNL     1      35.702 -20.247 -20.997  0.00  0.00    -0.404 NA
ATOM      3  C   UNL     1      34.885 -20.955 -20.251  0.00  0.00    +0.134 C 
ATOM      4  C   UNL     1      34.957 -19.479 -21.870  0.00  0.00    +0.142 C 
ATOM      5  C   UNL     1      33.588 -19.614 -21.775  0.00  0.00    +0.122 C 
ENDROOT
BRANCH   3   9
ATOM      6  N   UNL     1      35.753 -22.813 -16.450  0.00  0.00    -0.253 N 
ATOM      7  N   UNL     1      34.864 -23.730 -14.494  0.00  0.00    -0.203 NA
ATOM      8  N   UNL     1      37.228 -23.318 -14.710  0.00  0.00    -0.181 NA
ATOM      9  C   UNL     1      35.330 -21.924 -19.171  0.00  0.00    +0.062 C 
ATOM     10  C   UNL     1      36.450 -21.340 -18.298  0.00  0.00    +0.030 C 
ATOM     11  C   UNL     1      34.162 -22.370 -18.278  0.00  0.00    +0.030 C 
ATOM     12  C   UNL     1      36.902 -22.336 -17.229  0.00  0.00    +0.102 C 
ATOM     13  C   UNL     1      34.627 -23.366 -17.215  0.00  0.00    +0.102 C 
ATOM     14  C   UNL     1      35.958 -23.311 -15.157  0.00  0.00    +0.090 C 
ATOM     15  C   UNL     1      35.097 -24.202 -13.252  0.00  0.00    +0.161 C 
ATOM     16  C   UNL     1      37.389 -23.803 -13.461  0.00  0.00    +0.104 C 
ATOM     17  C   UNL     1      36.350 -24.263 -12.677  0.00  0.00    +0.001 C 
BRANCH  17  18
ATOM     18  C   UNL     1      36.566 -24.789 -11.308  0.00  0.00    +0.026 C 
ATOM     19  C   UNL     1      35.381 -24.519 -10.379  0.00  0.00    +0.005 C 
ENDBRANCH  17  18
ENDBRANCH   3   9
BRANCH   4  20
ATOM     20  C   UNL     1      35.672 -18.595 -22.812  0.00  0.00    +0.260 C 
BRANCH  20  21
ATOM     21  O   UNL     1      34.788 -18.173 -23.851  0.00  0.00    -0.468 OA
BRANCH  21  22
ATOM     22  C   UNL     1      34.512 -16.835 -23.914  0.00  0.00    +0.139 C 
ATOM     23  C   UNL     1      34.778 -16.014 -22.817  0.00  0.00    +0.038 C 
ATOM     24  C   UNL     1      33.965 -16.289 -25.074  0.00  0.00    +0.038 C 
ATOM     25  C   UNL     1      33.948 -14.106 -24.042  0.00  0.00    +0.078 C 
ATOM     26  C   UNL     1      34.496 -14.650 -22.881  0.00  0.00    +0.020 C 
ATOM     27  C   UNL     1      33.682 -14.925 -25.139  0.00  0.00    +0.020 C 
BRANCH  25  28
ATOM     28  N   UNL     1      33.668 -12.753 -24.106  0.00  0.00    -0.149 N 
ATOM     29  N   UNL     1      32.924 -12.130 -23.182  0.00  0.00    -0.048 NA
ATOM     30  N   UNL     1      33.587 -10.681 -24.741  0.00  0.00    -0.107 NA
ATOM     31  N   UNL     1      32.877 -10.863 -23.575  0.00  0.00    -0.024 NA
ATOM     32  C   UNL     1      34.068 -11.863 -25.052  0.00  0.00    +0.215 C 
ENDBRANCH  25  28
ENDBRANCH  21  22
ENDBRANCH  20  21
ENDBRANCH   4  20
TORSDOF 6
ENDMDL
MODEL 9
REMARK VINA RESULT:     -10.8      7.089     11.264
REMARK  Name = 25025505
REMARK  6 active torsions:
REMARK  status: ('A' for Active; 'I' for Inactive)
REMARK    1  A    between atoms: C_3  and  C_9
REMARK    2  A    between atoms: C_4  and  C_20
REMARK    3  A    between atoms: C_17  and  C_18
REMARK    4  A    between atoms: C_20  and  O_21
REMARK    5  A    between atoms: O_21  and  C_22
REMARK    6  A    between atoms: C_25  and  N_28
REMARK                            x       y       z     vdW  Elec       q    Type
REMARK                         _______ _______ _______ _____ _____    ______ ____
ROOT
ATOM      1  S   UNL     1      34.007 -14.052 -21.722  0.00  0.00    -0.079 S 
ATOM      2  N   UNL     1      34.095 -14.809 -24.192  0.00  0.00    -0.404 NA
ATOM      3  C   UNL     1      33.775 -13.806 -23.405  0.00  0.00    +0.134 C 
ATOM      4  C   UNL     1      34.559 -15.854 -23.418  0.00  0.00    +0.142 C 
ATOM      5  C   UNL     1      34.585 -15.631 -22.057  0.00  0.00    +0.122 C 
ENDROOT
BRANCH   3   9
ATOM      6  N   UNL     1      33.161  -9.594 -24.136  0.00  0.00    -0.253 N 
ATOM      7  N   UNL     1      33.990  -7.665 -25.161  0.00  0.00    -0.203 NA
ATOM      8  N   UNL     1      32.133  -7.558 -23.629  0.00  0.00    -0.181 NA
ATOM      9  C   UNL     1      33.226 -12.477 -23.888  0.00  0.00    +0.062 C 
ATOM     10  C   UNL     1      32.784 -11.577 -22.724  0.00  0.00    +0.030 C 
ATOM     11  C   UNL     1      34.234 -11.721 -24.767  0.00  0.00    +0.030 C 
ATOM     12  C   UNL     1      32.213 -10.251 -23.229  0.00  0.00    +0.102 C 
ATOM     13  C   UNL     1      33.651 -10.398 -25.265  0.00  0.00    +0.102 C 
ATOM     14  C   UNL     1      33.091  -8.207 -24.318  0.00  0.00    +0.090 C 
ATOM     15  C   UNL     1      33.895  -6.327 -25.311  0.00  0.00    +0.161 C 
ATOM     16  C   UNL     1      32.095  -6.224 -23.826  0.00  0.00    +0.104 C 
ATOM     17  C   UNL     1      32.959  -5.547 -24.662  0.00  0.00    +0.001 C 
BRANCH  17  18
ATOM     18  C   UNL     1      32.887  -4.079 -24.854  0.00  0.00    +0.026 C 
ATOM     19  C   UNL     1      31.872  -3.412 -23.923  0.00  0.00    +0.005 C 
ENDBRANCH  17  18
ENDBRANCH   3   9
BRANCH   4  20
ATOM     20  C   UNL     1      34.979 -17.096 -24.095  0.00  0.00    +0.260 C 
BRANCH  20  21
ATOM     21  O   UNL     1      35.943 -17.784 -23.299  0.00  0.00    -0.468 OA
BRANCH  21  22
ATOM     22  C   UNL     1      35.461 -18.716 -22.423  0.00  0.00    +0.139 C 
ATOM     23  C   UNL     1      34.140 -19.153 -22.524  0.00  0.00    +0.038 C 
ATOM     24  C   UNL     1      36.290 -19.232 -21.427  0.00  0.00    +0.038 C 
ATOM     25  C   UNL     1      34.477 -20.618 -20.634  0.00  0.00    +0.078 C 
ATOM     26  C   UNL     1      33.648 -20.103 -21.630  0.00  0.00    +0.020 C 
ATOM     27  C   UNL     1      35.799 -20.183 -20.532  0.00  0.00    +0.020 C 
BRANCH  25  28
ATOM     28  N   UNL     1      33.990 -21.561 -19.747  0.00  0.00    -0.149 N 
ATOM     29  N   UNL     1      32.678 -21.765 -19.567  0.00  0.00    -0.048 NA
ATOM     30  N   UNL     1      33.857 -23.134 -18.261  0.00  0.00    -0.107 NA
ATOM     31  N   UNL     1      32.602 -22.728 -18.657  0.00  0.00    -0.024 NA
ATOM     32  C   UNL     1      34.700 -22.399 -18.948  0.00  0.00    +0.215 C 
ENDBRANCH  25  28
ENDBRANCH  21  22
ENDBRANCH  20  21
ENDBRANCH   4  20
TORSDOF 6
ENDMDL
