MODEL 1
REMARK VINA RESULT:     -12.9      0.000      0.000
REMARK  Name = 25049750
REMARK  7 active torsions:
REMARK  status: ('A' for Active; 'I' for Inactive)
REMARK    1  A    between atoms: C_1  and  C_14
REMARK    2  A    between atoms: C_6  and  O_20
REMARK    3  A    between atoms: C_10  and  C_17
REMARK    4  A    between atoms: C_17  and  O_18
REMARK    5  A    between atoms: O_20  and  C_21
REMARK    6  A    between atoms: C_21  and  C_23
REMARK    7  A    between atoms: C_27  and  C_32
REMARK                            x       y       z     vdW  Elec       q    Type
REMARK                         _______ _______ _______ _____ _____    ______ ____
ROOT
ATOM      1  C   UNL     1      34.727 -19.956 -21.897  0.00  0.00    -0.004 C 
ATOM      2  C   UNL     1      33.344 -19.877 -21.727  0.00  0.00    +0.000 C 
ATOM      3  C   UNL     1      35.499 -20.690 -20.997  0.00  0.00    +0.000 C 
ATOM      4  C   UNL     1      32.735 -20.531 -20.656  0.00  0.00    +0.037 C 
ATOM      5  C   UNL     1      34.889 -21.345 -19.927  0.00  0.00    +0.037 C 
ATOM      6  C   UNL     1      33.507 -21.266 -19.757  0.00  0.00    +0.139 C 
ENDROOT
BRANCH   1  14
ATOM      7  O   UNL     1      33.376 -17.458 -25.380  0.00  0.00    -0.275 OA
ATOM      8  N   UNL     1      34.499 -19.144 -24.205  0.00  0.00    -0.302 N 
ATOM      9  C   UNL     1      34.832 -16.994 -23.555  0.00  0.00    +0.081 C 
ATOM     10  C   UNL     1      34.091 -15.883 -22.896  0.00  0.00    +0.108 C 
ATOM     11  C   UNL     1      35.171 -15.589 -23.903  0.00  0.00    +0.021 C 
ATOM     12  C   UNL     1      35.791 -17.790 -22.749  0.00  0.00    +0.033 C 
ATOM     13  C   UNL     1      34.132 -17.845 -24.502  0.00  0.00    +0.222 C 
ATOM     14  C   UNL     1      35.387 -19.247 -23.058  0.00  0.00    +0.095 C 
ATOM     15  H   UNL     1      34.189 -19.924 -24.720  0.00  0.00    +0.150 HD
BRANCH  10  17
ATOM     16  O   UNL     1      34.683 -16.281 -20.663  0.00  0.00    -0.250 OA
ATOM     17  C   UNL     1      34.419 -15.478 -21.546  0.00  0.00    +0.314 C 
BRANCH  17  18
ATOM     18  O   UNL     1      34.402 -14.133 -21.385  0.00  0.00    -0.480 OA
ATOM     19  H   UNL     1      34.858 -13.741 -20.667  0.00  0.00    +0.295 HD
ENDBRANCH  17  18
ENDBRANCH  10  17
ENDBRANCH   1  14
BRANCH   6  20
ATOM     20  O   UNL     1      32.908 -21.909 -18.705  0.00  0.00    -0.471 OA
BRANCH  20  21
ATOM     21  C   UNL     1      33.367 -23.221 -18.410  0.00  0.00    +0.229 C 
BRANCH  21  23
ATOM     22  N   UNL     1      33.416 -23.828 -14.175  0.00  0.00    -0.406 NA
ATOM     23  C   UNL     1      33.347 -23.428 -16.928  0.00  0.00    +0.012 C 
ATOM     24  C   UNL     1      32.161 -23.381 -16.183  0.00  0.00    +0.096 C 
ATOM     25  C   UNL     1      34.558 -23.674 -16.297  0.00  0.00    +0.028 C 
ATOM     26  C   UNL     1      32.243 -23.589 -14.790  0.00  0.00    +0.117 C 
ATOM     27  C   UNL     1      34.538 -23.865 -14.930  0.00  0.00    +0.130 C 
ATOM     28  C   UNL     1      30.918 -23.135 -16.793  0.00  0.00    -0.015 C 
ATOM     29  C   UNL     1      31.064 -23.542 -14.051  0.00  0.00    +0.028 C 
ATOM     30  C   UNL     1      29.756 -23.093 -16.029  0.00  0.00    -0.004 C 
ATOM     31  C   UNL     1      29.829 -23.297 -14.657  0.00  0.00    +0.002 C 
BRANCH  27  32
ATOM     32  C   UNL     1      35.754 -24.125 -14.197  0.00  0.00    +0.030 C 
ATOM     33  C   UNL     1      35.978 -23.498 -12.971  0.00  0.00    +0.003 C 
ATOM     34  C   UNL     1      36.706 -25.004 -14.715  0.00  0.00    +0.003 C 
ATOM     35  C   UNL     1      37.153 -23.750 -12.263  0.00  0.00    +0.000 C 
ATOM     36  C   UNL     1      37.881 -25.256 -14.006  0.00  0.00    +0.000 C 
ATOM     37  C   UNL     1      38.104 -24.628 -12.781  0.00  0.00    +0.000 C 
ENDBRANCH  27  32
ENDBRANCH  21  23
ENDBRANCH  20  21
ENDBRANCH   6  20
TORSDOF 7
ENDMDL
MODEL 2
REMARK VINA RESULT:     -12.2      1.107      4.185
REMARK  Name = 25049750
REMARK  7 active torsions:
REMARK  status: ('A' for Active; 'I' for Inactive)
REMARK    1  A    between atoms: C_1  and  C_14
REMARK    2  A    between atoms: C_6  and  O_20
REMARK    3  A    between atoms: C_10  and  C_17
REMARK    4  A    between atoms: C_17  and  O_18
REMARK    5  A    between atoms: O_20  and  C_21
REMARK    6  A    between atoms: C_21  and  C_23
REMARK    7  A    between atoms: C_27  and  C_32
REMARK                            x       y       z     vdW  Elec       q    Type
REMARK                         _______ _______ _______ _____ _____    ______ ____
ROOT
ATOM      1  C   UNL     1      35.112 -19.192 -22.315  0.00  0.00    -0.004 C 
ATOM      2  C   UNL     1      36.033 -19.822 -21.476  0.00  0.00    +0.000 C 
ATOM      3  C   UNL     1      33.746 -19.413 -22.140  0.00  0.00    +0.000 C 
ATOM      4  C   UNL     1      35.587 -20.671 -20.464  0.00  0.00    +0.037 C 
ATOM      5  C   UNL     1      33.301 -20.263 -21.128  0.00  0.00    +0.037 C 
ATOM      6  C   UNL     1      34.221 -20.891 -20.289  0.00  0.00    +0.139 C 
ENDROOT
BRANCH   1  14
ATOM      7  O   UNL     1      33.225 -16.714 -25.554  0.00  0.00    -0.275 OA
ATOM      8  N   UNL     1      34.679 -18.243 -24.540  0.00  0.00    -0.302 N 
ATOM      9  C   UNL     1      34.603 -16.134 -23.702  0.00  0.00    +0.081 C 
ATOM     10  C   UNL     1      33.675 -15.251 -22.943  0.00  0.00    +0.108 C 
ATOM     11  C   UNL     1      34.656 -14.665 -23.925  0.00  0.00    +0.021 C 
ATOM     12  C   UNL     1      35.716 -16.795 -22.975  0.00  0.00    +0.033 C 
ATOM     13  C   UNL     1      34.061 -17.021 -24.719  0.00  0.00    +0.222 C 
ATOM     14  C   UNL     1      35.596 -18.270 -23.412  0.00  0.00    +0.095 C 
ATOM     15  H   UNL     1      34.515 -19.021 -25.121  0.00  0.00    +0.150 HD
BRANCH  10  17
ATOM     16  O   UNL     1      34.552 -15.655 -20.806  0.00  0.00    -0.250 OA
ATOM     17  C   UNL     1      33.949 -14.909 -21.564  0.00  0.00    +0.314 C 
BRANCH  17  18
ATOM     18  O   UNL     1      33.469 -13.688 -21.223  0.00  0.00    -0.480 OA
ATOM     19  H   UNL     1      33.925 -12.914 -21.489  0.00  0.00    +0.295 HD
ENDBRANCH  17  18
ENDBRANCH  10  17
ENDBRANCH   1  14
BRANCH   6  20
ATOM     20  O   UNL     1      33.783 -21.727 -19.294  0.00  0.00    -0.471 OA
BRANCH  20  21
ATOM     21  C   UNL     1      34.778 -22.429 -18.563  0.00  0.00    +0.229 C 
BRANCH  21  23
ATOM     22  N   UNL     1      32.984 -23.872 -14.956  0.00  0.00    -0.406 NA
ATOM     23  C   UNL     1      34.184 -22.934 -17.285  0.00  0.00    +0.012 C 
ATOM     24  C   UNL     1      34.964 -23.189 -16.148  0.00  0.00    +0.096 C 
ATOM     25  C   UNL     1      32.813 -23.147 -17.253  0.00  0.00    +0.028 C 
ATOM     26  C   UNL     1      34.313 -23.664 -14.990  0.00  0.00    +0.117 C 
ATOM     27  C   UNL     1      32.267 -23.614 -16.074  0.00  0.00    +0.130 C 
ATOM     28  C   UNL     1      36.354 -22.983 -16.149  0.00  0.00    -0.015 C 
ATOM     29  C   UNL     1      35.089 -23.917 -13.862  0.00  0.00    +0.028 C 
ATOM     30  C   UNL     1      37.104 -23.245 -15.007  0.00  0.00    -0.004 C 
ATOM     31  C   UNL     1      36.471 -23.712 -13.862  0.00  0.00    +0.002 C 
BRANCH  27  32
ATOM     32  C   UNL     1      30.850 -23.862 -15.958  0.00  0.00    +0.030 C 
ATOM     33  C   UNL     1      30.391 -24.941 -15.201  0.00  0.00    +0.003 C 
ATOM     34  C   UNL     1      29.940 -23.025 -16.602  0.00  0.00    +0.003 C 
ATOM     35  C   UNL     1      29.021 -25.181 -15.088  0.00  0.00    +0.000 C 
ATOM     36  C   UNL     1      28.570 -23.265 -16.489  0.00  0.00    +0.000 C 
ATOM     37  C   UNL     1      28.112 -24.344 -15.733  0.00  0.00    +0.000 C 
ENDBRANCH  27  32
ENDBRANCH  21  23
ENDBRANCH  20  21
ENDBRANCH   6  20
TORSDOF 7
ENDMDL
MODEL 3
REMARK VINA RESULT:     -11.8      5.177     12.368
REMARK  Name = 25049750
REMARK  7 active torsions:
REMARK  status: ('A' for Active; 'I' for Inactive)
REMARK    1  A    between atoms: C_1  and  C_14
REMARK    2  A    between atoms: C_6  and  O_20
REMARK    3  A    between atoms: C_10  and  C_17
REMARK    4  A    between atoms: C_17  and  O_18
REMARK    5  A    between atoms: O_20  and  C_21
REMARK    6  A    between atoms: C_21  and  C_23
REMARK    7  A    between atoms: C_27  and  C_32
REMARK                            x       y       z     vdW  Elec       q    Type
REMARK                         _______ _______ _______ _____ _____    ______ ____
ROOT
ATOM      1  C   UNL     1      35.222 -17.443 -23.601  0.00  0.00    -0.004 C 
ATOM      2  C   UNL     1      34.564 -17.336 -24.827  0.00  0.00    +0.000 C 
ATOM      3  C   UNL     1      35.110 -16.421 -22.658  0.00  0.00    +0.000 C 
ATOM      4  C   UNL     1      33.795 -16.207 -25.109  0.00  0.00    +0.037 C 
ATOM      5  C   UNL     1      34.341 -15.292 -22.942  0.00  0.00    +0.037 C 
ATOM      6  C   UNL     1      33.683 -15.185 -24.167  0.00  0.00    +0.139 C 
ENDROOT
BRANCH   1  14
ATOM      7  O   UNL     1      37.314 -19.142 -20.005  0.00  0.00    -0.275 OA
ATOM      8  N   UNL     1      36.994 -18.427 -22.211  0.00  0.00    -0.302 N 
ATOM      9  C   UNL     1      35.573 -19.993 -21.385  0.00  0.00    +0.081 C 
ATOM     10  C   UNL     1      34.472 -20.110 -20.388  0.00  0.00    +0.108 C 
ATOM     11  C   UNL     1      35.360 -21.289 -20.688  0.00  0.00    +0.021 C 
ATOM     12  C   UNL     1      35.224 -19.882 -22.824  0.00  0.00    +0.033 C 
ATOM     13  C   UNL     1      36.723 -19.162 -21.073  0.00  0.00    +0.222 C 
ATOM     14  C   UNL     1      36.054 -18.668 -23.294  0.00  0.00    +0.095 C 
ATOM     15  H   UNL     1      37.750 -17.801 -22.282  0.00  0.00    +0.150 HD
BRANCH  10  17
ATOM     16  O   UNL     1      32.680 -19.818 -21.871  0.00  0.00    -0.250 OA
ATOM     17  C   UNL     1      33.102 -20.280 -20.821  0.00  0.00    +0.314 C 
BRANCH  17  18
ATOM     18  O   UNL     1      32.362 -21.001 -19.943  0.00  0.00    -0.480 OA
ATOM     19  H   UNL     1      31.440 -21.098 -20.077  0.00  0.00    +0.295 HD
ENDBRANCH  17  18
ENDBRANCH  10  17
ENDBRANCH   1  14
BRANCH   6  20
ATOM     20  O   UNL     1      32.928 -14.076 -24.445  0.00  0.00    -0.471 OA
BRANCH  20  21
ATOM     21  C   UNL     1      33.456 -13.163 -25.397  0.00  0.00    +0.229 C 
BRANCH  21  23
ATOM     22  N   UNL     1      33.467  -9.274 -23.614  0.00  0.00    -0.406 NA
ATOM     23  C   UNL     1      33.481 -11.790 -24.801  0.00  0.00    +0.012 C 
ATOM     24  C   UNL     1      34.161 -10.725 -25.407  0.00  0.00    +0.096 C 
ATOM     25  C   UNL     1      32.799 -11.595 -23.609  0.00  0.00    +0.028 C 
ATOM     26  C   UNL     1      34.127  -9.467 -24.770  0.00  0.00    +0.117 C 
ATOM     27  C   UNL     1      32.823 -10.327 -23.061  0.00  0.00    +0.130 C 
ATOM     28  C   UNL     1      34.861 -10.892 -26.615  0.00  0.00    -0.015 C 
ATOM     29  C   UNL     1      34.804  -8.410 -25.373  0.00  0.00    +0.028 C 
ATOM     30  C   UNL     1      35.529  -9.817 -27.195  0.00  0.00    -0.004 C 
ATOM     31  C   UNL     1      35.500  -8.575 -26.573  0.00  0.00    +0.002 C 
BRANCH  27  32
ATOM     32  C   UNL     1      32.139 -10.040 -21.823  0.00  0.00    +0.030 C 
ATOM     33  C   UNL     1      31.396 -11.036 -21.188  0.00  0.00    +0.003 C 
ATOM     34  C   UNL     1      32.220  -8.766 -21.260  0.00  0.00    +0.003 C 
ATOM     35  C   UNL     1      30.736 -10.758 -19.991  0.00  0.00    +0.000 C 
ATOM     36  C   UNL     1      31.560  -8.488 -20.063  0.00  0.00    +0.000 C 
ATOM     37  C   UNL     1      30.817  -9.484 -19.430  0.00  0.00    +0.000 C 
ENDBRANCH  27  32
ENDBRANCH  21  23
ENDBRANCH  20  21
ENDBRANCH   6  20
TORSDOF 7
ENDMDL
MODEL 4
REMARK VINA RESULT:     -11.6      5.307     12.728
REMARK  Name = 25049750
REMARK  7 active torsions:
REMARK  status: ('A' for Active; 'I' for Inactive)
REMARK    1  A    between atoms: C_1  and  C_14
REMARK    2  A    between atoms: C_6  and  O_20
REMARK    3  A    between atoms: C_10  and  C_17
REMARK    4  A    between atoms: C_17  and  O_18
REMARK    5  A    between atoms: O_20  and  C_21
REMARK    6  A    between atoms: C_21  and  C_23
REMARK    7  A    between atoms: C_27  and  C_32
REMARK                            x       y       z     vdW  Elec       q    Type
REMARK                         _______ _______ _______ _____ _____    ______ ____
ROOT
ATOM      1  C   UNL     1      35.219 -17.240 -23.584  0.00  0.00    -0.004 C 
ATOM      2  C   UNL     1      34.628 -17.000 -24.826  0.00  0.00    +0.000 C 
ATOM      3  C   UNL     1      35.077 -16.311 -22.554  0.00  0.00    +0.000 C 
ATOM      4  C   UNL     1      33.898 -15.831 -25.036  0.00  0.00    +0.037 C 
ATOM      5  C   UNL     1      34.346 -15.142 -22.765  0.00  0.00    +0.037 C 
ATOM      6  C   UNL     1      33.755 -14.902 -24.005  0.00  0.00    +0.139 C 
ENDROOT
BRANCH   1  14
ATOM      7  O   UNL     1      37.296 -19.205 -20.118  0.00  0.00    -0.275 OA
ATOM      8  N   UNL     1      36.972 -18.360 -22.277  0.00  0.00    -0.302 N 
ATOM      9  C   UNL     1      35.506 -19.918 -21.515  0.00  0.00    +0.081 C 
ATOM     10  C   UNL     1      34.416 -20.049 -20.508  0.00  0.00    +0.108 C 
ATOM     11  C   UNL     1      35.256 -21.241 -20.885  0.00  0.00    +0.021 C 
ATOM     12  C   UNL     1      35.142 -19.716 -22.940  0.00  0.00    +0.033 C 
ATOM     13  C   UNL     1      36.690 -19.146 -21.177  0.00  0.00    +0.222 C 
ATOM     14  C   UNL     1      36.010 -18.509 -23.357  0.00  0.00    +0.095 C 
ATOM     15  H   UNL     1      37.750 -17.759 -22.326  0.00  0.00    +0.150 HD
BRANCH  10  17
ATOM     16  O   UNL     1      32.654 -19.781 -22.032  0.00  0.00    -0.250 OA
ATOM     17  C   UNL     1      33.035 -20.147 -20.929  0.00  0.00    +0.314 C 
BRANCH  17  18
ATOM     18  O   UNL     1      32.235 -20.683 -19.976  0.00  0.00    -0.480 OA
ATOM     19  H   UNL     1      31.663 -20.132 -19.479  0.00  0.00    +0.295 HD
ENDBRANCH  17  18
ENDBRANCH  10  17
ENDBRANCH   1  14
BRANCH   6  20
ATOM     20  O   UNL     1      33.037 -13.753 -24.211  0.00  0.00    -0.471 OA
BRANCH  20  21
ATOM     21  C   UNL     1      33.767 -12.608 -24.629  0.00  0.00    +0.229 C 
BRANCH  21  23
ATOM     22  N   UNL     1      32.187  -9.075 -22.803  0.00  0.00    -0.406 NA
ATOM     23  C   UNL     1      33.200 -11.393 -23.963  0.00  0.00    +0.012 C 
ATOM     24  C   UNL     1      32.482 -11.467 -22.761  0.00  0.00    +0.096 C 
ATOM     25  C   UNL     1      33.409 -10.167 -24.577  0.00  0.00    +0.028 C 
ATOM     26  C   UNL     1      31.986 -10.267 -22.209  0.00  0.00    +0.117 C 
ATOM     27  C   UNL     1      32.885  -9.047 -23.961  0.00  0.00    +0.130 C 
ATOM     28  C   UNL     1      32.254 -12.694 -22.114  0.00  0.00    -0.015 C 
ATOM     29  C   UNL     1      31.273 -10.341 -21.017  0.00  0.00    +0.028 C 
ATOM     30  C   UNL     1      31.537 -12.738 -20.923  0.00  0.00    -0.004 C 
ATOM     31  C   UNL     1      31.046 -11.560 -20.373  0.00  0.00    +0.002 C 
BRANCH  27  32
ATOM     32  C   UNL     1      33.057  -7.734 -24.535  0.00  0.00    +0.030 C 
ATOM     33  C   UNL     1      32.008  -7.135 -25.233  0.00  0.00    +0.003 C 
ATOM     34  C   UNL     1      34.271  -7.063 -24.392  0.00  0.00    +0.003 C 
ATOM     35  C   UNL     1      32.173  -5.866 -25.787  0.00  0.00    +0.000 C 
ATOM     36  C   UNL     1      34.436  -5.794 -24.946  0.00  0.00    +0.000 C 
ATOM     37  C   UNL     1      33.388  -5.196 -25.644  0.00  0.00    +0.000 C 
ENDBRANCH  27  32
ENDBRANCH  21  23
ENDBRANCH  20  21
ENDBRANCH   6  20
TORSDOF 7
ENDMDL
MODEL 5
REMARK VINA RESULT:     -11.4      5.364     12.373
REMARK  Name = 25049750
REMARK  7 active torsions:
REMARK  status: ('A' for Active; 'I' for Inactive)
REMARK    1  A    between atoms: C_1  and  C_14
REMARK    2  A    between atoms: C_6  and  O_20
REMARK    3  A    between atoms: C_10  and  C_17
REMARK    4  A    between atoms: C_17  and  O_18
REMARK    5  A    between atoms: O_20  and  C_21
REMARK    6  A    between atoms: C_21  and  C_23
REMARK    7  A    between atoms: C_27  and  C_32
REMARK                            x       y       z     vdW  Elec       q    Type
REMARK                         _______ _______ _______ _____ _____    ______ ____
ROOT
ATOM      1  C   UNL     1      35.014 -17.030 -23.518  0.00  0.00    -0.004 C 
ATOM      2  C   UNL     1      34.326 -16.777 -24.706  0.00  0.00    +0.000 C 
ATOM      3  C   UNL     1      34.914 -16.137 -22.452  0.00  0.00    +0.000 C 
ATOM      4  C   UNL     1      33.541 -15.631 -24.826  0.00  0.00    +0.037 C 
ATOM      5  C   UNL     1      34.128 -14.991 -22.572  0.00  0.00    +0.037 C 
ATOM      6  C   UNL     1      33.440 -14.738 -23.759  0.00  0.00    +0.139 C 
ENDROOT
BRANCH   1  14
ATOM      7  O   UNL     1      37.305 -19.079 -20.241  0.00  0.00    -0.275 OA
ATOM      8  N   UNL     1      36.862 -18.139 -22.339  0.00  0.00    -0.302 N 
ATOM      9  C   UNL     1      35.493 -19.795 -21.606  0.00  0.00    +0.081 C 
ATOM     10  C   UNL     1      34.449 -20.026 -20.568  0.00  0.00    +0.108 C 
ATOM     11  C   UNL     1      35.322 -21.159 -21.039  0.00  0.00    +0.021 C 
ATOM     12  C   UNL     1      35.065 -19.537 -23.004  0.00  0.00    +0.033 C 
ATOM     13  C   UNL     1      36.656 -18.992 -21.272  0.00  0.00    +0.222 C 
ATOM     14  C   UNL     1      35.865 -18.273 -23.388  0.00  0.00    +0.095 C 
ATOM     15  H   UNL     1      37.612 -17.503 -22.384  0.00  0.00    +0.150 HD
BRANCH  10  17
ATOM     16  O   UNL     1      32.630 -19.809 -22.032  0.00  0.00    -0.250 OA
ATOM     17  C   UNL     1      33.058 -20.161 -20.942  0.00  0.00    +0.314 C 
BRANCH  17  18
ATOM     18  O   UNL     1      32.304 -20.714 -19.960  0.00  0.00    -0.480 OA
ATOM     19  H   UNL     1      32.715 -21.059 -19.193  0.00  0.00    +0.295 HD
ENDBRANCH  17  18
ENDBRANCH  10  17
ENDBRANCH   1  14
BRANCH   6  20
ATOM     20  O   UNL     1      32.668 -13.612 -23.877  0.00  0.00    -0.471 OA
BRANCH  20  21
ATOM     21  C   UNL     1      32.140 -13.068 -22.675  0.00  0.00    +0.229 C 
BRANCH  21  23
ATOM     22  N   UNL     1      32.920  -8.861 -22.693  0.00  0.00    -0.406 NA
ATOM     23  C   UNL     1      32.394 -11.593 -22.649  0.00  0.00    +0.012 C 
ATOM     24  C   UNL     1      31.922 -10.772 -21.616  0.00  0.00    +0.096 C 
ATOM     25  C   UNL     1      33.124 -11.048 -23.696  0.00  0.00    +0.028 C 
ATOM     26  C   UNL     1      32.213  -9.393 -21.679  0.00  0.00    +0.117 C 
ATOM     27  C   UNL     1      33.358  -9.688 -23.670  0.00  0.00    +0.130 C 
ATOM     28  C   UNL     1      31.180 -11.294 -20.542  0.00  0.00    -0.015 C 
ATOM     29  C   UNL     1      31.743  -8.579 -20.652  0.00  0.00    +0.028 C 
ATOM     30  C   UNL     1      30.724 -10.456 -19.530  0.00  0.00    -0.004 C 
ATOM     31  C   UNL     1      31.006  -9.096 -19.585  0.00  0.00    +0.002 C 
BRANCH  27  32
ATOM     32  C   UNL     1      34.108  -9.042 -24.721  0.00  0.00    +0.030 C 
ATOM     33  C   UNL     1      34.293  -7.659 -24.697  0.00  0.00    +0.003 C 
ATOM     34  C   UNL     1      34.648  -9.800 -25.760  0.00  0.00    +0.003 C 
ATOM     35  C   UNL     1      35.019  -7.035 -25.712  0.00  0.00    +0.000 C 
ATOM     36  C   UNL     1      35.374  -9.176 -26.775  0.00  0.00    +0.000 C 
ATOM     37  C   UNL     1      35.558  -7.793 -26.751  0.00  0.00    +0.000 C 
ENDBRANCH  27  32
ENDBRANCH  21  23
ENDBRANCH  20  21
ENDBRANCH   6  20
TORSDOF 7
ENDMDL
MODEL 6
REMARK VINA RESULT:     -11.3      7.387     12.475
REMARK  Name = 25049750
REMARK  7 active torsions:
REMARK  status: ('A' for Active; 'I' for Inactive)
REMARK    1  A    between atoms: C_1  and  C_14
REMARK    2  A    between atoms: C_6  and  O_20
REMARK    3  A    between atoms: C_10  and  C_17
REMARK    4  A    between atoms: C_17  and  O_18
REMARK    5  A    between atoms: O_20  and  C_21
REMARK    6  A    between atoms: C_21  and  C_23
REMARK    7  A    between atoms: C_27  and  C_32
REMARK                            x       y       z     vdW  Elec       q    Type
REMARK                         _______ _______ _______ _____ _____    ______ ____
ROOT
ATOM      1  C   UNL     1      34.997  -7.423 -25.123  0.00  0.00    -0.004 C 
ATOM      2  C   UNL     1      35.321  -8.076 -26.313  0.00  0.00    +0.000 C 
ATOM      3  C   UNL     1      34.588  -8.160 -24.013  0.00  0.00    +0.000 C 
ATOM      4  C   UNL     1      35.234  -9.465 -26.392  0.00  0.00    +0.037 C 
ATOM      5  C   UNL     1      34.502  -9.550 -24.092  0.00  0.00    +0.037 C 
ATOM      6  C   UNL     1      34.826 -10.203 -25.281  0.00  0.00    +0.139 C 
ENDROOT
BRANCH   1  14
ATOM      7  O   UNL     1      34.012  -3.943 -27.789  0.00  0.00    -0.275 OA
ATOM      8  N   UNL     1      35.253  -5.309 -26.349  0.00  0.00    -0.302 N 
ATOM      9  C   UNL     1      33.232  -4.565 -25.629  0.00  0.00    +0.081 C 
ATOM     10  C   UNL     1      31.784  -4.768 -25.914  0.00  0.00    +0.108 C 
ATOM     11  C   UNL     1      32.286  -3.440 -25.409  0.00  0.00    +0.021 C 
ATOM     12  C   UNL     1      33.831  -5.245 -24.453  0.00  0.00    +0.033 C 
ATOM     13  C   UNL     1      34.173  -4.539 -26.736  0.00  0.00    +0.222 C 
ATOM     14  C   UNL     1      35.092  -5.916 -25.038  0.00  0.00    +0.095 C 
ATOM     15  H   UNL     1      36.055  -5.434 -26.907  0.00  0.00    +0.150 HD
BRANCH  10  17
ATOM     16  O   UNL     1      30.371  -4.914 -24.049  0.00  0.00    -0.250 OA
ATOM     17  C   UNL     1      30.942  -5.474 -24.973  0.00  0.00    +0.314 C 
BRANCH  17  18
ATOM     18  O   UNL     1      30.862  -6.801 -25.237  0.00  0.00    -0.480 OA
ATOM     19  H   UNL     1      30.430  -7.100 -26.013  0.00  0.00    +0.295 HD
ENDBRANCH  17  18
ENDBRANCH  10  17
ENDBRANCH   1  14
BRANCH   6  20
ATOM     20  O   UNL     1      34.741 -11.569 -25.358  0.00  0.00    -0.471 OA
BRANCH  20  21
ATOM     21  C   UNL     1      33.445 -12.138 -25.236  0.00  0.00    +0.229 C 
BRANCH  21  23
ATOM     22  N   UNL     1      33.327 -14.556 -21.707  0.00  0.00    -0.406 NA
ATOM     23  C   UNL     1      33.384 -12.958 -23.984  0.00  0.00    +0.012 C 
ATOM     24  C   UNL     1      32.707 -12.520 -22.837  0.00  0.00    +0.096 C 
ATOM     25  C   UNL     1      34.026 -14.187 -23.989  0.00  0.00    +0.028 C 
ATOM     26  C   UNL     1      32.704 -13.363 -21.706  0.00  0.00    +0.117 C 
ATOM     27  C   UNL     1      33.969 -14.942 -22.834  0.00  0.00    +0.130 C 
ATOM     28  C   UNL     1      32.046 -11.280 -22.802  0.00  0.00    -0.015 C 
ATOM     29  C   UNL     1      32.033 -12.927 -20.568  0.00  0.00    +0.028 C 
ATOM     30  C   UNL     1      31.382 -10.870 -21.650  0.00  0.00    -0.004 C 
ATOM     31  C   UNL     1      31.375 -11.695 -20.531  0.00  0.00    +0.002 C 
BRANCH  27  32
ATOM     32  C   UNL     1      34.611 -16.232 -22.756  0.00  0.00    +0.030 C 
ATOM     33  C   UNL     1      34.984 -16.751 -21.516  0.00  0.00    +0.003 C 
ATOM     34  C   UNL     1      34.860 -16.959 -23.919  0.00  0.00    +0.003 C 
ATOM     35  C   UNL     1      35.604 -17.998 -21.440  0.00  0.00    +0.000 C 
ATOM     36  C   UNL     1      35.480 -18.207 -23.843  0.00  0.00    +0.000 C 
ATOM     37  C   UNL     1      35.853 -18.725 -22.603  0.00  0.00    +0.000 C 
ENDBRANCH  27  32
ENDBRANCH  21  23
ENDBRANCH  20  21
ENDBRANCH   6  20
TORSDOF 7
ENDMDL
MODEL 7
REMARK VINA RESULT:     -10.7      8.779     13.982
REMARK  Name = 25049750
REMARK  7 active torsions:
REMARK  status: ('A' for Active; 'I' for Inactive)
REMARK    1  A    between atoms: C_1  and  C_14
REMARK    2  A    between atoms: C_6  and  O_20
REMARK    3  A    between atoms: C_10  and  C_17
REMARK    4  A    between atoms: C_17  and  O_18
REMARK    5  A    between atoms: O_20  and  C_21
REMARK    6  A    between atoms: C_21  and  C_23
REMARK    7  A    between atoms: C_27  and  C_32
REMARK                            x       y       z     vdW  Elec       q    Type
REMARK                         _______ _______ _______ _____ _____    ______ ____
ROOT
ATOM      1  C   UNL     1      34.080  -5.510 -25.644  0.00  0.00    -0.004 C 
ATOM      2  C   UNL     1      35.293  -6.027 -25.186  0.00  0.00    +0.000 C 
ATOM      3  C   UNL     1      32.930  -6.297 -25.609  0.00  0.00    +0.000 C 
ATOM      4  C   UNL     1      35.354  -7.331 -24.695  0.00  0.00    +0.037 C 
ATOM      5  C   UNL     1      32.991  -7.600 -25.117  0.00  0.00    +0.037 C 
ATOM      6  C   UNL     1      34.202  -8.118 -24.659  0.00  0.00    +0.139 C 
ENDROOT
BRANCH   1  14
ATOM      7  O   UNL     1      31.599  -3.272 -28.648  0.00  0.00    -0.275 OA
ATOM      8  N   UNL     1      33.506  -4.052 -27.536  0.00  0.00    -0.302 N 
ATOM      9  C   UNL     1      31.933  -2.965 -26.312  0.00  0.00    +0.081 C 
ATOM     10  C   UNL     1      30.545  -3.171 -25.812  0.00  0.00    +0.108 C 
ATOM     11  C   UNL     1      31.048  -1.786 -26.121  0.00  0.00    +0.021 C 
ATOM     12  C   UNL     1      33.067  -3.174 -25.377  0.00  0.00    +0.033 C 
ATOM     13  C   UNL     1      32.279  -3.425 -27.646  0.00  0.00    +0.222 C 
ATOM     14  C   UNL     1      34.015  -4.096 -26.175  0.00  0.00    +0.095 C 
ATOM     15  H   UNL     1      33.989  -4.432 -28.306  0.00  0.00    +0.150 HD
BRANCH  10  17
ATOM     16  O   UNL     1      30.000  -2.511 -23.630  0.00  0.00    -0.250 OA
ATOM     17  C   UNL     1      30.297  -3.407 -24.406  0.00  0.00    +0.314 C 
BRANCH  17  18
ATOM     18  O   UNL     1      30.430  -4.711 -24.064  0.00  0.00    -0.480 OA
ATOM     19  H   UNL     1      30.318  -5.379 -24.710  0.00  0.00    +0.295 HD
ENDBRANCH  17  18
ENDBRANCH  10  17
ENDBRANCH   1  14
BRANCH   6  20
ATOM     20  O   UNL     1      34.262  -9.399 -24.176  0.00  0.00    -0.471 OA
BRANCH  20  21
ATOM     21  C   UNL     1      33.403 -10.353 -24.784  0.00  0.00    +0.229 C 
BRANCH  21  23
ATOM     22  N   UNL     1      32.763 -13.630 -22.108  0.00  0.00    -0.406 NA
ATOM     23  C   UNL     1      33.159 -11.477 -23.825  0.00  0.00    +0.012 C 
ATOM     24  C   UNL     1      32.419 -11.307 -22.647  0.00  0.00    +0.096 C 
ATOM     25  C   UNL     1      33.696 -12.717 -24.139  0.00  0.00    +0.028 C 
ATOM     26  C   UNL     1      32.243 -12.426 -21.806  0.00  0.00    +0.117 C 
ATOM     27  C   UNL     1      33.471 -13.753 -23.254  0.00  0.00    +0.130 C 
ATOM     28  C   UNL     1      31.862 -10.064 -22.302  0.00  0.00    -0.015 C 
ATOM     29  C   UNL     1      31.507 -12.256 -20.637  0.00  0.00    +0.028 C 
ATOM     30  C   UNL     1      31.131  -9.922 -21.126  0.00  0.00    -0.004 C 
ATOM     31  C   UNL     1      30.953 -11.020 -20.293  0.00  0.00    +0.002 C 
BRANCH  27  32
ATOM     32  C   UNL     1      33.995 -15.074 -23.506  0.00  0.00    +0.030 C 
ATOM     33  C   UNL     1      33.830 -15.662 -24.760  0.00  0.00    +0.003 C 
ATOM     34  C   UNL     1      34.666 -15.762 -22.496  0.00  0.00    +0.003 C 
ATOM     35  C   UNL     1      34.337 -16.939 -25.004  0.00  0.00    +0.000 C 
ATOM     36  C   UNL     1      35.174 -17.039 -22.740  0.00  0.00    +0.000 C 
ATOM     37  C   UNL     1      35.008 -17.627 -23.993  0.00  0.00    +0.000 C 
ENDBRANCH  27  32
ENDBRANCH  21  23
ENDBRANCH  20  21
ENDBRANCH   6  20
TORSDOF 7
ENDMDL
MODEL 8
REMARK VINA RESULT:     -10.6      8.876     13.056
REMARK  Name = 25049750
REMARK  7 active torsions:
REMARK  status: ('A' for Active; 'I' for Inactive)
REMARK    1  A    between atoms: C_1  and  C_14
REMARK    2  A    between atoms: C_6  and  O_20
REMARK    3  A    between atoms: C_10  and  C_17
REMARK    4  A    between atoms: C_17  and  O_18
REMARK    5  A    between atoms: O_20  and  C_21
REMARK    6  A    between atoms: C_21  and  C_23
REMARK    7  A    between atoms: C_27  and  C_32
REMARK                            x       y       z     vdW  Elec       q    Type
REMARK                         _______ _______ _______ _____ _____    ______ ____
ROOT
ATOM      1  C   UNL     1      34.691  -8.527 -25.101  0.00  0.00    -0.004 C 
ATOM      2  C   UNL     1      33.473  -8.780 -25.735  0.00  0.00    +0.000 C 
ATOM      3  C   UNL     1      35.670  -9.519 -25.052  0.00  0.00    +0.000 C 
ATOM      4  C   UNL     1      33.237 -10.024 -26.318  0.00  0.00    +0.037 C 
ATOM      5  C   UNL     1      35.433 -10.763 -25.636  0.00  0.00    +0.037 C 
ATOM      6  C   UNL     1      34.217 -11.016 -26.270  0.00  0.00    +0.139 C 
ENDROOT
BRANCH   1  14
ATOM      7  O   UNL     1      34.330  -4.226 -26.351  0.00  0.00    -0.275 OA
ATOM      8  N   UNL     1      35.285  -6.170 -25.462  0.00  0.00    -0.302 N 
ATOM      9  C   UNL     1      33.307  -5.466 -24.597  0.00  0.00    +0.081 C 
ATOM     10  C   UNL     1      31.875  -5.356 -24.989  0.00  0.00    +0.108 C 
ATOM     11  C   UNL     1      32.479  -4.377 -24.017  0.00  0.00    +0.021 C 
ATOM     12  C   UNL     1      33.725  -6.595 -23.727  0.00  0.00    +0.033 C 
ATOM     13  C   UNL     1      34.335  -5.175 -25.582  0.00  0.00    +0.222 C 
ATOM     14  C   UNL     1      34.948  -7.177 -24.469  0.00  0.00    +0.095 C 
ATOM     15  H   UNL     1      36.111  -6.195 -25.997  0.00  0.00    +0.150 HD
BRANCH  10  17
ATOM     16  O   UNL     1      30.443  -6.066 -23.274  0.00  0.00    -0.250 OA
ATOM     17  C   UNL     1      30.882  -6.230 -24.402  0.00  0.00    +0.314 C 
BRANCH  17  18
ATOM     18  O   UNL     1      30.506  -7.229 -25.238  0.00  0.00    -0.480 OA
ATOM     19  H   UNL     1      29.654  -7.220 -25.625  0.00  0.00    +0.295 HD
ENDBRANCH  17  18
ENDBRANCH  10  17
ENDBRANCH   1  14
BRANCH   6  20
ATOM     20  O   UNL     1      33.984 -12.239 -26.843  0.00  0.00    -0.471 OA
BRANCH  20  21
ATOM     21  C   UNL     1      32.883 -12.983 -26.340  0.00  0.00    +0.229 C 
BRANCH  21  23
ATOM     22  N   UNL     1      33.303 -13.421 -22.105  0.00  0.00    -0.406 NA
ATOM     23  C   UNL     1      33.048 -13.169 -24.864  0.00  0.00    +0.012 C 
ATOM     24  C   UNL     1      33.703 -14.282 -24.320  0.00  0.00    +0.096 C 
ATOM     25  C   UNL     1      32.525 -12.190 -24.031  0.00  0.00    +0.028 C 
ATOM     26  C   UNL     1      33.809 -14.369 -22.916  0.00  0.00    +0.117 C 
ATOM     27  C   UNL     1      32.678 -12.363 -22.670  0.00  0.00    +0.130 C 
ATOM     28  C   UNL     1      34.244 -15.290 -25.137  0.00  0.00    -0.015 C 
ATOM     29  C   UNL     1      34.460 -15.475 -22.376  0.00  0.00    +0.028 C 
ATOM     30  C   UNL     1      34.889 -16.384 -24.570  0.00  0.00    -0.004 C 
ATOM     31  C   UNL     1      34.997 -16.477 -23.188  0.00  0.00    +0.002 C 
BRANCH  27  32
ATOM     32  C   UNL     1      32.163 -11.392 -21.734  0.00  0.00    +0.030 C 
ATOM     33  C   UNL     1      31.808 -11.786 -20.444  0.00  0.00    +0.003 C 
ATOM     34  C   UNL     1      32.020 -10.059 -22.120  0.00  0.00    +0.003 C 
ATOM     35  C   UNL     1      31.310 -10.847 -19.540  0.00  0.00    +0.000 C 
ATOM     36  C   UNL     1      31.523  -9.120 -21.215  0.00  0.00    +0.000 C 
ATOM     37  C   UNL     1      31.167  -9.515 -19.926  0.00  0.00    +0.000 C 
ENDBRANCH  27  32
ENDBRANCH  21  23
ENDBRANCH  20  21
ENDBRANCH   6  20
TORSDOF 7
ENDMDL
MODEL 9
REMARK VINA RESULT:     -10.6      4.984      9.678
REMARK  Name = 25049750
REMARK  7 active torsions:
REMARK  status: ('A' for Active; 'I' for Inactive)
REMARK    1  A    between atoms: C_1  and  C_14
REMARK    2  A    between atoms: C_6  and  O_20
REMARK    3  A    between atoms: C_10  and  C_17
REMARK    4  A    between atoms: C_17  and  O_18
REMARK    5  A    between atoms: O_20  and  C_21
REMARK    6  A    between atoms: C_21  and  C_23
REMARK    7  A    between atoms: C_27  and  C_32
REMARK                            x       y       z     vdW  Elec       q    Type
REMARK                         _______ _______ _______ _____ _____    ______ ____
ROOT
ATOM      1  C   UNL     1      31.745 -10.622 -21.969  0.00  0.00    -0.004 C 
ATOM      2  C   UNL     1      32.418 -11.423 -22.893  0.00  0.00    +0.000 C 
ATOM      3  C   UNL     1      31.490 -11.103 -20.685  0.00  0.00    +0.000 C 
ATOM      4  C   UNL     1      32.834 -12.705 -22.532  0.00  0.00    +0.037 C 
ATOM      5  C   UNL     1      31.907 -12.385 -20.325  0.00  0.00    +0.037 C 
ATOM      6  C   UNL     1      32.580 -13.185 -21.247  0.00  0.00    +0.139 C 
ENDROOT
BRANCH   1  14
ATOM      7  O   UNL     1      32.996  -6.410 -21.031  0.00  0.00    -0.275 OA
ATOM      8  N   UNL     1      31.588  -8.257 -21.324  0.00  0.00    -0.302 N 
ATOM      9  C   UNL     1      32.882  -7.620 -23.077  0.00  0.00    +0.081 C 
ATOM     10  C   UNL     1      34.316  -7.604 -23.479  0.00  0.00    +0.108 C 
ATOM     11  C   UNL     1      33.369  -6.550 -23.987  0.00  0.00    +0.021 C 
ATOM     12  C   UNL     1      31.999  -8.683 -23.620  0.00  0.00    +0.033 C 
ATOM     13  C   UNL     1      32.531  -7.320 -21.699  0.00  0.00    +0.222 C 
ATOM     14  C   UNL     1      31.295  -9.233 -22.361  0.00  0.00    +0.095 C 
ATOM     15  H   UNL     1      31.155  -8.262 -20.439  0.00  0.00    +0.150 HD
BRANCH  10  17
ATOM     16  O   UNL     1      34.772  -8.222 -25.694  0.00  0.00    -0.250 OA
ATOM     17  C   UNL     1      34.802  -8.502 -24.505  0.00  0.00    +0.314 C 
BRANCH  17  18
ATOM     18  O   UNL     1      35.285  -9.662 -23.997  0.00  0.00    -0.480 OA
ATOM     19  H   UNL     1      36.106  -9.999 -24.297  0.00  0.00    +0.295 HD
ENDBRANCH  17  18
ENDBRANCH  10  17
ENDBRANCH   1  14
BRANCH   6  20
ATOM     20  O   UNL     1      32.989 -14.444 -20.893  0.00  0.00    -0.471 OA
BRANCH  20  21
ATOM     21  C   UNL     1      34.366 -14.745 -21.070  0.00  0.00    +0.229 C 
BRANCH  21  23
ATOM     22  N   UNL     1      34.754 -18.538 -23.012  0.00  0.00    -0.406 NA
ATOM     23  C   UNL     1      34.497 -16.055 -21.782  0.00  0.00    +0.012 C 
ATOM     24  C   UNL     1      34.401 -16.160 -23.177  0.00  0.00    +0.096 C 
ATOM     25  C   UNL     1      34.720 -17.186 -21.011  0.00  0.00    +0.028 C 
ATOM     26  C   UNL     1      34.538 -17.438 -23.757  0.00  0.00    +0.117 C 
ATOM     27  C   UNL     1      34.840 -18.394 -21.669  0.00  0.00    +0.130 C 
ATOM     28  C   UNL     1      34.176 -15.032 -23.986  0.00  0.00    -0.015 C 
ATOM     29  C   UNL     1      34.442 -17.541 -25.142  0.00  0.00    +0.028 C 
ATOM     30  C   UNL     1      34.085 -15.165 -25.368  0.00  0.00    -0.004 C 
ATOM     31  C   UNL     1      34.218 -16.421 -25.947  0.00  0.00    +0.002 C 
BRANCH  27  32
ATOM     32  C   UNL     1      35.073 -19.618 -20.941  0.00  0.00    +0.030 C 
ATOM     33  C   UNL     1      36.373 -19.988 -20.595  0.00  0.00    +0.003 C 
ATOM     34  C   UNL     1      33.998 -20.432 -20.583  0.00  0.00    +0.003 C 
ATOM     35  C   UNL     1      36.598 -21.170 -19.891  0.00  0.00    +0.000 C 
ATOM     36  C   UNL     1      34.223 -21.614 -19.878  0.00  0.00    +0.000 C 
ATOM     37  C   UNL     1      35.523 -21.984 -19.533  0.00  0.00    +0.000 C 
ENDBRANCH  27  32
ENDBRANCH  21  23
ENDBRANCH  20  21
ENDBRANCH   6  20
TORSDOF 7
ENDMDL
