MODEL 1
REMARK VINA RESULT:     -11.6      0.000      0.000
REMARK  Name = 3151
REMARK  5 active torsions:
REMARK  status: ('A' for Active; 'I' for Inactive)
REMARK    1  A    between atoms: N_1  and  C_20
REMARK    2  A    between atoms: C_2  and  N_10
REMARK    3  A    between atoms: C_20  and  C_21
REMARK    4  A    between atoms: C_21  and  C_22
REMARK    5  A    between atoms: C_22  and  N_24
REMARK                            x       y       z     vdW  Elec       q    Type
REMARK                         _______ _______ _______ _____ _____    ______ ____
ROOT
ATOM      1  N   UNL     1      34.798 -16.457 -24.454  0.00  0.00    +0.387 N 
ATOM      2  C   UNL     1      34.602 -18.403 -22.280  0.00  0.00    +0.086 C 
ATOM      3  C   UNL     1      35.180 -17.003 -22.072  0.00  0.00    -0.000 C 
ATOM      4  C   UNL     1      34.751 -18.824 -23.742  0.00  0.00    -0.000 C 
ATOM      5  C   UNL     1      34.591 -16.006 -23.071  0.00  0.00    -0.075 C 
ATOM      6  C   UNL     1      34.175 -17.767 -24.685  0.00  0.00    -0.075 C 
ATOM      7  H   UNL     1      35.801 -16.554 -24.607  0.00  0.00    -0.080 HD
ENDROOT
BRANCH   2  10
ATOM      8 CL   UNL     1      33.240 -23.665 -17.974  0.00  0.00    -0.082 Cl
ATOM      9  O   UNL     1      37.537 -18.802 -21.599  0.00  0.00    -0.247 OA
ATOM     10  N   UNL     1      35.233 -19.354 -21.399  0.00  0.00    -0.282 N 
ATOM     11  N   UNL     1      36.751 -20.547 -20.210  0.00  0.00    -0.305 N 
ATOM     12  C   UNL     1      34.542 -20.322 -20.658  0.00  0.00    +0.079 A 
ATOM     13  C   UNL     1      36.625 -19.473 -21.136  0.00  0.00    +0.328 A 
ATOM     14  C   UNL     1      35.481 -21.051 -19.930  0.00  0.00    +0.077 A 
ATOM     15  C   UNL     1      33.193 -20.602 -20.579  0.00  0.00    +0.020 C 
ATOM     16  C   UNL     1      35.125 -22.086 -19.094  0.00  0.00    +0.030 C 
ATOM     17  C   UNL     1      32.807 -21.648 -19.735  0.00  0.00    +0.013 C 
ATOM     18  C   UNL     1      33.763 -22.382 -19.001  0.00  0.00    +0.059 C 
ATOM     19  H   UNL     1      37.596 -20.879 -19.830  0.00  0.00    +0.170 HD
ENDBRANCH   2  10
BRANCH   1  20
ATOM     20  C   UNL     1      34.273 -15.468 -25.398  0.00  0.00    -0.075 C 
BRANCH  20  21
ATOM     21  C   UNL     1      33.768 -14.211 -24.685  0.00  0.00    +0.002 C 
BRANCH  21  22
ATOM     22  C   UNL     1      32.959 -13.265 -25.571  0.00  0.00    +0.108 C 
BRANCH  22  24
ATOM     23  O   UNL     1      34.551 -12.977 -28.119  0.00  0.00    -0.247 OA
ATOM     24  N   UNL     1      33.736 -12.151 -26.042  0.00  0.00    -0.280 N 
ATOM     25  N   UNL     1      35.070 -10.817 -27.309  0.00  0.00    -0.305 N 
ATOM     26  C   UNL     1      33.906 -10.929 -25.370  0.00  0.00    +0.079 A 
ATOM     27  C   UNL     1      34.461 -12.103 -27.268  0.00  0.00    +0.328 A 
ATOM     28  C   UNL     1      34.725 -10.117 -26.152  0.00  0.00    +0.076 A 
ATOM     29  C   UNL     1      33.408 -10.497 -24.159  0.00  0.00    +0.019 C 
ATOM     30  C   UNL     1      35.085  -8.844 -25.771  0.00  0.00    +0.019 C 
ATOM     31  C   UNL     1      33.760  -9.206 -23.749  0.00  0.00    +0.002 C 
ATOM     32  C   UNL     1      34.588  -8.389 -24.546  0.00  0.00    +0.002 C 
ATOM     33  H   UNL     1      35.642 -10.477 -28.036  0.00  0.00    +0.170 HD
ENDBRANCH  22  24
ENDBRANCH  21  22
ENDBRANCH  20  21
ENDBRANCH   1  20
TORSDOF 5
ENDMDL
MODEL 2
REMARK VINA RESULT:     -11.5      3.810     10.362
REMARK  Name = 3151
REMARK  5 active torsions:
REMARK  status: ('A' for Active; 'I' for Inactive)
REMARK    1  A    between atoms: N_1  and  C_20
REMARK    2  A    between atoms: C_2  and  N_10
REMARK    3  A    between atoms: C_20  and  C_21
REMARK    4  A    between atoms: C_21  and  C_22
REMARK    5  A    between atoms: C_22  and  N_24
REMARK                            x       y       z     vdW  Elec       q    Type
REMARK                         _______ _______ _______ _____ _____    ______ ____
ROOT
ATOM      1  N   UNL     1      34.024 -16.100 -24.346  0.00  0.00    +0.387 N 
ATOM      2  C   UNL     1      33.986 -13.179 -24.194  0.00  0.00    +0.086 C 
ATOM      3  C   UNL     1      34.393 -14.052 -23.007  0.00  0.00    -0.000 C 
ATOM      4  C   UNL     1      33.068 -13.960 -25.134  0.00  0.00    -0.000 C 
ATOM      5  C   UNL     1      34.971 -15.389 -23.475  0.00  0.00    -0.075 C 
ATOM      6  C   UNL     1      33.690 -15.299 -25.532  0.00  0.00    -0.075 C 
ATOM      7  H   UNL     1      33.166 -16.254 -23.818  0.00  0.00    -0.080 HD
ENDROOT
BRANCH   2  10
ATOM      8 CL   UNL     1      34.226  -6.281 -24.856  0.00  0.00    -0.082 Cl
ATOM      9  O   UNL     1      31.671 -12.765 -22.271  0.00  0.00    -0.247 OA
ATOM     10  N   UNL     1      33.356 -11.963 -23.744  0.00  0.00    -0.282 N 
ATOM     11  N   UNL     1      32.007 -10.465 -22.707  0.00  0.00    -0.305 N 
ATOM     12  C   UNL     1      33.739 -10.678 -24.152  0.00  0.00    +0.079 A 
ATOM     13  C   UNL     1      32.268 -11.859 -22.835  0.00  0.00    +0.328 A 
ATOM     14  C   UNL     1      32.906  -9.763 -23.511  0.00  0.00    +0.077 A 
ATOM     15  C   UNL     1      34.731 -10.267 -25.017  0.00  0.00    +0.020 C 
ATOM     16  C   UNL     1      33.020  -8.404 -23.698  0.00  0.00    +0.030 C 
ATOM     17  C   UNL     1      34.868  -8.890 -25.222  0.00  0.00    +0.013 C 
ATOM     18  C   UNL     1      34.021  -7.969 -24.570  0.00  0.00    +0.059 C 
ATOM     19  H   UNL     1      31.307 -10.063 -22.145  0.00  0.00    +0.170 HD
ENDBRANCH   2  10
BRANCH   1  20
ATOM     20  C   UNL     1      34.571 -17.398 -24.743  0.00  0.00    -0.075 C 
BRANCH  20  21
ATOM     21  C   UNL     1      34.413 -18.447 -23.639  0.00  0.00    +0.002 C 
BRANCH  21  22
ATOM     22  C   UNL     1      34.912 -18.000 -22.267  0.00  0.00    +0.108 C 
BRANCH  22  24
ATOM     23  O   UNL     1      37.704 -18.813 -21.456  0.00  0.00    -0.247 OA
ATOM     24  N   UNL     1      35.342 -19.103 -21.451  0.00  0.00    -0.280 N 
ATOM     25  N   UNL     1      36.633 -20.576 -20.299  0.00  0.00    -0.305 N 
ATOM     26  C   UNL     1      34.500 -20.053 -20.849  0.00  0.00    +0.079 A 
ATOM     27  C   UNL     1      36.693 -19.413 -21.117  0.00  0.00    +0.328 A 
ATOM     28  C   UNL     1      35.298 -20.953 -20.146  0.00  0.00    +0.076 A 
ATOM     29  C   UNL     1      33.126 -20.177 -20.877  0.00  0.00    +0.019 C 
ATOM     30  C   UNL     1      34.773 -22.012 -19.440  0.00  0.00    +0.019 C 
ATOM     31  C   UNL     1      32.568 -21.246 -20.168  0.00  0.00    +0.002 C 
ATOM     32  C   UNL     1      33.382 -22.153 -19.457  0.00  0.00    +0.002 C 
ATOM     33  H   UNL     1      37.408 -21.041 -19.906  0.00  0.00    +0.170 HD
ENDBRANCH  22  24
ENDBRANCH  21  22
ENDBRANCH  20  21
ENDBRANCH   1  20
TORSDOF 5
ENDMDL
MODEL 3
REMARK VINA RESULT:     -11.5      1.901      2.598
REMARK  Name = 3151
REMARK  5 active torsions:
REMARK  status: ('A' for Active; 'I' for Inactive)
REMARK    1  A    between atoms: N_1  and  C_20
REMARK    2  A    between atoms: C_2  and  N_10
REMARK    3  A    between atoms: C_20  and  C_21
REMARK    4  A    between atoms: C_21  and  C_22
REMARK    5  A    between atoms: C_22  and  N_24
REMARK                            x       y       z     vdW  Elec       q    Type
REMARK                         _______ _______ _______ _____ _____    ______ ____
ROOT
ATOM      1  N   UNL     1      34.616 -16.349 -24.527  0.00  0.00    +0.387 N 
ATOM      2  C   UNL     1      34.512 -18.297 -22.347  0.00  0.00    +0.086 C 
ATOM      3  C   UNL     1      35.115 -16.904 -22.168  0.00  0.00    -0.000 C 
ATOM      4  C   UNL     1      34.580 -18.717 -23.815  0.00  0.00    -0.000 C 
ATOM      5  C   UNL     1      34.486 -15.898 -23.134  0.00  0.00    -0.075 C 
ATOM      6  C   UNL     1      33.967 -17.652 -24.726  0.00  0.00    -0.075 C 
ATOM      7  H   UNL     1      35.608 -16.458 -24.731  0.00  0.00    -0.080 HD
ENDROOT
BRANCH   2  10
ATOM      8 CL   UNL     1      33.323 -23.613 -18.058  0.00  0.00    -0.082 Cl
ATOM      9  O   UNL     1      37.470 -18.693 -21.778  0.00  0.00    -0.247 OA
ATOM     10  N   UNL     1      35.177 -19.256 -21.501  0.00  0.00    -0.282 N 
ATOM     11  N   UNL     1      36.741 -20.457 -20.382  0.00  0.00    -0.305 N 
ATOM     12  C   UNL     1      34.516 -20.235 -20.747  0.00  0.00    +0.079 A 
ATOM     13  C   UNL     1      36.578 -19.373 -21.291  0.00  0.00    +0.328 A 
ATOM     14  C   UNL     1      35.483 -20.969 -20.062  0.00  0.00    +0.077 A 
ATOM     15  C   UNL     1      33.172 -20.520 -20.622  0.00  0.00    +0.020 C 
ATOM     16  C   UNL     1      35.161 -22.015 -19.226  0.00  0.00    +0.030 C 
ATOM     17  C   UNL     1      32.820 -21.578 -19.778  0.00  0.00    +0.013 C 
ATOM     18  C   UNL     1      33.804 -22.317 -19.088  0.00  0.00    +0.059 C 
ATOM     19  H   UNL     1      37.600 -20.791 -20.037  0.00  0.00    +0.170 HD
ENDBRANCH   2  10
BRANCH   1  20
ATOM     20  C   UNL     1      34.054 -15.353 -25.441  0.00  0.00    -0.075 C 
BRANCH  20  21
ATOM     21  C   UNL     1      33.339 -14.227 -24.689  0.00  0.00    +0.002 C 
BRANCH  21  22
ATOM     22  C   UNL     1      34.132 -12.925 -24.600  0.00  0.00    +0.108 C 
BRANCH  22  24
ATOM     23  O   UNL     1      33.778 -10.049 -25.447  0.00  0.00    -0.247 OA
ATOM     24  N   UNL     1      33.390 -11.870 -23.966  0.00  0.00    -0.280 N 
ATOM     25  N   UNL     1      32.454  -9.852 -23.498  0.00  0.00    -0.305 N 
ATOM     26  C   UNL     1      32.655 -11.987 -22.774  0.00  0.00    +0.079 A 
ATOM     27  C   UNL     1      33.277 -10.530 -24.440  0.00  0.00    +0.328 A 
ATOM     28  C   UNL     1      32.085 -10.747 -22.494  0.00  0.00    +0.076 A 
ATOM     29  C   UNL     1      32.459 -13.074 -21.946  0.00  0.00    +0.019 C 
ATOM     30  C   UNL     1      31.298 -10.529 -21.385  0.00  0.00    +0.019 C 
ATOM     31  C   UNL     1      31.663 -12.877 -20.813  0.00  0.00    +0.002 C 
ATOM     32  C   UNL     1      31.088 -11.619 -20.536  0.00  0.00    +0.002 C 
ATOM     33  H   UNL     1      32.189  -8.904 -23.546  0.00  0.00    +0.170 HD
ENDBRANCH  22  24
ENDBRANCH  21  22
ENDBRANCH  20  21
ENDBRANCH   1  20
TORSDOF 5
ENDMDL
MODEL 4
REMARK VINA RESULT:     -11.5      2.580      3.289
REMARK  Name = 3151
REMARK  5 active torsions:
REMARK  status: ('A' for Active; 'I' for Inactive)
REMARK    1  A    between atoms: N_1  and  C_20
REMARK    2  A    between atoms: C_2  and  N_10
REMARK    3  A    between atoms: C_20  and  C_21
REMARK    4  A    between atoms: C_21  and  C_22
REMARK    5  A    between atoms: C_22  and  N_24
REMARK                            x       y       z     vdW  Elec       q    Type
REMARK                         _______ _______ _______ _____ _____    ______ ____
ROOT
ATOM      1  N   UNL     1      34.888 -15.551 -23.621  0.00  0.00    +0.387 N 
ATOM      2  C   UNL     1      34.694 -18.066 -22.139  0.00  0.00    +0.086 C 
ATOM      3  C   UNL     1      34.943 -16.727 -21.444  0.00  0.00    -0.000 C 
ATOM      4  C   UNL     1      35.176 -18.007 -23.588  0.00  0.00    -0.000 C 
ATOM      5  C   UNL     1      34.357 -15.566 -22.250  0.00  0.00    -0.075 C 
ATOM      6  C   UNL     1      34.581 -16.804 -24.323  0.00  0.00    -0.075 C 
ATOM      7  H   UNL     1      35.901 -15.462 -23.565  0.00  0.00    -0.080 HD
ENDROOT
BRANCH   2  10
ATOM      8 CL   UNL     1      33.353 -23.701 -18.329  0.00  0.00    -0.082 Cl
ATOM      9  O   UNL     1      37.643 -18.691 -21.756  0.00  0.00    -0.247 OA
ATOM     10  N   UNL     1      35.332 -19.142 -21.423  0.00  0.00    -0.282 N 
ATOM     11  N   UNL     1      36.862 -20.538 -20.502  0.00  0.00    -0.305 N 
ATOM     12  C   UNL     1      34.643 -20.150 -20.735  0.00  0.00    +0.079 A 
ATOM     13  C   UNL     1      36.730 -19.361 -21.293  0.00  0.00    +0.328 A 
ATOM     14  C   UNL     1      35.589 -21.004 -20.172  0.00  0.00    +0.077 A 
ATOM     15  C   UNL     1      33.290 -20.366 -20.573  0.00  0.00    +0.020 C 
ATOM     16  C   UNL     1      35.238 -22.107 -19.426  0.00  0.00    +0.030 C 
ATOM     17  C   UNL     1      32.908 -21.479 -19.818  0.00  0.00    +0.013 C 
ATOM     18  C   UNL     1      33.871 -22.340 -19.251  0.00  0.00    +0.059 C 
ATOM     19  H   UNL     1      37.713 -20.955 -20.234  0.00  0.00    +0.170 HD
ENDBRANCH   2  10
BRANCH   1  20
ATOM     20  C   UNL     1      34.355 -14.406 -24.362  0.00  0.00    -0.075 C 
BRANCH  20  21
ATOM     21  C   UNL     1      34.004 -13.239 -23.435  0.00  0.00    +0.002 C 
BRANCH  21  22
ATOM     22  C   UNL     1      32.526 -12.854 -23.438  0.00  0.00    +0.108 C 
BRANCH  22  24
ATOM     23  O   UNL     1      31.832 -13.833 -20.668  0.00  0.00    -0.247 OA
ATOM     24  N   UNL     1      32.149 -12.104 -22.271  0.00  0.00    -0.280 N 
ATOM     25  N   UNL     1      31.525 -11.545 -20.158  0.00  0.00    -0.305 N 
ATOM     26  C   UNL     1      32.028 -10.706 -22.200  0.00  0.00    +0.079 A 
ATOM     27  C   UNL     1      31.836 -12.654 -20.994  0.00  0.00    +0.328 A 
ATOM     28  C   UNL     1      31.645 -10.371 -20.903  0.00  0.00    +0.076 A 
ATOM     29  C   UNL     1      32.225  -9.740 -23.166  0.00  0.00    +0.019 C 
ATOM     30  C   UNL     1      31.442  -9.069 -20.505  0.00  0.00    +0.019 C 
ATOM     31  C   UNL     1      32.024  -8.409 -22.786  0.00  0.00    +0.002 C 
ATOM     32  C   UNL     1      31.637  -8.076 -21.470  0.00  0.00    +0.002 C 
ATOM     33  H   UNL     1      31.266 -11.597 -19.209  0.00  0.00    +0.170 HD
ENDBRANCH  22  24
ENDBRANCH  21  22
ENDBRANCH  20  21
ENDBRANCH   1  20
TORSDOF 5
ENDMDL
MODEL 5
REMARK VINA RESULT:     -11.3      1.749      2.311
REMARK  Name = 3151
REMARK  5 active torsions:
REMARK  status: ('A' for Active; 'I' for Inactive)
REMARK    1  A    between atoms: N_1  and  C_20
REMARK    2  A    between atoms: C_2  and  N_10
REMARK    3  A    between atoms: C_20  and  C_21
REMARK    4  A    between atoms: C_21  and  C_22
REMARK    5  A    between atoms: C_22  and  N_24
REMARK                            x       y       z     vdW  Elec       q    Type
REMARK                         _______ _______ _______ _____ _____    ______ ____
ROOT
ATOM      1  N   UNL     1      34.986 -15.673 -23.845  0.00  0.00    +0.387 N 
ATOM      2  C   UNL     1      34.728 -18.095 -22.225  0.00  0.00    +0.086 C 
ATOM      3  C   UNL     1      34.945 -16.716 -21.602  0.00  0.00    -0.000 C 
ATOM      4  C   UNL     1      35.275 -18.122 -23.652  0.00  0.00    -0.000 C 
ATOM      5  C   UNL     1      34.394 -15.608 -22.501  0.00  0.00    -0.075 C 
ATOM      6  C   UNL     1      34.712 -16.967 -24.484  0.00  0.00    -0.075 C 
ATOM      7  H   UNL     1      35.996 -15.577 -23.749  0.00  0.00    -0.080 HD
ENDROOT
BRANCH   2  10
ATOM      8 CL   UNL     1      33.230 -23.594 -18.276  0.00  0.00    -0.082 Cl
ATOM      9  O   UNL     1      37.653 -18.632 -21.603  0.00  0.00    -0.247 OA
ATOM     10  N   UNL     1      35.335 -19.124 -21.418  0.00  0.00    -0.282 N 
ATOM     11  N   UNL     1      36.822 -20.443 -20.328  0.00  0.00    -0.305 N 
ATOM     12  C   UNL     1      34.618 -20.118 -20.738  0.00  0.00    +0.079 A 
ATOM     13  C   UNL     1      36.724 -19.304 -21.178  0.00  0.00    +0.328 A 
ATOM     14  C   UNL     1      35.538 -20.925 -20.071  0.00  0.00    +0.077 A 
ATOM     15  C   UNL     1      33.262 -20.360 -20.665  0.00  0.00    +0.020 C 
ATOM     16  C   UNL     1      35.156 -22.003 -19.304  0.00  0.00    +0.030 C 
ATOM     17  C   UNL     1      32.849 -21.449 -19.891  0.00  0.00    +0.013 C 
ATOM     18  C   UNL     1      33.786 -22.261 -19.218  0.00  0.00    +0.059 C 
ATOM     19  H   UNL     1      37.659 -20.827 -19.981  0.00  0.00    +0.170 HD
ENDBRANCH   2  10
BRANCH   1  20
ATOM     20  C   UNL     1      34.487 -14.577 -24.677  0.00  0.00    -0.075 C 
BRANCH  20  21
ATOM     21  C   UNL     1      34.118 -13.348 -23.841  0.00  0.00    +0.002 C 
BRANCH  21  22
ATOM     22  C   UNL     1      33.617 -12.157 -24.656  0.00  0.00    +0.108 C 
BRANCH  22  24
ATOM     23  O   UNL     1      31.521 -12.004 -22.490  0.00  0.00    -0.247 OA
ATOM     24  N   UNL     1      33.237 -11.044 -23.830  0.00  0.00    -0.280 N 
ATOM     25  N   UNL     1      32.202  -9.750 -22.275  0.00  0.00    -0.305 N 
ATOM     26  C   UNL     1      33.799  -9.757 -23.880  0.00  0.00    +0.079 A 
ATOM     27  C   UNL     1      32.227 -11.063 -22.824  0.00  0.00    +0.328 A 
ATOM     28  C   UNL     1      33.160  -8.970 -22.925  0.00  0.00    +0.076 A 
ATOM     29  C   UNL     1      34.800  -9.248 -24.681  0.00  0.00    +0.019 C 
ATOM     30  C   UNL     1      33.483  -7.647 -22.720  0.00  0.00    +0.019 C 
ATOM     31  C   UNL     1      35.146  -7.906 -24.493  0.00  0.00    +0.002 C 
ATOM     32  C   UNL     1      34.496  -7.114 -23.523  0.00  0.00    +0.002 C 
ATOM     33  H   UNL     1      31.606  -9.441 -21.553  0.00  0.00    +0.170 HD
ENDBRANCH  22  24
ENDBRANCH  21  22
ENDBRANCH  20  21
ENDBRANCH   1  20
TORSDOF 5
ENDMDL
MODEL 6
REMARK VINA RESULT:     -11.1      3.149      4.806
REMARK  Name = 3151
REMARK  5 active torsions:
REMARK  status: ('A' for Active; 'I' for Inactive)
REMARK    1  A    between atoms: N_1  and  C_20
REMARK    2  A    between atoms: C_2  and  N_10
REMARK    3  A    between atoms: C_20  and  C_21
REMARK    4  A    between atoms: C_21  and  C_22
REMARK    5  A    between atoms: C_22  and  N_24
REMARK                            x       y       z     vdW  Elec       q    Type
REMARK                         _______ _______ _______ _____ _____    ______ ____
ROOT
ATOM      1  N   UNL     1      35.673 -19.075 -21.272  0.00  0.00    +0.387 N 
ATOM      2  C   UNL     1      35.013 -21.551 -19.860  0.00  0.00    +0.086 C 
ATOM      3  C   UNL     1      33.939 -20.578 -20.345  0.00  0.00    -0.000 C 
ATOM      4  C   UNL     1      36.335 -20.814 -19.643  0.00  0.00    -0.000 C 
ATOM      5  C   UNL     1      34.418 -19.784 -21.562  0.00  0.00    -0.075 C 
ATOM      6  C   UNL     1      36.734 -20.013 -20.883  0.00  0.00    -0.075 C 
ATOM      7  H   UNL     1      35.505 -18.447 -20.487  0.00  0.00    -0.080 HD
ENDROOT
BRANCH   2  10
ATOM      8 CL   UNL     1      37.279 -23.721 -13.677  0.00  0.00    -0.082 Cl
ATOM      9  O   UNL     1      32.300 -22.689 -19.099  0.00  0.00    -0.247 OA
ATOM     10  N   UNL     1      34.590 -22.225 -18.658  0.00  0.00    -0.282 N 
ATOM     11  N   UNL     1      33.369 -23.301 -17.080  0.00  0.00    -0.305 N 
ATOM     12  C   UNL     1      35.425 -22.482 -17.563  0.00  0.00    +0.079 A 
ATOM     13  C   UNL     1      33.290 -22.729 -18.382  0.00  0.00    +0.328 A 
ATOM     14  C   UNL     1      34.669 -23.144 -16.598  0.00  0.00    +0.077 A 
ATOM     15  C   UNL     1      36.757 -22.188 -17.357  0.00  0.00    +0.020 C 
ATOM     16  C   UNL     1      35.197 -23.543 -15.390  0.00  0.00    +0.030 C 
ATOM     17  C   UNL     1      37.317 -22.583 -16.139  0.00  0.00    +0.013 C 
ATOM     18  C   UNL     1      36.545 -23.253 -15.166  0.00  0.00    +0.059 C 
ATOM     19  H   UNL     1      32.628 -23.736 -16.601  0.00  0.00    +0.170 HD
ENDBRANCH   2  10
BRANCH   1  20
ATOM     20  C   UNL     1      36.090 -18.282 -22.429  0.00  0.00    -0.075 C 
BRANCH  20  21
ATOM     21  C   UNL     1      34.917 -17.523 -23.055  0.00  0.00    +0.002 C 
BRANCH  21  22
ATOM     22  C   UNL     1      35.319 -16.275 -23.839  0.00  0.00    +0.108 C 
BRANCH  22  24
ATOM     23  O   UNL     1      33.788 -15.315 -26.257  0.00  0.00    -0.247 OA
ATOM     24  N   UNL     1      34.255 -15.311 -23.924  0.00  0.00    -0.280 N 
ATOM     25  N   UNL     1      32.618 -13.951 -24.720  0.00  0.00    -0.305 N 
ATOM     26  C   UNL     1      33.705 -14.602 -22.843  0.00  0.00    +0.079 A 
ATOM     27  C   UNL     1      33.585 -14.916 -25.118  0.00  0.00    +0.328 A 
ATOM     28  C   UNL     1      32.702 -13.771 -23.338  0.00  0.00    +0.076 A 
ATOM     29  C   UNL     1      34.014 -14.637 -21.499  0.00  0.00    +0.019 C 
ATOM     30  C   UNL     1      31.964 -12.939 -22.527  0.00  0.00    +0.019 C 
ATOM     31  C   UNL     1      33.277 -13.801 -20.654  0.00  0.00    +0.002 C 
ATOM     32  C   UNL     1      32.263 -12.962 -21.161  0.00  0.00    +0.002 C 
ATOM     33  H   UNL     1      31.992 -13.484 -25.321  0.00  0.00    +0.170 HD
ENDBRANCH  22  24
ENDBRANCH  21  22
ENDBRANCH  20  21
ENDBRANCH   1  20
TORSDOF 5
ENDMDL
MODEL 7
REMARK VINA RESULT:     -11.1      3.056      9.628
REMARK  Name = 3151
REMARK  5 active torsions:
REMARK  status: ('A' for Active; 'I' for Inactive)
REMARK    1  A    between atoms: N_1  and  C_20
REMARK    2  A    between atoms: C_2  and  N_10
REMARK    3  A    between atoms: C_20  and  C_21
REMARK    4  A    between atoms: C_21  and  C_22
REMARK    5  A    between atoms: C_22  and  N_24
REMARK                            x       y       z     vdW  Elec       q    Type
REMARK                         _______ _______ _______ _____ _____    ______ ____
ROOT
ATOM      1  N   UNL     1      33.994 -16.430 -24.293  0.00  0.00    +0.387 N 
ATOM      2  C   UNL     1      34.096 -13.509 -24.397  0.00  0.00    +0.086 C 
ATOM      3  C   UNL     1      34.565 -14.298 -23.175  0.00  0.00    -0.000 C 
ATOM      4  C   UNL     1      33.068 -14.318 -25.187  0.00  0.00    -0.000 C 
ATOM      5  C   UNL     1      35.042 -15.698 -23.568  0.00  0.00    -0.075 C 
ATOM      6  C   UNL     1      33.595 -15.716 -25.514  0.00  0.00    -0.075 C 
ATOM      7  H   UNL     1      33.178 -16.496 -23.686  0.00  0.00    -0.080 HD
ENDROOT
BRANCH   2  10
ATOM      8 CL   UNL     1      30.264 -10.401 -19.525  0.00  0.00    -0.082 Cl
ATOM      9  O   UNL     1      34.349 -10.786 -25.723  0.00  0.00    -0.247 OA
ATOM     10  N   UNL     1      33.560 -12.229 -24.006  0.00  0.00    -0.282 N 
ATOM     11  N   UNL     1      33.018 -10.029 -23.921  0.00  0.00    -0.305 N 
ATOM     12  C   UNL     1      32.776 -12.018 -22.863  0.00  0.00    +0.079 A 
ATOM     13  C   UNL     1      33.729 -10.995 -24.690  0.00  0.00    +0.328 A 
ATOM     14  C   UNL     1      32.447 -10.665 -22.818  0.00  0.00    +0.077 A 
ATOM     15  C   UNL     1      32.345 -12.898 -21.892  0.00  0.00    +0.020 C 
ATOM     16  C   UNL     1      31.678 -10.125 -21.811  0.00  0.00    +0.030 C 
ATOM     17  C   UNL     1      31.562 -12.374 -20.859  0.00  0.00    +0.013 C 
ATOM     18  C   UNL     1      31.232 -11.003 -20.819  0.00  0.00    +0.059 C 
ATOM     19  H   UNL     1      32.944  -9.071 -24.132  0.00  0.00    +0.170 HD
ENDBRANCH   2  10
BRANCH   1  20
ATOM     20  C   UNL     1      34.448 -17.783 -24.618  0.00  0.00    -0.075 C 
BRANCH  20  21
ATOM     21  C   UNL     1      34.207 -18.760 -23.463  0.00  0.00    +0.002 C 
BRANCH  21  22
ATOM     22  C   UNL     1      34.689 -18.259 -22.103  0.00  0.00    +0.108 C 
BRANCH  22  24
ATOM     23  O   UNL     1      37.558 -18.881 -21.400  0.00  0.00    -0.247 OA
ATOM     24  N   UNL     1      35.221 -19.315 -21.285  0.00  0.00    -0.280 N 
ATOM     25  N   UNL     1      36.650 -20.680 -20.162  0.00  0.00    -0.305 N 
ATOM     26  C   UNL     1      34.467 -20.301 -20.628  0.00  0.00    +0.079 A 
ATOM     27  C   UNL     1      36.602 -19.534 -21.005  0.00  0.00    +0.328 A 
ATOM     28  C   UNL     1      35.349 -21.134 -19.942  0.00  0.00    +0.076 A 
ATOM     29  C   UNL     1      33.103 -20.510 -20.592  0.00  0.00    +0.019 C 
ATOM     30  C   UNL     1      34.921 -22.207 -19.193  0.00  0.00    +0.019 C 
ATOM     31  C   UNL     1      32.644 -21.595 -19.838  0.00  0.00    +0.002 C 
ATOM     32  C   UNL     1      33.543 -22.434 -19.145  0.00  0.00    +0.002 C 
ATOM     33  H   UNL     1      37.468 -21.087 -19.794  0.00  0.00    +0.170 HD
ENDBRANCH  22  24
ENDBRANCH  21  22
ENDBRANCH  20  21
ENDBRANCH   1  20
TORSDOF 5
ENDMDL
MODEL 8
REMARK VINA RESULT:     -11.0      4.123     11.450
REMARK  Name = 3151
REMARK  5 active torsions:
REMARK  status: ('A' for Active; 'I' for Inactive)
REMARK    1  A    between atoms: N_1  and  C_20
REMARK    2  A    between atoms: C_2  and  N_10
REMARK    3  A    between atoms: C_20  and  C_21
REMARK    4  A    between atoms: C_21  and  C_22
REMARK    5  A    between atoms: C_22  and  N_24
REMARK                            x       y       z     vdW  Elec       q    Type
REMARK                         _______ _______ _______ _____ _____    ______ ____
ROOT
ATOM      1  N   UNL     1      35.500 -21.065 -20.527  0.00  0.00    +0.387 N 
ATOM      2  C   UNL     1      34.853 -18.516 -21.807  0.00  0.00    +0.086 C 
ATOM      3  C   UNL     1      33.841 -19.657 -21.704  0.00  0.00    -0.000 C 
ATOM      4  C   UNL     1      36.278 -19.067 -21.759  0.00  0.00    -0.000 C 
ATOM      5  C   UNL     1      34.126 -20.544 -20.491  0.00  0.00    -0.075 C 
ATOM      6  C   UNL     1      36.482 -19.973 -20.544  0.00  0.00    -0.075 C 
ATOM      7  H   UNL     1      35.611 -21.601 -21.387  0.00  0.00    -0.080 HD
ENDROOT
BRANCH   2  10
ATOM      8 CL   UNL     1      33.921 -12.032 -24.081  0.00  0.00    -0.082 Cl
ATOM      9  O   UNL     1      34.611 -19.407 -24.701  0.00  0.00    -0.247 OA
ATOM     10  N   UNL     1      34.635 -17.743 -23.004  0.00  0.00    -0.282 N 
ATOM     11  N   UNL     1      34.321 -17.105 -25.156  0.00  0.00    -0.305 N 
ATOM     12  C   UNL     1      34.488 -16.349 -23.027  0.00  0.00    +0.079 A 
ATOM     13  C   UNL     1      34.534 -18.244 -24.330  0.00  0.00    +0.328 A 
ATOM     14  C   UNL     1      34.295 -15.964 -24.353  0.00  0.00    +0.077 A 
ATOM     15  C   UNL     1      34.511 -15.424 -22.004  0.00  0.00    +0.020 C 
ATOM     16  C   UNL     1      34.117 -14.650 -24.722  0.00  0.00    +0.030 C 
ATOM     17  C   UNL     1      34.331 -14.082 -22.354  0.00  0.00    +0.013 C 
ATOM     18  C   UNL     1      34.137 -13.699 -23.697  0.00  0.00    +0.059 C 
ATOM     19  H   UNL     1      34.210 -17.119 -26.134  0.00  0.00    +0.170 HD
ENDBRANCH   2  10
BRANCH   1  20
ATOM     20  C   UNL     1      35.740 -21.951 -19.387  0.00  0.00    -0.075 C 
BRANCH  20  21
ATOM     21  C   UNL     1      34.550 -21.978 -18.423  0.00  0.00    +0.002 C 
BRANCH  21  22
ATOM     22  C   UNL     1      33.944 -23.362 -18.206  0.00  0.00    +0.108 C 
BRANCH  22  24
ATOM     23  O   UNL     1      35.790 -24.292 -16.006  0.00  0.00    -0.247 OA
ATOM     24  N   UNL     1      33.656 -23.627 -16.823  0.00  0.00    -0.280 N 
ATOM     25  N   UNL     1      33.868 -24.194 -14.632  0.00  0.00    -0.305 N 
ATOM     26  C   UNL     1      32.400 -23.496 -16.208  0.00  0.00    +0.079 A 
ATOM     27  C   UNL     1      34.598 -24.067 -15.847  0.00  0.00    +0.328 A 
ATOM     28  C   UNL     1      32.537 -23.846 -14.866  0.00  0.00    +0.076 A 
ATOM     29  C   UNL     1      31.184 -23.104 -16.730  0.00  0.00    +0.019 C 
ATOM     30  C   UNL     1      31.480 -23.822 -13.984  0.00  0.00    +0.019 C 
ATOM     31  C   UNL     1      30.095 -23.072 -15.853  0.00  0.00    +0.002 C 
ATOM     32  C   UNL     1      30.241 -23.426 -14.495  0.00  0.00    +0.002 C 
ATOM     33  H   UNL     1      34.241 -24.483 -13.767  0.00  0.00    +0.170 HD
ENDBRANCH  22  24
ENDBRANCH  21  22
ENDBRANCH  20  21
ENDBRANCH   1  20
TORSDOF 5
ENDMDL
MODEL 9
REMARK VINA RESULT:     -10.8      4.416     12.021
REMARK  Name = 3151
REMARK  5 active torsions:
REMARK  status: ('A' for Active; 'I' for Inactive)
REMARK    1  A    between atoms: N_1  and  C_20
REMARK    2  A    between atoms: C_2  and  N_10
REMARK    3  A    between atoms: C_20  and  C_21
REMARK    4  A    between atoms: C_21  and  C_22
REMARK    5  A    between atoms: C_22  and  N_24
REMARK                            x       y       z     vdW  Elec       q    Type
REMARK                         _______ _______ _______ _____ _____    ______ ____
ROOT
ATOM      1  N   UNL     1      35.148 -21.580 -19.951  0.00  0.00    +0.387 N 
ATOM      2  C   UNL     1      34.835 -19.032 -21.353  0.00  0.00    +0.086 C 
ATOM      3  C   UNL     1      33.702 -20.053 -21.254  0.00  0.00    -0.000 C 
ATOM      4  C   UNL     1      36.189 -19.730 -21.220  0.00  0.00    -0.000 C 
ATOM      5  C   UNL     1      33.838 -20.914 -19.997  0.00  0.00    -0.075 C 
ATOM      6  C   UNL     1      36.243 -20.601 -19.963  0.00  0.00    -0.075 C 
ATOM      7  H   UNL     1      35.235 -22.161 -20.784  0.00  0.00    -0.080 HD
ENDROOT
BRANCH   2  10
ATOM      8 CL   UNL     1      34.156 -12.614 -23.888  0.00  0.00    -0.082 Cl
ATOM      9  O   UNL     1      34.923 -20.000 -24.232  0.00  0.00    -0.247 OA
ATOM     10  N   UNL     1      34.752 -18.292 -22.587  0.00  0.00    -0.282 N 
ATOM     11  N   UNL     1      34.682 -17.711 -24.777  0.00  0.00    -0.305 N 
ATOM     12  C   UNL     1      34.607 -16.900 -22.663  0.00  0.00    +0.079 A 
ATOM     13  C   UNL     1      34.803 -18.828 -23.902  0.00  0.00    +0.328 A 
ATOM     14  C   UNL     1      34.565 -16.550 -24.012  0.00  0.00    +0.077 A 
ATOM     15  C   UNL     1      34.513 -15.949 -21.669  0.00  0.00    +0.020 C 
ATOM     16  C   UNL     1      34.427 -15.247 -24.433  0.00  0.00    +0.030 C 
ATOM     17  C   UNL     1      34.372 -14.617 -22.072  0.00  0.00    +0.013 C 
ATOM     18  C   UNL     1      34.330 -14.270 -23.438  0.00  0.00    +0.059 C 
ATOM     19  H   UNL     1      34.683 -17.752 -25.760  0.00  0.00    +0.170 HD
ENDBRANCH   2  10
BRANCH   1  20
ATOM     20  C   UNL     1      35.243 -22.438 -18.768  0.00  0.00    -0.075 C 
BRANCH  20  21
ATOM     21  C   UNL     1      36.431 -22.058 -17.880  0.00  0.00    +0.002 C 
BRANCH  21  22
ATOM     22  C   UNL     1      36.119 -22.030 -16.386  0.00  0.00    +0.108 C 
BRANCH  22  24
ATOM     23  O   UNL     1      33.516 -23.480 -15.899  0.00  0.00    -0.247 OA
ATOM     24  N   UNL     1      35.891 -23.343 -15.846  0.00  0.00    -0.280 N 
ATOM     25  N   UNL     1      34.881 -25.237 -15.098  0.00  0.00    -0.305 N 
ATOM     26  C   UNL     1      36.887 -24.240 -15.424  0.00  0.00    +0.079 A 
ATOM     27  C   UNL     1      34.617 -23.952 -15.650  0.00  0.00    +0.328 A 
ATOM     28  C   UNL     1      36.261 -25.397 -14.967  0.00  0.00    +0.076 A 
ATOM     29  C   UNL     1      38.261 -24.112 -15.414  0.00  0.00    +0.019 C 
ATOM     30  C   UNL     1      36.965 -26.477 -14.482  0.00  0.00    +0.019 C 
ATOM     31  C   UNL     1      38.999 -25.195 -14.926  0.00  0.00    +0.002 C 
ATOM     32  C   UNL     1      38.358 -26.365 -14.465  0.00  0.00    +0.002 C 
ATOM     33  H   UNL     1      34.200 -25.905 -14.849  0.00  0.00    +0.170 HD
ENDBRANCH  22  24
ENDBRANCH  21  22
ENDBRANCH  20  21
ENDBRANCH   1  20
TORSDOF 5
ENDMDL
