MODEL 1
REMARK VINA RESULT:     -11.5      0.000      0.000
REMARK  Name = 446129
REMARK  7 active torsions:
REMARK  status: ('A' for Active; 'I' for Inactive)
REMARK    1  A    between atoms: C_1  and  O_2
REMARK    2  A    between atoms: C_1  and  C_4
REMARK    3  A    between atoms: C_1  and  C_18
REMARK    4  A    between atoms: C_4  and  N_5
REMARK    5  A    between atoms: C_18  and  O_19
REMARK    6  A    between atoms: O_19  and  C_23
REMARK    7  A    between atoms: C_20  and  C_26
REMARK                            x       y       z     vdW  Elec       q    Type
REMARK                         _______ _______ _______ _____ _____    ______ ____
ROOT
ATOM      1  C   UNL     1      34.955 -17.722 -23.032  0.00  0.00    +0.133 C 
ENDROOT
BRANCH   1   2
ATOM      2  O   UNL     1      36.364 -17.922 -23.171  0.00  0.00    -0.383 OA
ATOM      3  H   UNL     1      36.572 -18.129 -24.095  0.00  0.00    +0.210 HD
ENDBRANCH   1   2
BRANCH   1   4
ATOM      4  C   UNL     1      34.402 -17.271 -24.386  0.00  0.00    -0.043 C 
BRANCH   4   5
ATOM      5  N   UNL     1      33.863 -15.912 -24.337  0.00  0.00    +0.391 N 
ATOM      6  N   UNL     1      33.922 -13.072 -24.626  0.00  0.00    -0.298 N 
ATOM      7  C   UNL     1      33.879 -15.302 -25.671  0.00  0.00    -0.055 C 
ATOM      8  C   UNL     1      34.635 -15.087 -23.400  0.00  0.00    -0.055 C 
ATOM      9  C   UNL     1      33.266 -13.900 -25.643  0.00  0.00    +0.069 C 
ATOM     10  C   UNL     1      34.046 -13.678 -23.295  0.00  0.00    +0.069 C 
ATOM     11  H   UNL     1      32.898 -15.966 -24.010  0.00  0.00    -0.079 HD
ATOM     12  N   UNL     1      33.274 -10.964 -23.686  0.00  0.00    -0.229 NA
ATOM     13  C   UNL     1      33.840 -11.677 -24.708  0.00  0.00    +0.132 C 
ATOM     14  C   UNL     1      34.346 -11.044 -25.852  0.00  0.00    +0.034 C 
ATOM     15  C   UNL     1      34.271  -9.658 -25.948  0.00  0.00    +0.004 C 
ATOM     16  C   UNL     1      33.219  -9.619 -23.815  0.00  0.00    +0.100 C 
ATOM     17  C   UNL     1      33.698  -8.925 -24.915  0.00  0.00    +0.021 C 
ENDBRANCH   4   5
ENDBRANCH   1   4
BRANCH   1  18
ATOM     18  C   UNL     1      34.324 -19.017 -22.523  0.00  0.00    +0.232 C 
BRANCH  18  19
ATOM     19  O   UNL     1      35.300 -19.744 -21.783  0.00  0.00    -0.473 OA
BRANCH  19  23
ATOM     20  C   UNL     1      33.885 -22.259 -18.800  0.00  0.00    -0.022 C 
ATOM     21  C   UNL     1      35.258 -22.102 -18.986  0.00  0.00    -0.001 C 
ATOM     22  C   UNL     1      32.987 -21.572 -19.617  0.00  0.00    -0.001 C 
ATOM     23  C   UNL     1      34.833 -20.574 -20.800  0.00  0.00    +0.139 C 
ATOM     24  C   UNL     1      35.734 -21.257 -19.988  0.00  0.00    +0.037 C 
ATOM     25  C   UNL     1      33.463 -20.728 -20.620  0.00  0.00    +0.037 C 
BRANCH  20  26
ATOM     26  C   UNL     1      33.367 -23.180 -17.711  0.00  0.00    +0.022 C 
ATOM     27  C   UNL     1      34.304 -23.208 -16.490  0.00  0.00    +0.004 C 
ATOM     28  C   UNL     1      31.931 -22.823 -17.293  0.00  0.00    +0.004 C 
ATOM     29  C   UNL     1      33.779 -24.145 -15.403  0.00  0.00    +0.000 C 
ATOM     30  C   UNL     1      31.415 -23.761 -16.203  0.00  0.00    +0.000 C 
ATOM     31  C   UNL     1      32.350 -23.792 -14.999  0.00  0.00    +0.000 C 
ENDBRANCH  20  26
ENDBRANCH  19  23
ENDBRANCH  18  19
ENDBRANCH   1  18
TORSDOF 7
ENDMDL
MODEL 2
REMARK VINA RESULT:     -11.5      2.788     12.184
REMARK  Name = 446129
REMARK  7 active torsions:
REMARK  status: ('A' for Active; 'I' for Inactive)
REMARK    1  A    between atoms: C_1  and  O_2
REMARK    2  A    between atoms: C_1  and  C_4
REMARK    3  A    between atoms: C_1  and  C_18
REMARK    4  A    between atoms: C_4  and  N_5
REMARK    5  A    between atoms: C_18  and  O_19
REMARK    6  A    between atoms: O_19  and  C_23
REMARK    7  A    between atoms: C_20  and  C_26
REMARK                            x       y       z     vdW  Elec       q    Type
REMARK                         _______ _______ _______ _____ _____    ______ ____
ROOT
ATOM      1  C   UNL     1      33.740 -15.200 -24.242  0.00  0.00    +0.133 C 
ENDROOT
BRANCH   1   2
ATOM      2  O   UNL     1      32.751 -15.167 -25.274  0.00  0.00    -0.383 OA
ATOM      3  H   UNL     1      32.906 -14.399 -25.846  0.00  0.00    +0.210 HD
ENDBRANCH   1   2
BRANCH   1   4
ATOM      4  C   UNL     1      34.951 -15.975 -24.766  0.00  0.00    -0.043 C 
BRANCH   4   5
ATOM      5  N   UNL     1      35.188 -17.203 -24.008  0.00  0.00    +0.391 N 
ATOM      6  N   UNL     1      34.711 -19.139 -21.962  0.00  0.00    -0.298 N 
ATOM      7  C   UNL     1      34.020 -18.089 -24.081  0.00  0.00    -0.055 C 
ATOM      8  C   UNL     1      35.492 -16.892 -22.606  0.00  0.00    -0.055 C 
ATOM      9  C   UNL     1      34.277 -19.402 -23.338  0.00  0.00    +0.069 C 
ATOM     10  C   UNL     1      35.799 -18.165 -21.813  0.00  0.00    +0.069 C 
ATOM     11  H   UNL     1      35.990 -17.681 -24.420  0.00  0.00    -0.079 HD
ATOM     12  N   UNL     1      35.698 -20.600 -20.338  0.00  0.00    -0.229 NA
ATOM     13  C   UNL     1      34.587 -20.139 -20.991  0.00  0.00    +0.132 C 
ATOM     14  C   UNL     1      33.310 -20.647 -20.714  0.00  0.00    +0.034 C 
ATOM     15  C   UNL     1      33.172 -21.643 -19.753  0.00  0.00    +0.004 C 
ATOM     16  C   UNL     1      35.524 -21.568 -19.410  0.00  0.00    +0.100 C 
ATOM     17  C   UNL     1      34.294 -22.117 -19.084  0.00  0.00    +0.021 C 
ENDBRANCH   4   5
ENDBRANCH   1   4
BRANCH   1  18
ATOM     18  C   UNL     1      34.072 -13.764 -23.836  0.00  0.00    +0.232 C 
BRANCH  18  19
ATOM     19  O   UNL     1      34.088 -12.948 -25.003  0.00  0.00    -0.473 OA
BRANCH  19  23
ATOM     20  C   UNL     1      34.036  -8.841 -24.407  0.00  0.00    -0.022 C 
ATOM     21  C   UNL     1      33.178  -9.662 -23.676  0.00  0.00    -0.001 C 
ATOM     22  C   UNL     1      34.911  -9.400 -25.338  0.00  0.00    -0.001 C 
ATOM     23  C   UNL     1      34.070 -11.594 -24.806  0.00  0.00    +0.139 C 
ATOM     24  C   UNL     1      33.195 -11.043 -23.876  0.00  0.00    +0.037 C 
ATOM     25  C   UNL     1      34.927 -10.780 -25.539  0.00  0.00    +0.037 C 
BRANCH  20  26
ATOM     26  C   UNL     1      34.016  -7.340 -24.189  0.00  0.00    +0.022 C 
ATOM     27  C   UNL     1      34.212  -6.566 -25.505  0.00  0.00    +0.004 C 
ATOM     28  C   UNL     1      32.736  -6.883 -23.468  0.00  0.00    +0.004 C 
ATOM     29  C   UNL     1      34.199  -5.056 -25.274  0.00  0.00    +0.000 C 
ATOM     30  C   UNL     1      32.730  -5.371 -23.245  0.00  0.00    +0.000 C 
ATOM     31  C   UNL     1      32.933  -4.608 -24.550  0.00  0.00    +0.000 C 
ENDBRANCH  20  26
ENDBRANCH  19  23
ENDBRANCH  18  19
ENDBRANCH   1  18
TORSDOF 7
ENDMDL
MODEL 3
REMARK VINA RESULT:     -11.4      1.552      2.288
REMARK  Name = 446129
REMARK  7 active torsions:
REMARK  status: ('A' for Active; 'I' for Inactive)
REMARK    1  A    between atoms: C_1  and  O_2
REMARK    2  A    between atoms: C_1  and  C_4
REMARK    3  A    between atoms: C_1  and  C_18
REMARK    4  A    between atoms: C_4  and  N_5
REMARK    5  A    between atoms: C_18  and  O_19
REMARK    6  A    between atoms: O_19  and  C_23
REMARK    7  A    between atoms: C_20  and  C_26
REMARK                            x       y       z     vdW  Elec       q    Type
REMARK                         _______ _______ _______ _____ _____    ______ ____
ROOT
ATOM      1  C   UNL     1      35.485 -17.929 -22.603  0.00  0.00    +0.133 C 
ENDROOT
BRANCH   1   2
ATOM      2  O   UNL     1      36.842 -18.300 -22.859  0.00  0.00    -0.383 OA
ATOM      3  H   UNL     1      37.130 -18.950 -22.200  0.00  0.00    +0.210 HD
ENDBRANCH   1   2
BRANCH   1   4
ATOM      4  C   UNL     1      34.956 -17.179 -23.828  0.00  0.00    -0.043 C 
BRANCH   4   5
ATOM      5  N   UNL     1      34.674 -15.775 -23.534  0.00  0.00    +0.391 N 
ATOM      6  N   UNL     1      33.120 -13.565 -22.605  0.00  0.00    -0.298 N 
ATOM      7  C   UNL     1      34.435 -15.586 -22.098  0.00  0.00    -0.055 C 
ATOM      8  C   UNL     1      33.510 -15.312 -24.299  0.00  0.00    -0.055 C 
ATOM      9  C   UNL     1      34.195 -14.111 -21.769  0.00  0.00    +0.069 C 
ATOM     10  C   UNL     1      33.239 -13.827 -24.044  0.00  0.00    +0.069 C 
ATOM     11  H   UNL     1      35.488 -15.223 -23.808  0.00  0.00    -0.079 HD
ATOM     12  N   UNL     1      32.458 -11.295 -22.997  0.00  0.00    -0.229 NA
ATOM     13  C   UNL     1      32.446 -12.407 -22.201  0.00  0.00    +0.132 C 
ATOM     14  C   UNL     1      31.768 -12.423 -20.973  0.00  0.00    +0.034 C 
ATOM     15  C   UNL     1      31.095 -11.279 -20.558  0.00  0.00    +0.004 C 
ATOM     16  C   UNL     1      31.792 -10.203 -22.561  0.00  0.00    +0.100 C 
ATOM     17  C   UNL     1      31.101 -10.145 -21.361  0.00  0.00    +0.021 C 
ENDBRANCH   4   5
ENDBRANCH   1   4
BRANCH   1  18
ATOM     18  C   UNL     1      34.687 -19.191 -22.276  0.00  0.00    +0.232 C 
BRANCH  18  19
ATOM     19  O   UNL     1      35.526 -20.095 -21.564  0.00  0.00    -0.473 OA
BRANCH  19  23
ATOM     20  C   UNL     1      33.719 -22.388 -18.615  0.00  0.00    -0.022 C 
ATOM     21  C   UNL     1      35.109 -22.356 -18.719  0.00  0.00    -0.001 C 
ATOM     22  C   UNL     1      32.936 -21.650 -19.502  0.00  0.00    -0.001 C 
ATOM     23  C   UNL     1      34.931 -20.852 -20.592  0.00  0.00    +0.139 C 
ATOM     24  C   UNL     1      35.717 -21.585 -19.710  0.00  0.00    +0.037 C 
ATOM     25  C   UNL     1      33.544 -20.880 -20.494  0.00  0.00    +0.037 C 
BRANCH  20  26
ATOM     26  C   UNL     1      33.058 -23.227 -17.537  0.00  0.00    +0.022 C 
ATOM     27  C   UNL     1      33.875 -23.234 -16.233  0.00  0.00    +0.004 C 
ATOM     28  C   UNL     1      31.608 -22.785 -17.275  0.00  0.00    +0.004 C 
ATOM     29  C   UNL     1      33.206 -24.089 -15.158  0.00  0.00    +0.000 C 
ATOM     30  C   UNL     1      30.948 -23.642 -16.196  0.00  0.00    +0.000 C 
ATOM     31  C   UNL     1      31.765 -23.653 -14.908  0.00  0.00    +0.000 C 
ENDBRANCH  20  26
ENDBRANCH  19  23
ENDBRANCH  18  19
ENDBRANCH   1  18
TORSDOF 7
ENDMDL
MODEL 4
REMARK VINA RESULT:     -11.3      2.773     12.151
REMARK  Name = 446129
REMARK  7 active torsions:
REMARK  status: ('A' for Active; 'I' for Inactive)
REMARK    1  A    between atoms: C_1  and  O_2
REMARK    2  A    between atoms: C_1  and  C_4
REMARK    3  A    between atoms: C_1  and  C_18
REMARK    4  A    between atoms: C_4  and  N_5
REMARK    5  A    between atoms: C_18  and  O_19
REMARK    6  A    between atoms: O_19  and  C_23
REMARK    7  A    between atoms: C_20  and  C_26
REMARK                            x       y       z     vdW  Elec       q    Type
REMARK                         _______ _______ _______ _____ _____    ______ ____
ROOT
ATOM      1  C   UNL     1      33.802 -15.175 -24.191  0.00  0.00    +0.133 C 
ENDROOT
BRANCH   1   2
ATOM      2  O   UNL     1      32.726 -15.214 -25.133  0.00  0.00    -0.383 OA
ATOM      3  H   UNL     1      32.154 -14.441 -25.003  0.00  0.00    +0.210 HD
ENDBRANCH   1   2
BRANCH   1   4
ATOM      4  C   UNL     1      34.964 -15.991 -24.761  0.00  0.00    -0.043 C 
BRANCH   4   5
ATOM      5  N   UNL     1      35.211 -17.210 -23.990  0.00  0.00    +0.391 N 
ATOM      6  N   UNL     1      34.723 -19.149 -21.951  0.00  0.00    -0.298 N 
ATOM      7  C   UNL     1      34.070 -18.127 -24.095  0.00  0.00    -0.055 C 
ATOM      8  C   UNL     1      35.463 -16.884 -22.581  0.00  0.00    -0.055 C 
ATOM      9  C   UNL     1      34.340 -19.429 -23.338  0.00  0.00    +0.069 C 
ATOM     10  C   UNL     1      35.780 -18.146 -21.774  0.00  0.00    +0.069 C 
ATOM     11  H   UNL     1      36.038 -17.667 -24.375  0.00  0.00    -0.079 HD
ATOM     12  N   UNL     1      35.698 -20.577 -20.291  0.00  0.00    -0.229 NA
ATOM     13  C   UNL     1      34.597 -20.149 -20.980  0.00  0.00    +0.132 C 
ATOM     14  C   UNL     1      33.326 -20.690 -20.740  0.00  0.00    +0.034 C 
ATOM     15  C   UNL     1      33.184 -21.685 -19.779  0.00  0.00    +0.004 C 
ATOM     16  C   UNL     1      35.522 -21.546 -19.364  0.00  0.00    +0.100 C 
ATOM     17  C   UNL     1      34.298 -22.126 -19.073  0.00  0.00    +0.021 C 
ENDBRANCH   4   5
ENDBRANCH   1   4
BRANCH   1  18
ATOM     18  C   UNL     1      34.164 -13.715 -23.922  0.00  0.00    +0.232 C 
BRANCH  18  19
ATOM     19  O   UNL     1      34.224 -13.019 -25.164  0.00  0.00    -0.473 OA
BRANCH  19  23
ATOM     20  C   UNL     1      33.203  -8.997 -25.098  0.00  0.00    -0.022 C 
ATOM     21  C   UNL     1      33.704  -9.570 -26.267  0.00  0.00    -0.001 C 
ATOM     22  C   UNL     1      33.046  -9.775 -23.952  0.00  0.00    -0.001 C 
ATOM     23  C   UNL     1      33.888 -11.692 -25.142  0.00  0.00    +0.139 C 
ATOM     24  C   UNL     1      34.047 -10.922 -26.289  0.00  0.00    +0.037 C 
ATOM     25  C   UNL     1      33.390 -11.127 -23.974  0.00  0.00    +0.037 C 
BRANCH  20  26
ATOM     26  C   UNL     1      32.832  -7.526 -25.074  0.00  0.00    +0.022 C 
ATOM     27  C   UNL     1      31.623  -7.254 -24.161  0.00  0.00    +0.004 C 
ATOM     28  C   UNL     1      34.027  -6.640 -24.684  0.00  0.00    +0.004 C 
ATOM     29  C   UNL     1      31.252  -5.772 -24.151  0.00  0.00    +0.000 C 
ATOM     30  C   UNL     1      33.646  -5.160 -24.672  0.00  0.00    +0.000 C 
ATOM     31  C   UNL     1      32.443  -4.896 -23.772  0.00  0.00    +0.000 C 
ENDBRANCH  20  26
ENDBRANCH  19  23
ENDBRANCH  18  19
ENDBRANCH   1  18
TORSDOF 7
ENDMDL
MODEL 5
REMARK VINA RESULT:     -11.1      2.145      4.437
REMARK  Name = 446129
REMARK  7 active torsions:
REMARK  status: ('A' for Active; 'I' for Inactive)
REMARK    1  A    between atoms: C_1  and  O_2
REMARK    2  A    between atoms: C_1  and  C_4
REMARK    3  A    between atoms: C_1  and  C_18
REMARK    4  A    between atoms: C_4  and  N_5
REMARK    5  A    between atoms: C_18  and  O_19
REMARK    6  A    between atoms: O_19  and  C_23
REMARK    7  A    between atoms: C_20  and  C_26
REMARK                            x       y       z     vdW  Elec       q    Type
REMARK                         _______ _______ _______ _____ _____    ______ ____
ROOT
ATOM      1  C   UNL     1      33.637 -14.244 -25.507  0.00  0.00    +0.133 C 
ENDROOT
BRANCH   1   2
ATOM      2  O   UNL     1      32.320 -13.958 -25.986  0.00  0.00    -0.383 OA
ATOM      3  H   UNL     1      32.080 -13.049 -25.749  0.00  0.00    +0.210 HD
ENDBRANCH   1   2
BRANCH   1   4
ATOM      4  C   UNL     1      33.940 -13.291 -24.348  0.00  0.00    -0.043 C 
BRANCH   4   5
ATOM      5  N   UNL     1      33.437 -11.941 -24.599  0.00  0.00    +0.391 N 
ATOM      6  N   UNL     1      33.489  -9.086 -24.540  0.00  0.00    -0.298 N 
ATOM      7  C   UNL     1      34.364 -11.197 -25.459  0.00  0.00    -0.055 C 
ATOM      8  C   UNL     1      33.242 -11.221 -23.334  0.00  0.00    -0.055 C 
ATOM      9  C   UNL     1      33.822  -9.801 -25.776  0.00  0.00    +0.069 C 
ATOM     10  C   UNL     1      32.662  -9.826 -23.580  0.00  0.00    +0.069 C 
ATOM     11  H   UNL     1      32.537 -12.020 -25.074  0.00  0.00    -0.079 HD
ATOM     12  N   UNL     1      32.221  -7.080 -24.200  0.00  0.00    -0.229 NA
ATOM     13  C   UNL     1      33.395  -7.689 -24.549  0.00  0.00    +0.132 C 
ATOM     14  C   UNL     1      34.523  -6.946 -24.924  0.00  0.00    +0.034 C 
ATOM     15  C   UNL     1      34.445  -5.558 -24.939  0.00  0.00    +0.004 C 
ATOM     16  C   UNL     1      32.182  -5.729 -24.226  0.00  0.00    +0.100 C 
ATOM     17  C   UNL     1      33.256  -4.930 -24.585  0.00  0.00    +0.021 C 
ENDBRANCH   4   5
ENDBRANCH   1   4
BRANCH   1  18
ATOM     18  C   UNL     1      33.704 -15.718 -25.111  0.00  0.00    +0.232 C 
BRANCH  18  19
ATOM     19  O   UNL     1      34.839 -15.919 -24.274  0.00  0.00    -0.473 OA
BRANCH  19  23
ATOM     20  C   UNL     1      34.854 -19.349 -21.938  0.00  0.00    -0.022 C 
ATOM     21  C   UNL     1      34.472 -19.419 -23.277  0.00  0.00    -0.001 C 
ATOM     22  C   UNL     1      35.231 -18.126 -21.384  0.00  0.00    -0.001 C 
ATOM     23  C   UNL     1      34.843 -17.050 -23.504  0.00  0.00    +0.139 C 
ATOM     24  C   UNL     1      34.467 -18.267 -24.063  0.00  0.00    +0.037 C 
ATOM     25  C   UNL     1      35.225 -16.973 -22.169  0.00  0.00    +0.037 C 
BRANCH  20  26
ATOM     26  C   UNL     1      34.859 -20.603 -21.084  0.00  0.00    +0.022 C 
ATOM     27  C   UNL     1      36.046 -20.627 -20.105  0.00  0.00    +0.004 C 
ATOM     28  C   UNL     1      33.527 -20.792 -20.338  0.00  0.00    +0.004 C 
ATOM     29  C   UNL     1      36.046 -21.898 -19.257  0.00  0.00    +0.000 C 
ATOM     30  C   UNL     1      33.537 -22.062 -19.489  0.00  0.00    +0.000 C 
ATOM     31  C   UNL     1      34.719 -22.086 -18.526  0.00  0.00    +0.000 C 
ENDBRANCH  20  26
ENDBRANCH  19  23
ENDBRANCH  18  19
ENDBRANCH   1  18
TORSDOF 7
ENDMDL
MODEL 6
REMARK VINA RESULT:     -11.0      2.325      4.757
REMARK  Name = 446129
REMARK  7 active torsions:
REMARK  status: ('A' for Active; 'I' for Inactive)
REMARK    1  A    between atoms: C_1  and  O_2
REMARK    2  A    between atoms: C_1  and  C_4
REMARK    3  A    between atoms: C_1  and  C_18
REMARK    4  A    between atoms: C_4  and  N_5
REMARK    5  A    between atoms: C_18  and  O_19
REMARK    6  A    between atoms: O_19  and  C_23
REMARK    7  A    between atoms: C_20  and  C_26
REMARK                            x       y       z     vdW  Elec       q    Type
REMARK                         _______ _______ _______ _____ _____    ______ ____
ROOT
ATOM      1  C   UNL     1      33.526 -13.764 -24.286  0.00  0.00    +0.133 C 
ENDROOT
BRANCH   1   2
ATOM      2  O   UNL     1      32.686 -14.549 -25.135  0.00  0.00    -0.383 OA
ATOM      3  H   UNL     1      33.210 -15.251 -25.550  0.00  0.00    +0.210 HD
ENDBRANCH   1   2
BRANCH   1   4
ATOM      4  C   UNL     1      32.648 -13.117 -23.212  0.00  0.00    -0.043 C 
BRANCH   4   5
ATOM      5  N   UNL     1      32.911 -11.684 -23.075  0.00  0.00    +0.391 N 
ATOM      6  N   UNL     1      32.562  -8.904 -23.629  0.00  0.00    -0.298 N 
ATOM      7  C   UNL     1      31.708 -10.981 -22.615  0.00  0.00    -0.055 C 
ATOM      8  C   UNL     1      33.362 -11.120 -24.353  0.00  0.00    -0.055 C 
ATOM      9  C   UNL     1      31.986  -9.489 -22.414  0.00  0.00    +0.069 C 
ATOM     10  C   UNL     1      33.696  -9.633 -24.210  0.00  0.00    +0.069 C 
ATOM     11  H   UNL     1      33.650 -11.562 -22.382  0.00  0.00    -0.079 HD
ATOM     12  N   UNL     1      33.645  -6.794 -23.974  0.00  0.00    -0.229 NA
ATOM     13  C   UNL     1      32.495  -7.521 -23.834  0.00  0.00    +0.132 C 
ATOM     14  C   UNL     1      31.232  -6.914 -23.888  0.00  0.00    +0.034 C 
ATOM     15  C   UNL     1      31.150  -5.540 -24.089  0.00  0.00    +0.004 C 
ATOM     16  C   UNL     1      33.526  -5.461 -24.169  0.00  0.00    +0.100 C 
ATOM     17  C   UNL     1      32.313  -4.793 -24.233  0.00  0.00    +0.021 C 
ENDBRANCH   4   5
ENDBRANCH   1   4
BRANCH   1  18
ATOM     18  C   UNL     1      34.619 -14.664 -23.711  0.00  0.00    +0.232 C 
BRANCH  18  19
ATOM     19  O   UNL     1      34.587 -15.916 -24.389  0.00  0.00    -0.473 OA
BRANCH  19  23
ATOM     20  C   UNL     1      34.847 -19.322 -22.031  0.00  0.00    -0.022 C 
ATOM     21  C   UNL     1      34.406 -19.419 -23.351  0.00  0.00    -0.001 C 
ATOM     22  C   UNL     1      35.199 -18.079 -21.504  0.00  0.00    -0.001 C 
ATOM     23  C   UNL     1      34.672 -17.039 -23.611  0.00  0.00    +0.139 C 
ATOM     24  C   UNL     1      34.319 -18.275 -24.143  0.00  0.00    +0.037 C 
ATOM     25  C   UNL     1      35.111 -16.935 -22.296  0.00  0.00    +0.037 C 
BRANCH  20  26
ATOM     26  C   UNL     1      34.941 -20.567 -21.169  0.00  0.00    +0.022 C 
ATOM     27  C   UNL     1      36.176 -20.538 -20.251  0.00  0.00    +0.004 C 
ATOM     28  C   UNL     1      33.656 -20.797 -20.355  0.00  0.00    +0.004 C 
ATOM     29  C   UNL     1      36.266 -21.800 -19.395  0.00  0.00    +0.000 C 
ATOM     30  C   UNL     1      33.756 -22.058 -19.498  0.00  0.00    +0.000 C 
ATOM     31  C   UNL     1      34.986 -22.030 -18.596  0.00  0.00    +0.000 C 
ENDBRANCH  20  26
ENDBRANCH  19  23
ENDBRANCH  18  19
ENDBRANCH   1  18
TORSDOF 7
ENDMDL
MODEL 7
REMARK VINA RESULT:     -11.0      5.268     11.072
REMARK  Name = 446129
REMARK  7 active torsions:
REMARK  status: ('A' for Active; 'I' for Inactive)
REMARK    1  A    between atoms: C_1  and  O_2
REMARK    2  A    between atoms: C_1  and  C_4
REMARK    3  A    between atoms: C_1  and  C_18
REMARK    4  A    between atoms: C_4  and  N_5
REMARK    5  A    between atoms: C_18  and  O_19
REMARK    6  A    between atoms: O_19  and  C_23
REMARK    7  A    between atoms: C_20  and  C_26
REMARK                            x       y       z     vdW  Elec       q    Type
REMARK                         _______ _______ _______ _____ _____    ______ ____
ROOT
ATOM      1  C   UNL     1      37.099 -22.940 -16.116  0.00  0.00    +0.133 C 
ENDROOT
BRANCH   1   2
ATOM      2  O   UNL     1      37.514 -22.357 -14.878  0.00  0.00    -0.383 OA
ATOM      3  H   UNL     1      37.254 -21.423 -14.857  0.00  0.00    +0.210 HD
ENDBRANCH   1   2
BRANCH   1   4
ATOM      4  C   UNL     1      36.038 -24.000 -15.813  0.00  0.00    -0.043 C 
BRANCH   4   5
ATOM      5  N   UNL     1      34.681 -23.459 -15.892  0.00  0.00    +0.391 N 
ATOM      6  N   UNL     1      31.830 -23.577 -16.024  0.00  0.00    -0.298 N 
ATOM      7  C   UNL     1      33.898 -23.855 -14.715  0.00  0.00    -0.055 C 
ATOM      8  C   UNL     1      34.013 -23.922 -17.115  0.00  0.00    -0.055 C 
ATOM      9  C   UNL     1      32.494 -23.248 -14.759  0.00  0.00    +0.069 C 
ATOM     10  C   UNL     1      32.613 -23.317 -17.239  0.00  0.00    +0.069 C 
ATOM     11  H   UNL     1      34.746 -22.441 -15.918  0.00  0.00    -0.079 HD
ATOM     12  N   UNL     1      29.847 -22.670 -17.019  0.00  0.00    -0.229 NA
ATOM     13  C   UNL     1      30.435 -23.511 -16.115  0.00  0.00    +0.132 C 
ATOM     14  C   UNL     1      29.671 -24.321 -15.262  0.00  0.00    +0.034 C 
ATOM     15  C   UNL     1      28.284 -24.265 -15.339  0.00  0.00    +0.004 C 
ATOM     16  C   UNL     1      28.496 -22.643 -17.065  0.00  0.00    +0.100 C 
ATOM     17  C   UNL     1      27.677 -23.414 -16.255  0.00  0.00    +0.021 C 
ENDBRANCH   4   5
ENDBRANCH   1   4
BRANCH   1  18
ATOM     18  C   UNL     1      36.596 -21.828 -17.036  0.00  0.00    +0.232 C 
BRANCH  18  19
ATOM     19  O   UNL     1      36.504 -22.336 -18.364  0.00  0.00    -0.473 OA
BRANCH  19  23
ATOM     20  C   UNL     1      35.070 -19.735 -21.263  0.00  0.00    -0.022 C 
ATOM     21  C   UNL     1      36.410 -19.682 -20.880  0.00  0.00    -0.001 C 
ATOM     22  C   UNL     1      34.212 -20.661 -20.670  0.00  0.00    -0.001 C 
ATOM     23  C   UNL     1      36.031 -21.478 -19.319  0.00  0.00    +0.139 C 
ATOM     24  C   UNL     1      36.892 -20.556 -19.906  0.00  0.00    +0.037 C 
ATOM     25  C   UNL     1      34.694 -21.535 -19.696  0.00  0.00    +0.037 C 
BRANCH  20  26
ATOM     26  C   UNL     1      34.545 -18.783 -22.321  0.00  0.00    +0.022 C 
ATOM     27  C   UNL     1      35.286 -17.434 -22.299  0.00  0.00    +0.004 C 
ATOM     28  C   UNL     1      34.586 -19.410 -23.725  0.00  0.00    +0.004 C 
ATOM     29  C   UNL     1      34.744 -16.481 -23.362  0.00  0.00    +0.000 C 
ATOM     30  C   UNL     1      34.047 -18.448 -24.783  0.00  0.00    +0.000 C 
ATOM     31  C   UNL     1      34.778 -17.110 -24.752  0.00  0.00    +0.000 C 
ENDBRANCH  20  26
ENDBRANCH  19  23
ENDBRANCH  18  19
ENDBRANCH   1  18
TORSDOF 7
ENDMDL
MODEL 8
REMARK VINA RESULT:     -10.8      1.222      2.123
REMARK  Name = 446129
REMARK  7 active torsions:
REMARK  status: ('A' for Active; 'I' for Inactive)
REMARK    1  A    between atoms: C_1  and  O_2
REMARK    2  A    between atoms: C_1  and  C_4
REMARK    3  A    between atoms: C_1  and  C_18
REMARK    4  A    between atoms: C_4  and  N_5
REMARK    5  A    between atoms: C_18  and  O_19
REMARK    6  A    between atoms: O_19  and  C_23
REMARK    7  A    between atoms: C_20  and  C_26
REMARK                            x       y       z     vdW  Elec       q    Type
REMARK                         _______ _______ _______ _____ _____    ______ ____
ROOT
ATOM      1  C   UNL     1      34.468 -16.237 -23.833  0.00  0.00    +0.133 C 
ENDROOT
BRANCH   1   2
ATOM      2  O   UNL     1      35.794 -15.825 -24.174  0.00  0.00    -0.383 OA
ATOM      3  H   UNL     1      36.433 -16.457 -23.810  0.00  0.00    +0.210 HD
ENDBRANCH   1   2
BRANCH   1   4
ATOM      4  C   UNL     1      33.525 -15.780 -24.948  0.00  0.00    -0.043 C 
BRANCH   4   5
ATOM      5  N   UNL     1      33.196 -14.358 -24.844  0.00  0.00    +0.391 N 
ATOM      6  N   UNL     1      33.716 -11.590 -24.373  0.00  0.00    -0.298 N 
ATOM      7  C   UNL     1      33.981 -13.576 -25.806  0.00  0.00    -0.055 C 
ATOM      8  C   UNL     1      33.446 -13.872 -23.481  0.00  0.00    -0.055 C 
ATOM      9  C   UNL     1      33.605 -12.093 -25.746  0.00  0.00    +0.069 C 
ATOM     10  C   UNL     1      33.052 -12.399 -23.343  0.00  0.00    +0.069 C 
ATOM     11  H   UNL     1      32.205 -14.245 -25.057  0.00  0.00    -0.079 HD
ATOM     12  N   UNL     1      32.911  -9.554 -23.396  0.00  0.00    -0.229 NA
ATOM     13  C   UNL     1      33.846 -10.215 -24.146  0.00  0.00    +0.132 C 
ATOM     14  C   UNL     1      34.945  -9.546 -24.702  0.00  0.00    +0.034 C 
ATOM     15  C   UNL     1      35.088  -8.180 -24.486  0.00  0.00    +0.004 C 
ATOM     16  C   UNL     1      33.083  -8.226 -23.208  0.00  0.00    +0.100 C 
ATOM     17  C   UNL     1      34.143  -7.500 -23.726  0.00  0.00    +0.021 C 
ENDBRANCH   4   5
ENDBRANCH   1   4
BRANCH   1  18
ATOM     18  C   UNL     1      34.465 -17.750 -23.621  0.00  0.00    +0.232 C 
BRANCH  18  19
ATOM     19  O   UNL     1      35.589 -18.105 -22.822  0.00  0.00    -0.473 OA
BRANCH  19  23
ATOM     20  C   UNL     1      35.021 -21.138 -20.046  0.00  0.00    -0.022 C 
ATOM     21  C   UNL     1      33.940 -20.658 -20.785  0.00  0.00    -0.001 C 
ATOM     22  C   UNL     1      36.293 -20.598 -20.239  0.00  0.00    -0.001 C 
ATOM     23  C   UNL     1      35.402 -19.105 -21.906  0.00  0.00    +0.139 C 
ATOM     24  C   UNL     1      34.131 -19.639 -21.718  0.00  0.00    +0.037 C 
ATOM     25  C   UNL     1      36.483 -19.578 -21.171  0.00  0.00    +0.037 C 
BRANCH  20  26
ATOM     26  C   UNL     1      34.813 -22.246 -19.030  0.00  0.00    +0.022 C 
ATOM     27  C   UNL     1      35.624 -22.006 -17.744  0.00  0.00    +0.004 C 
ATOM     28  C   UNL     1      33.323 -22.456 -18.710  0.00  0.00    +0.004 C 
ATOM     29  C   UNL     1      35.415 -23.132 -16.733  0.00  0.00    +0.000 C 
ATOM     30  C   UNL     1      33.123 -23.580 -17.694  0.00  0.00    +0.000 C 
ATOM     31  C   UNL     1      33.935 -23.343 -16.425  0.00  0.00    +0.000 C 
ENDBRANCH  20  26
ENDBRANCH  19  23
ENDBRANCH  18  19
ENDBRANCH   1  18
TORSDOF 7
ENDMDL
MODEL 9
REMARK VINA RESULT:     -10.5      5.643     12.087
REMARK  Name = 446129
REMARK  7 active torsions:
REMARK  status: ('A' for Active; 'I' for Inactive)
REMARK    1  A    between atoms: C_1  and  O_2
REMARK    2  A    between atoms: C_1  and  C_4
REMARK    3  A    between atoms: C_1  and  C_18
REMARK    4  A    between atoms: C_4  and  N_5
REMARK    5  A    between atoms: C_18  and  O_19
REMARK    6  A    between atoms: O_19  and  C_23
REMARK    7  A    between atoms: C_20  and  C_26
REMARK                            x       y       z     vdW  Elec       q    Type
REMARK                         _______ _______ _______ _____ _____    ______ ____
ROOT
ATOM      1  C   UNL     1      31.925 -22.776 -16.761  0.00  0.00    +0.133 C 
ENDROOT
BRANCH   1   2
ATOM      2  O   UNL     1      30.533 -23.098 -16.709  0.00  0.00    -0.383 OA
ATOM      3  H   UNL     1      30.419 -24.058 -16.792  0.00  0.00    +0.210 HD
ENDBRANCH   1   2
BRANCH   1   4
ATOM      4  C   UNL     1      32.583 -23.301 -15.483  0.00  0.00    -0.043 C 
BRANCH   4   5
ATOM      5  N   UNL     1      33.944 -23.782 -15.722  0.00  0.00    +0.391 N 
ATOM      6  N   UNL     1      36.596 -24.566 -15.009  0.00  0.00    -0.298 N 
ATOM      7  C   UNL     1      34.179 -25.042 -15.009  0.00  0.00    -0.055 C 
ATOM      8  C   UNL     1      34.926 -22.776 -15.299  0.00  0.00    -0.055 C 
ATOM      9  C   UNL     1      35.581 -25.584 -15.296  0.00  0.00    +0.069 C 
ATOM     10  C   UNL     1      36.354 -23.243 -15.597  0.00  0.00    +0.069 C 
ATOM     11  H   UNL     1      34.052 -23.945 -16.724  0.00  0.00    -0.079 HD
ATOM     12  N   UNL     1      38.920 -24.481 -15.592  0.00  0.00    -0.229 NA
ATOM     13  C   UNL     1      37.922 -24.951 -14.782  0.00  0.00    +0.132 C 
ATOM     14  C   UNL     1      38.193 -25.822 -13.717  0.00  0.00    +0.034 C 
ATOM     15  C   UNL     1      39.505 -26.215 -13.480  0.00  0.00    +0.004 C 
ATOM     16  C   UNL     1      40.184 -24.884 -15.331  0.00  0.00    +0.100 C 
ATOM     17  C   UNL     1      40.525 -25.741 -14.297  0.00  0.00    +0.021 C 
ENDBRANCH   4   5
ENDBRANCH   1   4
BRANCH   1  18
ATOM     18  C   UNL     1      32.518 -23.373 -18.036  0.00  0.00    +0.232 C 
BRANCH  18  19
ATOM     19  O   UNL     1      33.875 -22.957 -18.150  0.00  0.00    -0.473 OA
BRANCH  19  23
ATOM     20  C   UNL     1      34.733 -20.186 -21.119  0.00  0.00    -0.022 C 
ATOM     21  C   UNL     1      33.407 -20.455 -20.778  0.00  0.00    -0.001 C 
ATOM     22  C   UNL     1      35.770 -20.849 -20.463  0.00  0.00    -0.001 C 
ATOM     23  C   UNL     1      34.158 -22.043 -19.130  0.00  0.00    +0.139 C 
ATOM     24  C   UNL     1      33.119 -21.385 -19.780  0.00  0.00    +0.037 C 
ATOM     25  C   UNL     1      35.481 -21.781 -19.466  0.00  0.00    +0.037 C 
BRANCH  20  26
ATOM     26  C   UNL     1      35.046 -19.174 -22.205  0.00  0.00    +0.022 C 
ATOM     27  C   UNL     1      34.094 -19.308 -23.407  0.00  0.00    +0.004 C 
ATOM     28  C   UNL     1      35.049 -17.734 -21.663  0.00  0.00    +0.004 C 
ATOM     29  C   UNL     1      34.423 -18.291 -24.498  0.00  0.00    +0.000 C 
ATOM     30  C   UNL     1      35.374 -16.723 -22.761  0.00  0.00    +0.000 C 
ATOM     31  C   UNL     1      34.434 -16.865 -23.954  0.00  0.00    +0.000 C 
ENDBRANCH  20  26
ENDBRANCH  19  23
ENDBRANCH  18  19
ENDBRANCH   1  18
TORSDOF 7
ENDMDL
