MODEL 1
REMARK VINA RESULT:     -12.6      0.000      0.000
REMARK  Name = 5288641
REMARK  1 active torsions:
REMARK  status: ('A' for Active; 'I' for Inactive)
REMARK    1  A    between atoms: C_14  and  S_23
REMARK                            x       y       z     vdW  Elec       q    Type
REMARK                         _______ _______ _______ _____ _____    ______ ____
ROOT
ATOM      1  O   UNL     1      35.135 -24.463 -14.784  0.00  0.00    -0.270 OA
ATOM      2  O   UNL     1      31.786 -22.400 -18.287  0.00  0.00    -0.285 OA
ATOM      3  N   UNL     1      35.104 -22.885 -17.300  0.00  0.00    -0.310 N 
ATOM      4  N   UNL     1      32.925 -24.970 -14.120  0.00  0.00    -0.280 N 
ATOM      5  C   UNL     1      33.176 -23.753 -16.043  0.00  0.00    +0.071 C 
ATOM      6  C   UNL     1      31.748 -23.954 -15.815  0.00  0.00    +0.020 C 
ATOM      7  C   UNL     1      33.774 -23.102 -17.041  0.00  0.00    +0.092 C 
ATOM      8  C   UNL     1      31.654 -24.698 -14.635  0.00  0.00    +0.051 C 
ATOM      9  C   UNL     1      33.927 -24.422 -14.928  0.00  0.00    +0.251 C 
ATOM     10  C   UNL     1      34.004 -21.846 -19.029  0.00  0.00    +0.054 C 
ATOM     11  C   UNL     1      35.253 -22.147 -18.468  0.00  0.00    +0.051 C 
ATOM     12  C   UNL     1      32.989 -22.442 -18.143  0.00  0.00    +0.210 C 
ATOM     13  C   UNL     1      30.612 -23.571 -16.501  0.00  0.00    +0.020 C 
ATOM     14  C   UNL     1      29.372 -23.951 -15.976  0.00  0.00    +0.112 C 
ATOM     15  C   UNL     1      30.440 -25.084 -14.101  0.00  0.00    +0.016 C 
ATOM     16  C   UNL     1      29.286 -24.700 -14.789  0.00  0.00    +0.020 C 
ATOM     17  C   UNL     1      33.853 -21.121 -20.193  0.00  0.00    +0.004 C 
ATOM     18  C   UNL     1      36.409 -21.713 -19.082  0.00  0.00    +0.015 C 
ATOM     19  C   UNL     1      35.022 -20.683 -20.814  0.00  0.00    +0.000 C 
ATOM     20  C   UNL     1      36.287 -20.975 -20.265  0.00  0.00    +0.001 C 
ATOM     21  H   UNL     1      35.847 -23.206 -16.740  0.00  0.00    +0.152 HD
ATOM     22  H   UNL     1      33.094 -25.481 -13.295  0.00  0.00    +0.155 HD
ENDROOT
BRANCH  14  23
ATOM     23  S   UNL     1      27.905 -23.487 -16.808  0.00  0.00    +0.042 S 
ATOM     24  O   UNL     1      26.805 -23.232 -15.627  0.00  0.00    -0.065 OA
ATOM     25  O   UNL     1      28.143 -22.205 -17.453  0.00  0.00    -0.065 OA
ATOM     26  O   UNL     1      27.478 -24.641 -17.583  0.00  0.00    -0.065 OA
ENDBRANCH  14  23
TORSDOF 1
ENDMDL
MODEL 2
REMARK VINA RESULT:     -10.7      3.582      6.962
REMARK  Name = 5288641
REMARK  1 active torsions:
REMARK  status: ('A' for Active; 'I' for Inactive)
REMARK    1  A    between atoms: C_14  and  S_23
REMARK                            x       y       z     vdW  Elec       q    Type
REMARK                         _______ _______ _______ _____ _____    ______ ____
ROOT
ATOM      1  O   UNL     1      34.278 -22.180 -18.492  0.00  0.00    -0.270 OA
ATOM      2  O   UNL     1      32.822 -24.551 -14.019  0.00  0.00    -0.285 OA
ATOM      3  N   UNL     1      31.852 -23.106 -17.050  0.00  0.00    -0.310 N 
ATOM      4  N   UNL     1      36.209 -22.664 -17.219  0.00  0.00    -0.280 N 
ATOM      5  C   UNL     1      34.195 -23.280 -16.322  0.00  0.00    +0.071 C 
ATOM      6  C   UNL     1      35.246 -23.665 -15.386  0.00  0.00    +0.020 C 
ATOM      7  C   UNL     1      32.877 -23.447 -16.205  0.00  0.00    +0.092 C 
ATOM      8  C   UNL     1      36.448 -23.267 -15.980  0.00  0.00    +0.051 C 
ATOM      9  C   UNL     1      34.840 -22.629 -17.510  0.00  0.00    +0.251 C 
ATOM     10  C   UNL     1      30.812 -24.095 -15.256  0.00  0.00    +0.054 C 
ATOM     11  C   UNL     1      30.631 -23.482 -16.504  0.00  0.00    +0.051 C 
ATOM     12  C   UNL     1      32.263 -24.105 -14.998  0.00  0.00    +0.210 C 
ATOM     13  C   UNL     1      35.241 -24.287 -14.152  0.00  0.00    +0.020 C 
ATOM     14  C   UNL     1      36.473 -24.503 -13.523  0.00  0.00    +0.112 C 
ATOM     15  C   UNL     1      37.673 -23.471 -15.377  0.00  0.00    +0.016 C 
ATOM     16  C   UNL     1      37.676 -24.099 -14.130  0.00  0.00    +0.020 C 
ATOM     17  C   UNL     1      29.769 -24.567 -14.487  0.00  0.00    +0.004 C 
ATOM     18  C   UNL     1      29.361 -23.325 -17.018  0.00  0.00    +0.015 C 
ATOM     19  C   UNL     1      28.485 -24.410 -15.008  0.00  0.00    +0.000 C 
ATOM     20  C   UNL     1      28.282 -23.795 -16.261  0.00  0.00    +0.001 C 
ATOM     21  H   UNL     1      31.963 -22.658 -17.920  0.00  0.00    +0.152 HD
ATOM     22  H   UNL     1      36.912 -22.308 -17.810  0.00  0.00    +0.155 HD
ENDROOT
BRANCH  14  23
ATOM     23  S   UNL     1      36.517 -25.286 -11.960  0.00  0.00    +0.042 S 
ATOM     24  O   UNL     1      34.987 -25.194 -11.392  0.00  0.00    -0.065 OA
ATOM     25  O   UNL     1      36.808 -26.695 -12.174  0.00  0.00    -0.065 OA
ATOM     26  O   UNL     1      37.367 -24.472 -11.105  0.00  0.00    -0.065 OA
ENDBRANCH  14  23
TORSDOF 1
ENDMDL
MODEL 3
REMARK VINA RESULT:      -9.7      2.395      2.998
REMARK  Name = 5288641
REMARK  1 active torsions:
REMARK  status: ('A' for Active; 'I' for Inactive)
REMARK    1  A    between atoms: C_14  and  S_23
REMARK                            x       y       z     vdW  Elec       q    Type
REMARK                         _______ _______ _______ _____ _____    ______ ____
ROOT
ATOM      1  O   UNL     1      37.986 -22.881 -16.297  0.00  0.00    -0.270 OA
ATOM      2  O   UNL     1      32.899 -22.589 -17.632  0.00  0.00    -0.285 OA
ATOM      3  N   UNL     1      36.215 -21.833 -18.439  0.00  0.00    -0.310 N 
ATOM      4  N   UNL     1      36.694 -23.942 -14.626  0.00  0.00    -0.280 N 
ATOM      5  C   UNL     1      35.559 -23.044 -16.400  0.00  0.00    +0.071 C 
ATOM      6  C   UNL     1      34.585 -23.644 -15.493  0.00  0.00    +0.020 C 
ATOM      7  C   UNL     1      35.341 -22.412 -17.554  0.00  0.00    +0.092 C 
ATOM      8  C   UNL     1      35.328 -24.174 -14.435  0.00  0.00    +0.051 C 
ATOM      9  C   UNL     1      36.928 -23.247 -15.818  0.00  0.00    +0.251 C 
ATOM     10  C   UNL     1      34.144 -21.495 -19.373  0.00  0.00    +0.054 C 
ATOM     11  C   UNL     1      35.523 -21.290 -19.514  0.00  0.00    +0.051 C 
ATOM     12  C   UNL     1      33.953 -22.226 -18.108  0.00  0.00    +0.210 C 
ATOM     13  C   UNL     1      33.208 -23.757 -15.515  0.00  0.00    +0.020 C 
ATOM     14  C   UNL     1      32.589 -24.416 -14.448  0.00  0.00    +0.112 C 
ATOM     15  C   UNL     1      34.737 -24.828 -13.372  0.00  0.00    +0.016 C 
ATOM     16  C   UNL     1      33.345 -24.947 -13.387  0.00  0.00    +0.020 C 
ATOM     17  C   UNL     1      33.216 -21.059 -20.296  0.00  0.00    +0.004 C 
ATOM     18  C   UNL     1      36.013 -20.622 -20.616  0.00  0.00    +0.015 C 
ATOM     19  C   UNL     1      33.712 -20.383 -21.411  0.00  0.00    +0.000 C 
ATOM     20  C   UNL     1      35.095 -20.167 -21.571  0.00  0.00    +0.001 C 
ATOM     21  H   UNL     1      37.192 -21.806 -18.328  0.00  0.00    +0.152 HD
ATOM     22  H   UNL     1      37.401 -24.229 -14.003  0.00  0.00    +0.155 HD
ENDROOT
BRANCH  14  23
ATOM     23  S   UNL     1      30.848 -24.584 -14.431  0.00  0.00    +0.042 S 
ATOM     24  O   UNL     1      30.427 -24.517 -12.853  0.00  0.00    -0.065 OA
ATOM     25  O   UNL     1      30.280 -23.409 -15.073  0.00  0.00    -0.065 OA
ATOM     26  O   UNL     1      30.548 -25.919 -14.924  0.00  0.00    -0.065 OA
ENDBRANCH  14  23
TORSDOF 1
ENDMDL
