MODEL 1
REMARK VINA RESULT:     -12.2      0.000      0.000
REMARK  Name = 447731
REMARK  4 active torsions:
REMARK  status: ('A' for Active; 'I' for Inactive)
REMARK    1  A    between atoms: N_2  and  C_13
REMARK    2  A    between atoms: C_3  and  C_19
REMARK    3  A    between atoms: C_6  and  C_17
REMARK    4  A    between atoms: C_27  and  C_31
REMARK                            x       y       z     vdW  Elec       q    Type
REMARK                         _______ _______ _______ _____ _____    ______ ____
ROOT
ATOM      1  O   UNL     1      33.472 -23.907 -18.390  0.00  0.00    -0.270 OA
ATOM      2  N   UNL     1      34.835 -22.467 -17.126  0.00  0.00    -0.280 N 
ATOM      3  C   UNL     1      34.069 -22.847 -18.235  0.00  0.00    +0.249 C 
ATOM      4  H   UNL     1      35.247 -21.573 -17.170  0.00  0.00    +0.155 HD
ENDROOT
BRANCH   2  13
ATOM      5  N   UNL     1      36.829 -26.542 -12.547  0.00  0.00    +0.387 N 
ATOM      6  C   UNL     1      37.804 -25.527 -14.577  0.00  0.00    +0.001 C 
ATOM      7  C   UNL     1      36.544 -24.683 -14.693  0.00  0.00    -0.029 C 
ATOM      8  C   UNL     1      38.053 -25.997 -13.130  0.00  0.00    -0.077 C 
ATOM      9  C   UNL     1      35.591 -24.694 -13.654  0.00  0.00    -0.048 C 
ATOM     10  C   UNL     1      35.835 -25.477 -12.388  0.00  0.00    -0.055 C 
ATOM     11  C   UNL     1      36.263 -23.947 -15.856  0.00  0.00    +0.010 C 
ATOM     12  C   UNL     1      34.421 -23.930 -13.769  0.00  0.00    -0.005 C 
ATOM     13  C   UNL     1      35.088 -23.200 -15.964  0.00  0.00    +0.050 C 
ATOM     14  C   UNL     1      34.171 -23.187 -14.920  0.00  0.00    +0.014 C 
ATOM     15  H   UNL     1      37.040 -26.947 -11.635  0.00  0.00    -0.084 HD
ATOM     16  H   UNL     1      36.454 -27.262 -13.166  0.00  0.00    -0.084 HD
BRANCH   6  17
ATOM     17  C   UNL     1      39.067 -24.821 -15.085  0.00  0.00    +0.002 C 
ATOM     18  C   UNL     1      40.269 -25.738 -15.023  0.00  0.00    +0.000 C 
ENDBRANCH   6  17
ENDBRANCH   2  13
BRANCH   3  19
ATOM     19  C   UNL     1      34.009 -21.852 -19.338  0.00  0.00    +0.054 C 
ATOM     20  C   UNL     1      35.143 -20.339 -20.825  0.00  0.00    +0.000 C 
ATOM     21  C   UNL     1      33.896 -19.995 -21.400  0.00  0.00    +0.000 C 
ATOM     22  C   UNL     1      35.183 -21.281 -19.783  0.00  0.00    +0.005 C 
ATOM     23  C   UNL     1      32.784 -21.535 -19.879  0.00  0.00    +0.005 C 
ATOM     24  C   UNL     1      32.726 -20.602 -20.914  0.00  0.00    +0.000 C 
ATOM     25  C   UNL     1      33.855 -19.053 -22.441  0.00  0.00    +0.003 C 
ATOM     26  C   UNL     1      36.313 -19.733 -21.310  0.00  0.00    +0.000 C 
ATOM     27  C   UNL     1      35.028 -18.460 -22.910  0.00  0.00    +0.031 C 
ATOM     28  C   UNL     1      36.254 -18.800 -22.345  0.00  0.00    +0.003 C 
BRANCH  27  31
ATOM     29  N   UNL     1      35.622 -16.260 -23.894  0.00  0.00    -0.343 N 
ATOM     30  N   UNL     1      34.283 -17.759 -25.083  0.00  0.00    -0.285 NA
ATOM     31  C   UNL     1      34.969 -17.487 -23.989  0.00  0.00    +0.117 C 
ATOM     32  H   UNL     1      35.569 -15.616 -24.636  0.00  0.00    +0.144 HD
ATOM     33  H   UNL     1      36.137 -16.037 -23.084  0.00  0.00    +0.144 HD
ATOM     34  H   UNL     1      34.242 -17.102 -25.815  0.00  0.00    +0.188 HD
ENDBRANCH  27  31
ENDBRANCH   3  19
TORSDOF 4
ENDMDL
MODEL 2
REMARK VINA RESULT:     -11.5      1.078      2.512
REMARK  Name = 447731
REMARK  4 active torsions:
REMARK  status: ('A' for Active; 'I' for Inactive)
REMARK    1  A    between atoms: N_2  and  C_13
REMARK    2  A    between atoms: C_3  and  C_19
REMARK    3  A    between atoms: C_6  and  C_17
REMARK    4  A    between atoms: C_27  and  C_31
REMARK                            x       y       z     vdW  Elec       q    Type
REMARK                         _______ _______ _______ _____ _____    ______ ____
ROOT
ATOM      1  O   UNL     1      34.104 -23.516 -18.262  0.00  0.00    -0.270 OA
ATOM      2  N   UNL     1      35.765 -22.099 -17.389  0.00  0.00    -0.280 N 
ATOM      3  C   UNL     1      34.778 -22.492 -18.301  0.00  0.00    +0.249 C 
ATOM      4  H   UNL     1      36.209 -21.240 -17.575  0.00  0.00    +0.155 HD
ENDROOT
BRANCH   2  13
ATOM      5  N   UNL     1      36.657 -24.723 -11.569  0.00  0.00    +0.387 N 
ATOM      6  C   UNL     1      34.716 -24.098 -12.964  0.00  0.00    +0.001 C 
ATOM      7  C   UNL     1      35.694 -23.781 -14.085  0.00  0.00    -0.029 C 
ATOM      8  C   UNL     1      35.300 -25.107 -11.955  0.00  0.00    -0.077 C 
ATOM      9  C   UNL     1      37.058 -24.110 -13.943  0.00  0.00    -0.048 C 
ATOM     10  C   UNL     1      37.555 -24.840 -12.721  0.00  0.00    -0.055 C 
ATOM     11  C   UNL     1      35.285 -23.090 -15.237  0.00  0.00    +0.010 C 
ATOM     12  C   UNL     1      37.963 -23.801 -14.969  0.00  0.00    -0.005 C 
ATOM     13  C   UNL     1      36.197 -22.776 -16.247  0.00  0.00    +0.050 C 
ATOM     14  C   UNL     1      37.534 -23.137 -16.115  0.00  0.00    +0.014 C 
ATOM     15  H   UNL     1      36.983 -25.337 -10.822  0.00  0.00    -0.084 HD
ATOM     16  H   UNL     1      36.652 -23.756 -11.244  0.00  0.00    -0.084 HD
BRANCH   6  17
ATOM     17  C   UNL     1      33.365 -24.628 -13.458  0.00  0.00    +0.002 C 
ATOM     18  C   UNL     1      32.348 -23.513 -13.570  0.00  0.00    +0.000 C 
ENDBRANCH   6  17
ENDBRANCH   2  13
BRANCH   3  19
ATOM     19  C   UNL     1      34.560 -21.564 -19.442  0.00  0.00    +0.054 C 
ATOM     20  C   UNL     1      35.458 -20.038 -21.071  0.00  0.00    +0.000 C 
ATOM     21  C   UNL     1      34.151 -19.832 -21.574  0.00  0.00    +0.000 C 
ATOM     22  C   UNL     1      35.648 -20.918 -19.992  0.00  0.00    +0.005 C 
ATOM     23  C   UNL     1      33.280 -21.381 -19.913  0.00  0.00    +0.005 C 
ATOM     24  C   UNL     1      33.073 -20.511 -20.983  0.00  0.00    +0.000 C 
ATOM     25  C   UNL     1      33.961 -18.952 -22.652  0.00  0.00    +0.003 C 
ATOM     26  C   UNL     1      36.536 -19.359 -21.660  0.00  0.00    +0.000 C 
ATOM     27  C   UNL     1      35.044 -18.285 -23.226  0.00  0.00    +0.031 C 
ATOM     28  C   UNL     1      36.329 -18.489 -22.730  0.00  0.00    +0.003 C 
BRANCH  27  31
ATOM     29  N   UNL     1      35.341 -16.081 -24.329  0.00  0.00    -0.343 N 
ATOM     30  N   UNL     1      34.137 -17.777 -25.391  0.00  0.00    -0.285 NA
ATOM     31  C   UNL     1      34.830 -17.378 -24.341  0.00  0.00    +0.117 C 
ATOM     32  H   UNL     1      35.185 -15.483 -25.095  0.00  0.00    +0.144 HD
ATOM     33  H   UNL     1      35.859 -15.763 -23.554  0.00  0.00    +0.144 HD
ATOM     34  H   UNL     1      33.990 -17.164 -26.148  0.00  0.00    +0.188 HD
ENDBRANCH  27  31
ENDBRANCH   3  19
TORSDOF 4
ENDMDL
MODEL 3
REMARK VINA RESULT:     -10.8      7.425     14.568
REMARK  Name = 447731
REMARK  4 active torsions:
REMARK  status: ('A' for Active; 'I' for Inactive)
REMARK    1  A    between atoms: N_2  and  C_13
REMARK    2  A    between atoms: C_3  and  C_19
REMARK    3  A    between atoms: C_6  and  C_17
REMARK    4  A    between atoms: C_27  and  C_31
REMARK                            x       y       z     vdW  Elec       q    Type
REMARK                         _______ _______ _______ _____ _____    ______ ____
ROOT
ATOM      1  O   UNL     1      33.503 -12.869 -25.503  0.00  0.00    -0.270 OA
ATOM      2  N   UNL     1      34.222 -11.499 -23.732  0.00  0.00    -0.280 N 
ATOM      3  C   UNL     1      33.948 -12.715 -24.370  0.00  0.00    +0.249 C 
ATOM      4  H   UNL     1      34.578 -11.562 -22.816  0.00  0.00    +0.155 HD
ENDROOT
BRANCH   2  13
ATOM      5  N   UNL     1      32.157  -5.744 -25.772  0.00  0.00    +0.387 N 
ATOM      6  C   UNL     1      31.485  -7.365 -24.033  0.00  0.00    +0.001 C 
ATOM      7  C   UNL     1      32.733  -8.165 -24.375  0.00  0.00    -0.029 C 
ATOM      8  C   UNL     1      31.629  -5.878 -24.416  0.00  0.00    -0.077 C 
ATOM      9  C   UNL     1      33.691  -7.630 -25.260  0.00  0.00    -0.048 C 
ATOM     10  C   UNL     1      33.536  -6.239 -25.821  0.00  0.00    -0.055 C 
ATOM     11  C   UNL     1      32.919  -9.470 -23.890  0.00  0.00    +0.010 C 
ATOM     12  C   UNL     1      34.833  -8.375 -25.590  0.00  0.00    -0.005 C 
ATOM     13  C   UNL     1      34.053 -10.207 -24.236  0.00  0.00    +0.050 C 
ATOM     14  C   UNL     1      35.012  -9.658 -25.079  0.00  0.00    +0.014 C 
ATOM     15  H   UNL     1      32.141  -4.761 -26.045  0.00  0.00    -0.084 HD
ATOM     16  H   UNL     1      31.581  -6.290 -26.412  0.00  0.00    -0.084 HD
BRANCH   6  17
ATOM     17  C   UNL     1      31.084  -7.452 -22.556  0.00  0.00    +0.002 C 
ATOM     18  C   UNL     1      32.241  -7.084 -21.653  0.00  0.00    +0.000 C 
ENDBRANCH   6  17
ENDBRANCH   2  13
BRANCH   3  19
ATOM     19  C   UNL     1      34.207 -13.933 -23.558  0.00  0.00    +0.054 C 
ATOM     20  C   UNL     1      34.721 -16.281 -23.453  0.00  0.00    +0.000 C 
ATOM     21  C   UNL     1      34.692 -16.207 -22.039  0.00  0.00    +0.000 C 
ATOM     22  C   UNL     1      34.474 -15.121 -24.206  0.00  0.00    +0.005 C 
ATOM     23  C   UNL     1      34.173 -13.835 -22.185  0.00  0.00    +0.005 C 
ATOM     24  C   UNL     1      34.415 -14.976 -21.422  0.00  0.00    +0.000 C 
ATOM     25  C   UNL     1      34.938 -17.366 -21.286  0.00  0.00    +0.003 C 
ATOM     26  C   UNL     1      34.997 -17.511 -24.071  0.00  0.00    +0.000 C 
ATOM     27  C   UNL     1      35.210 -18.581 -21.916  0.00  0.00    +0.031 C 
ATOM     28  C   UNL     1      35.240 -18.652 -23.307  0.00  0.00    +0.003 C 
BRANCH  27  31
ATOM     29  N   UNL     1      36.684 -19.968 -20.479  0.00  0.00    -0.343 N 
ATOM     30  N   UNL     1      34.528 -20.695 -21.003  0.00  0.00    -0.285 NA
ATOM     31  C   UNL     1      35.464 -19.772 -21.122  0.00  0.00    +0.117 C 
ATOM     32  H   UNL     1      36.835 -20.781 -19.946  0.00  0.00    +0.144 HD
ATOM     33  H   UNL     1      37.397 -19.292 -20.557  0.00  0.00    +0.144 HD
ATOM     34  H   UNL     1      34.697 -21.503 -20.466  0.00  0.00    +0.188 HD
ENDBRANCH  27  31
ENDBRANCH   3  19
TORSDOF 4
ENDMDL
MODEL 4
REMARK VINA RESULT:     -10.6      8.168     14.971
REMARK  Name = 447731
REMARK  4 active torsions:
REMARK  status: ('A' for Active; 'I' for Inactive)
REMARK    1  A    between atoms: N_2  and  C_13
REMARK    2  A    between atoms: C_3  and  C_19
REMARK    3  A    between atoms: C_6  and  C_17
REMARK    4  A    between atoms: C_27  and  C_31
REMARK                            x       y       z     vdW  Elec       q    Type
REMARK                         _______ _______ _______ _____ _____    ______ ____
ROOT
ATOM      1  O   UNL     1      33.486 -11.622 -25.017  0.00  0.00    -0.270 OA
ATOM      2  N   UNL     1      32.896 -10.750 -22.914  0.00  0.00    -0.280 N 
ATOM      3  C   UNL     1      33.368 -11.727 -23.800  0.00  0.00    +0.249 C 
ATOM      4  H   UNL     1      32.868 -11.007 -21.963  0.00  0.00    +0.155 HD
ENDROOT
BRANCH   2  13
ATOM      5  N   UNL     1      32.132  -4.442 -23.995  0.00  0.00    +0.387 N 
ATOM      6  C   UNL     1      33.978  -6.073 -24.188  0.00  0.00    +0.001 C 
ATOM      7  C   UNL     1      32.972  -7.166 -23.859  0.00  0.00    -0.029 C 
ATOM      8  C   UNL     1      33.299  -4.825 -24.787  0.00  0.00    -0.077 C 
ATOM      9  C   UNL     1      31.598  -6.859 -23.787  0.00  0.00    -0.048 C 
ATOM     10  C   UNL     1      31.096  -5.473 -24.103  0.00  0.00    -0.055 C 
ATOM     11  C   UNL     1      33.389  -8.470 -23.544  0.00  0.00    +0.010 C 
ATOM     12  C   UNL     1      30.673  -7.864 -23.466  0.00  0.00    -0.005 C 
ATOM     13  C   UNL     1      32.459  -9.458 -23.213  0.00  0.00    +0.050 C 
ATOM     14  C   UNL     1      31.102  -9.157 -23.180  0.00  0.00    +0.014 C 
ATOM     15  H   UNL     1      31.764  -3.556 -24.341  0.00  0.00    -0.084 HD
ATOM     16  H   UNL     1      32.407  -4.344 -23.018  0.00  0.00    -0.084 HD
BRANCH   6  17
ATOM     17  C   UNL     1      35.091  -6.527 -25.139  0.00  0.00    +0.002 C 
ATOM     18  C   UNL     1      35.321  -5.510 -26.236  0.00  0.00    +0.000 C 
ENDBRANCH   6  17
ENDBRANCH   2  13
BRANCH   3  19
ATOM     19  C   UNL     1      33.735 -13.027 -23.179  0.00  0.00    +0.054 C 
ATOM     20  C   UNL     1      34.503 -15.294 -23.422  0.00  0.00    +0.000 C 
ATOM     21  C   UNL     1      34.420 -15.454 -22.018  0.00  0.00    +0.000 C 
ATOM     22  C   UNL     1      34.152 -14.059 -23.994  0.00  0.00    +0.005 C 
ATOM     23  C   UNL     1      33.646 -13.157 -21.812  0.00  0.00    +0.005 C 
ATOM     24  C   UNL     1      33.989 -14.376 -21.227  0.00  0.00    +0.000 C 
ATOM     25  C   UNL     1      34.769 -16.689 -21.446  0.00  0.00    +0.003 C 
ATOM     26  C   UNL     1      34.932 -16.371 -24.212  0.00  0.00    +0.000 C 
ATOM     27  C   UNL     1      35.194 -17.749 -22.247  0.00  0.00    +0.031 C 
ATOM     28  C   UNL     1      35.276 -17.590 -23.628  0.00  0.00    +0.003 C 
BRANCH  27  31
ATOM     29  N   UNL     1      36.695 -19.151 -20.853  0.00  0.00    -0.343 N 
ATOM     30  N   UNL     1      34.790 -20.080 -21.833  0.00  0.00    -0.285 NA
ATOM     31  C   UNL     1      35.552 -19.020 -21.639  0.00  0.00    +0.117 C 
ATOM     32  H   UNL     1      36.919 -20.021 -20.450  0.00  0.00    +0.144 HD
ATOM     33  H   UNL     1      37.279 -18.373 -20.698  0.00  0.00    +0.144 HD
ATOM     34  H   UNL     1      35.031 -20.943 -21.422  0.00  0.00    +0.188 HD
ENDBRANCH  27  31
ENDBRANCH   3  19
TORSDOF 4
ENDMDL
MODEL 5
REMARK VINA RESULT:     -10.6      7.441     14.466
REMARK  Name = 447731
REMARK  4 active torsions:
REMARK  status: ('A' for Active; 'I' for Inactive)
REMARK    1  A    between atoms: N_2  and  C_13
REMARK    2  A    between atoms: C_3  and  C_19
REMARK    3  A    between atoms: C_6  and  C_17
REMARK    4  A    between atoms: C_27  and  C_31
REMARK                            x       y       z     vdW  Elec       q    Type
REMARK                         _______ _______ _______ _____ _____    ______ ____
ROOT
ATOM      1  O   UNL     1      33.293 -12.549 -26.222  0.00  0.00    -0.270 OA
ATOM      2  N   UNL     1      34.256 -11.656 -24.272  0.00  0.00    -0.280 N 
ATOM      3  C   UNL     1      33.831 -12.680 -25.128  0.00  0.00    +0.249 C 
ATOM      4  H   UNL     1      34.671 -11.944 -23.426  0.00  0.00    +0.155 HD
ENDROOT
BRANCH   2  13
ATOM      5  N   UNL     1      32.582  -5.451 -24.762  0.00  0.00    +0.387 N 
ATOM      6  C   UNL     1      31.968  -7.353 -23.310  0.00  0.00    +0.001 C 
ATOM      7  C   UNL     1      33.067  -8.156 -23.991  0.00  0.00    -0.029 C 
ATOM      8  C   UNL     1      32.222  -5.835 -23.398  0.00  0.00    -0.077 C 
ATOM      9  C   UNL     1      33.955  -7.518 -24.881  0.00  0.00    -0.048 C 
ATOM     10  C   UNL     1      33.880  -6.030 -25.117  0.00  0.00    -0.055 C 
ATOM     11  C   UNL     1      33.171  -9.545 -23.816  0.00  0.00    +0.010 C 
ATOM     12  C   UNL     1      34.957  -8.262 -25.523  0.00  0.00    -0.005 C 
ATOM     13  C   UNL     1      34.165 -10.277 -24.470  0.00  0.00    +0.050 C 
ATOM     14  C   UNL     1      35.060  -9.635 -25.318  0.00  0.00    +0.014 C 
ATOM     15  H   UNL     1      32.637  -4.434 -24.823  0.00  0.00    -0.084 HD
ATOM     16  H   UNL     1      31.872  -5.798 -25.407  0.00  0.00    -0.084 HD
BRANCH   6  17
ATOM     17  C   UNL     1      31.755  -7.728 -21.839  0.00  0.00    +0.002 C 
ATOM     18  C   UNL     1      32.873  -7.192 -20.971  0.00  0.00    +0.000 C 
ENDBRANCH   6  17
ENDBRANCH   2  13
BRANCH   3  19
ATOM     19  C   UNL     1      34.041 -14.062 -24.622  0.00  0.00    +0.054 C 
ATOM     20  C   UNL     1      34.502 -15.547 -22.786  0.00  0.00    +0.000 C 
ATOM     21  C   UNL     1      34.434 -16.644 -23.678  0.00  0.00    +0.000 C 
ATOM     22  C   UNL     1      34.301 -14.247 -23.280  0.00  0.00    +0.005 C 
ATOM     23  C   UNL     1      33.970 -15.111 -25.510  0.00  0.00    +0.005 C 
ATOM     24  C   UNL     1      34.167 -16.408 -25.038  0.00  0.00    +0.000 C 
ATOM     25  C   UNL     1      34.636 -17.944 -23.186  0.00  0.00    +0.003 C 
ATOM     26  C   UNL     1      34.769 -15.782 -21.428  0.00  0.00    +0.000 C 
ATOM     27  C   UNL     1      34.900 -18.159 -21.833  0.00  0.00    +0.031 C 
ATOM     28  C   UNL     1      34.967 -17.079 -20.956  0.00  0.00    +0.003 C 
BRANCH  27  31
ATOM     29  N   UNL     1      36.314 -19.893 -20.758  0.00  0.00    -0.343 N 
ATOM     30  N   UNL     1      34.140 -20.403 -21.440  0.00  0.00    -0.285 NA
ATOM     31  C   UNL     1      35.107 -19.510 -21.339  0.00  0.00    +0.117 C 
ATOM     32  H   UNL     1      36.433 -20.814 -20.430  0.00  0.00    +0.144 HD
ATOM     33  H   UNL     1      37.049 -19.243 -20.675  0.00  0.00    +0.144 HD
ATOM     34  H   UNL     1      34.277 -21.319 -21.107  0.00  0.00    +0.188 HD
ENDBRANCH  27  31
ENDBRANCH   3  19
TORSDOF 4
ENDMDL
MODEL 6
REMARK VINA RESULT:     -10.3      0.759      1.552
REMARK  Name = 447731
REMARK  4 active torsions:
REMARK  status: ('A' for Active; 'I' for Inactive)
REMARK    1  A    between atoms: N_2  and  C_13
REMARK    2  A    between atoms: C_3  and  C_19
REMARK    3  A    between atoms: C_6  and  C_17
REMARK    4  A    between atoms: C_27  and  C_31
REMARK                            x       y       z     vdW  Elec       q    Type
REMARK                         _______ _______ _______ _____ _____    ______ ____
ROOT
ATOM      1  O   UNL     1      34.330 -23.351 -18.499  0.00  0.00    -0.270 OA
ATOM      2  N   UNL     1      35.834 -22.191 -17.112  0.00  0.00    -0.280 N 
ATOM      3  C   UNL     1      35.095 -22.418 -18.280  0.00  0.00    +0.249 C 
ATOM      4  H   UNL     1      36.401 -21.386 -17.108  0.00  0.00    +0.155 HD
ENDROOT
BRANCH   2  13
ATOM      5  N   UNL     1      36.773 -26.562 -12.469  0.00  0.00    +0.387 N 
ATOM      6  C   UNL     1      38.078 -25.671 -14.367  0.00  0.00    +0.001 C 
ATOM      7  C   UNL     1      36.965 -24.655 -14.583  0.00  0.00    -0.029 C 
ATOM      8  C   UNL     1      38.113 -26.188 -12.915  0.00  0.00    -0.077 C 
ATOM      9  C   UNL     1      35.921 -24.545 -13.642  0.00  0.00    -0.048 C 
ATOM     10  C   UNL     1      35.926 -25.369 -12.379  0.00  0.00    -0.055 C 
ATOM     11  C   UNL     1      36.907 -23.873 -15.748  0.00  0.00    +0.010 C 
ATOM     12  C   UNL     1      34.886 -23.621 -13.850  0.00  0.00    -0.005 C 
ATOM     13  C   UNL     1      35.864 -22.967 -15.951  0.00  0.00    +0.050 C 
ATOM     14  C   UNL     1      34.858 -22.837 -15.000  0.00  0.00    +0.014 C 
ATOM     15  H   UNL     1      36.833 -27.003 -11.551  0.00  0.00    -0.084 HD
ATOM     16  H   UNL     1      36.365 -27.214 -13.139  0.00  0.00    -0.084 HD
BRANCH   6  17
ATOM     17  C   UNL     1      39.471 -25.143 -14.731  0.00  0.00    +0.002 C 
ATOM     18  C   UNL     1      40.533 -26.194 -14.491  0.00  0.00    +0.000 C 
ENDBRANCH   6  17
ENDBRANCH   2  13
BRANCH   3  19
ATOM     19  C   UNL     1      35.296 -21.421 -19.364  0.00  0.00    +0.054 C 
ATOM     20  C   UNL     1      34.405 -20.159 -21.209  0.00  0.00    +0.000 C 
ATOM     21  C   UNL     1      35.674 -19.559 -21.390  0.00  0.00    +0.000 C 
ATOM     22  C   UNL     1      34.231 -21.100 -20.179  0.00  0.00    +0.005 C 
ATOM     23  C   UNL     1      36.540 -20.852 -19.519  0.00  0.00    +0.005 C 
ATOM     24  C   UNL     1      36.731 -19.917 -20.536  0.00  0.00    +0.000 C 
ATOM     25  C   UNL     1      35.850 -18.619 -22.419  0.00  0.00    +0.003 C 
ATOM     26  C   UNL     1      33.349 -19.802 -22.061  0.00  0.00    +0.000 C 
ATOM     27  C   UNL     1      34.789 -18.276 -23.257  0.00  0.00    +0.031 C 
ATOM     28  C   UNL     1      33.540 -18.867 -23.078  0.00  0.00    +0.003 C 
BRANCH  27  31
ATOM     29  N   UNL     1      35.636 -16.093 -24.079  0.00  0.00    -0.343 N 
ATOM     30  N   UNL     1      34.541 -17.554 -25.535  0.00  0.00    -0.285 NA
ATOM     31  C   UNL     1      34.986 -17.302 -24.318  0.00  0.00    +0.117 C 
ATOM     32  H   UNL     1      35.760 -15.447 -24.812  0.00  0.00    +0.144 HD
ATOM     33  H   UNL     1      35.974 -15.884 -23.178  0.00  0.00    +0.144 HD
ATOM     34  H   UNL     1      34.673 -16.896 -26.255  0.00  0.00    +0.188 HD
ENDBRANCH  27  31
ENDBRANCH   3  19
TORSDOF 4
ENDMDL
MODEL 7
REMARK VINA RESULT:     -10.1      9.373     14.543
REMARK  Name = 447731
REMARK  4 active torsions:
REMARK  status: ('A' for Active; 'I' for Inactive)
REMARK    1  A    between atoms: N_2  and  C_13
REMARK    2  A    between atoms: C_3  and  C_19
REMARK    3  A    between atoms: C_6  and  C_17
REMARK    4  A    between atoms: C_27  and  C_31
REMARK                            x       y       z     vdW  Elec       q    Type
REMARK                         _______ _______ _______ _____ _____    ______ ____
ROOT
ATOM      1  O   UNL     1      35.596 -10.304 -25.843  0.00  0.00    -0.270 OA
ATOM      2  N   UNL     1      33.631 -11.002 -24.756  0.00  0.00    -0.280 N 
ATOM      3  C   UNL     1      34.533 -10.067 -25.278  0.00  0.00    +0.249 C 
ATOM      4  H   UNL     1      32.822 -10.633 -24.333  0.00  0.00    +0.155 HD
ENDROOT
BRANCH   2  13
ATOM      5  N   UNL     1      34.968 -17.230 -23.769  0.00  0.00    +0.387 N 
ATOM      6  C   UNL     1      34.823 -15.196 -22.375  0.00  0.00    +0.001 C 
ATOM      7  C   UNL     1      34.297 -14.461 -23.600  0.00  0.00    -0.029 C 
ATOM      8  C   UNL     1      34.572 -16.714 -22.460  0.00  0.00    -0.077 C 
ATOM      9  C   UNL     1      33.982 -15.181 -24.770  0.00  0.00    -0.048 C 
ATOM     10  C   UNL     1      34.089 -16.685 -24.807  0.00  0.00    -0.055 C 
ATOM     11  C   UNL     1      34.192 -13.061 -23.621  0.00  0.00    +0.010 C 
ATOM     12  C   UNL     1      33.514 -14.502 -25.905  0.00  0.00    -0.005 C 
ATOM     13  C   UNL     1      33.738 -12.395 -24.762  0.00  0.00    +0.050 C 
ATOM     14  C   UNL     1      33.394 -13.115 -25.900  0.00  0.00    +0.014 C 
ATOM     15  H   UNL     1      34.898 -18.248 -23.767  0.00  0.00    -0.084 HD
ATOM     16  H   UNL     1      35.930 -16.950 -23.963  0.00  0.00    -0.084 HD
BRANCH   6  17
ATOM     17  C   UNL     1      34.245 -14.679 -21.052  0.00  0.00    +0.002 C 
ATOM     18  C   UNL     1      32.832 -14.169 -21.236  0.00  0.00    +0.000 C 
ENDBRANCH   6  17
ENDBRANCH   2  13
BRANCH   3  19
ATOM     19  C   UNL     1      34.152  -8.642 -25.093  0.00  0.00    +0.054 C 
ATOM     20  C   UNL     1      32.437  -6.967 -24.893  0.00  0.00    +0.000 C 
ATOM     21  C   UNL     1      33.441  -5.980 -24.747  0.00  0.00    +0.000 C 
ATOM     22  C   UNL     1      32.813  -8.310 -25.067  0.00  0.00    +0.005 C 
ATOM     23  C   UNL     1      35.147  -7.702 -24.953  0.00  0.00    +0.005 C 
ATOM     24  C   UNL     1      34.792  -6.365 -24.780  0.00  0.00    +0.000 C 
ATOM     25  C   UNL     1      33.065  -4.638 -24.574  0.00  0.00    +0.003 C 
ATOM     26  C   UNL     1      31.087  -6.583 -24.861  0.00  0.00    +0.000 C 
ATOM     27  C   UNL     1      31.719  -4.274 -24.544  0.00  0.00    +0.031 C 
ATOM     28  C   UNL     1      30.732  -5.245 -24.688  0.00  0.00    +0.003 C 
BRANCH  27  31
ATOM     29  N   UNL     1      30.082  -2.523 -23.899  0.00  0.00    -0.343 N 
ATOM     30  N   UNL     1      32.213  -1.925 -24.647  0.00  0.00    -0.285 NA
ATOM     31  C   UNL     1      31.346  -2.880 -24.364  0.00  0.00    +0.117 C 
ATOM     32  H   UNL     1      29.850  -1.573 -23.783  0.00  0.00    +0.144 HD
ATOM     33  H   UNL     1      29.420  -3.220 -23.685  0.00  0.00    +0.144 HD
ATOM     34  H   UNL     1      31.962  -0.981 -24.525  0.00  0.00    +0.188 HD
ENDBRANCH  27  31
ENDBRANCH   3  19
TORSDOF 4
ENDMDL
MODEL 8
REMARK VINA RESULT:     -10.0      1.414      3.109
REMARK  Name = 447731
REMARK  4 active torsions:
REMARK  status: ('A' for Active; 'I' for Inactive)
REMARK    1  A    between atoms: N_2  and  C_13
REMARK    2  A    between atoms: C_3  and  C_19
REMARK    3  A    between atoms: C_6  and  C_17
REMARK    4  A    between atoms: C_27  and  C_31
REMARK                            x       y       z     vdW  Elec       q    Type
REMARK                         _______ _______ _______ _____ _____    ______ ____
ROOT
ATOM      1  O   UNL     1      34.954 -22.975 -19.067  0.00  0.00    -0.270 OA
ATOM      2  N   UNL     1      36.383 -21.702 -17.700  0.00  0.00    -0.280 N 
ATOM      3  C   UNL     1      35.619 -21.969 -18.844  0.00  0.00    +0.249 C 
ATOM      4  H   UNL     1      36.856 -20.838 -17.688  0.00  0.00    +0.155 HD
ENDROOT
BRANCH   2  13
ATOM      5  N   UNL     1      36.080 -24.830 -12.073  0.00  0.00    +0.387 N 
ATOM      6  C   UNL     1      34.457 -23.856 -13.660  0.00  0.00    +0.001 C 
ATOM      7  C   UNL     1      35.622 -23.591 -14.603  0.00  0.00    -0.029 C 
ATOM      8  C   UNL     1      34.760 -25.003 -12.675  0.00  0.00    -0.077 C 
ATOM      9  C   UNL     1      36.900 -24.107 -14.304  0.00  0.00    -0.048 C 
ATOM     10  C   UNL     1      37.119 -24.982 -13.096  0.00  0.00    -0.055 C 
ATOM     11  C   UNL     1      35.474 -22.772 -15.733  0.00  0.00    +0.010 C 
ATOM     12  C   UNL     1      37.977 -23.848 -15.164  0.00  0.00    -0.005 C 
ATOM     13  C   UNL     1      36.557 -22.510 -16.575  0.00  0.00    +0.050 C 
ATOM     14  C   UNL     1      37.806 -23.053 -16.294  0.00  0.00    +0.014 C 
ATOM     15  H   UNL     1      36.216 -25.534 -11.347  0.00  0.00    -0.084 HD
ATOM     16  H   UNL     1      36.145 -23.897 -11.666  0.00  0.00    -0.084 HD
BRANCH   6  17
ATOM     17  C   UNL     1      33.140 -24.166 -14.381  0.00  0.00    +0.002 C 
ATOM     18  C   UNL     1      31.969 -23.504 -13.689  0.00  0.00    +0.000 C 
ENDBRANCH   6  17
ENDBRANCH   2  13
BRANCH   3  19
ATOM     19  C   UNL     1      35.655 -20.917 -19.893  0.00  0.00    +0.054 C 
ATOM     20  C   UNL     1      34.598 -19.805 -21.747  0.00  0.00    +0.000 C 
ATOM     21  C   UNL     1      35.722 -18.951 -21.854  0.00  0.00    +0.000 C 
ATOM     22  C   UNL     1      34.580 -20.794 -20.749  0.00  0.00    +0.005 C 
ATOM     23  C   UNL     1      36.759 -20.100 -19.976  0.00  0.00    +0.005 C 
ATOM     24  C   UNL     1      36.795 -19.112 -20.961  0.00  0.00    +0.000 C 
ATOM     25  C   UNL     1      35.742 -17.962 -22.851  0.00  0.00    +0.003 C 
ATOM     26  C   UNL     1      33.527 -19.644 -22.639  0.00  0.00    +0.000 C 
ATOM     27  C   UNL     1      34.668 -17.817 -23.730  0.00  0.00    +0.031 C 
ATOM     28  C   UNL     1      33.562 -18.657 -23.623  0.00  0.00    +0.003 C 
BRANCH  27  31
ATOM     29  N   UNL     1      35.659 -15.775 -24.735  0.00  0.00    -0.343 N 
ATOM     30  N   UNL     1      33.814 -16.802 -25.732  0.00  0.00    -0.285 NA
ATOM     31  C   UNL     1      34.703 -16.788 -24.757  0.00  0.00    +0.117 C 
ATOM     32  H   UNL     1      35.665 -15.088 -25.440  0.00  0.00    +0.144 HD
ATOM     33  H   UNL     1      36.330 -15.746 -24.014  0.00  0.00    +0.144 HD
ATOM     34  H   UNL     1      33.835 -16.106 -26.429  0.00  0.00    +0.188 HD
ENDBRANCH  27  31
ENDBRANCH   3  19
TORSDOF 4
ENDMDL
MODEL 9
REMARK VINA RESULT:      -9.9      2.132     10.154
REMARK  Name = 447731
REMARK  4 active torsions:
REMARK  status: ('A' for Active; 'I' for Inactive)
REMARK    1  A    between atoms: N_2  and  C_13
REMARK    2  A    between atoms: C_3  and  C_19
REMARK    3  A    between atoms: C_6  and  C_17
REMARK    4  A    between atoms: C_27  and  C_31
REMARK                            x       y       z     vdW  Elec       q    Type
REMARK                         _______ _______ _______ _____ _____    ______ ____
ROOT
ATOM      1  O   UNL     1      32.716 -20.999 -20.696  0.00  0.00    -0.270 OA
ATOM      2  N   UNL     1      34.915 -20.173 -20.812  0.00  0.00    -0.280 N 
ATOM      3  C   UNL     1      33.870 -20.942 -20.284  0.00  0.00    +0.249 C 
ATOM      4  H   UNL     1      35.783 -20.250 -20.352  0.00  0.00    +0.155 HD
ENDROOT
BRANCH   2  13
ATOM      5  N   UNL     1      33.923 -15.470 -25.106  0.00  0.00    +0.387 N 
ATOM      6  C   UNL     1      34.012 -15.645 -22.644  0.00  0.00    +0.001 C 
ATOM      7  C   UNL     1      34.460 -17.089 -22.818  0.00  0.00    -0.029 C 
ATOM      8  C   UNL     1      34.336 -14.786 -23.882  0.00  0.00    -0.077 C 
ATOM      9  C   UNL     1      34.773 -17.578 -24.103  0.00  0.00    -0.048 C 
ATOM     10  C   UNL     1      34.740 -16.670 -25.307  0.00  0.00    -0.055 C 
ATOM     11  C   UNL     1      34.495 -17.978 -21.732  0.00  0.00    +0.010 C 
ATOM     12  C   UNL     1      35.168 -18.914 -24.266  0.00  0.00    -0.005 C 
ATOM     13  C   UNL     1      34.878 -19.310 -21.908  0.00  0.00    +0.050 C 
ATOM     14  C   UNL     1      35.220 -19.775 -23.173  0.00  0.00    +0.014 C 
ATOM     15  H   UNL     1      34.044 -14.843 -25.902  0.00  0.00    -0.084 HD
ATOM     16  H   UNL     1      32.943 -15.741 -25.025  0.00  0.00    -0.084 HD
BRANCH   6  17
ATOM     17  C   UNL     1      34.607 -14.961 -21.407  0.00  0.00    +0.002 C 
ATOM     18  C   UNL     1      33.605 -14.028 -20.763  0.00  0.00    +0.000 C 
ENDBRANCH   6  17
ENDBRANCH   2  13
BRANCH   3  19
ATOM     19  C   UNL     1      34.216 -21.748 -19.083  0.00  0.00    +0.054 C 
ATOM     20  C   UNL     1      35.834 -22.418 -17.435  0.00  0.00    +0.000 C 
ATOM     21  C   UNL     1      34.858 -23.253 -16.840  0.00  0.00    +0.000 C 
ATOM     22  C   UNL     1      35.493 -21.662 -18.570  0.00  0.00    +0.005 C 
ATOM     23  C   UNL     1      33.249 -22.552 -18.524  0.00  0.00    +0.005 C 
ATOM     24  C   UNL     1      33.570 -23.309 -17.398  0.00  0.00    +0.000 C 
ATOM     25  C   UNL     1      35.200 -24.009 -15.707  0.00  0.00    +0.003 C 
ATOM     26  C   UNL     1      37.122 -22.362 -16.878  0.00  0.00    +0.000 C 
ATOM     27  C   UNL     1      36.484 -23.942 -15.167  0.00  0.00    +0.031 C 
ATOM     28  C   UNL     1      37.443 -23.119 -15.752  0.00  0.00    +0.003 C 
BRANCH  27  31
ATOM     29  N   UNL     1      36.003 -25.771 -13.559  0.00  0.00    -0.343 N 
ATOM     30  N   UNL     1      37.921 -24.461 -13.313  0.00  0.00    -0.285 NA
ATOM     31  C   UNL     1      36.821 -24.730 -13.993  0.00  0.00    +0.117 C 
ATOM     32  H   UNL     1      36.250 -26.292 -12.762  0.00  0.00    +0.144 HD
ATOM     33  H   UNL     1      35.177 -25.986 -14.051  0.00  0.00    +0.144 HD
ATOM     34  H   UNL     1      38.151 -24.993 -12.517  0.00  0.00    +0.188 HD
ENDBRANCH  27  31
ENDBRANCH   3  19
TORSDOF 4
ENDMDL
