MODEL 1
REMARK VINA RESULT:     -11.6      0.000      0.000
REMARK  Name = 6852141
REMARK  6 active torsions:
REMARK  status: ('A' for Active; 'I' for Inactive)
REMARK    1  A    between atoms: C_3  and  N_18
REMARK    2  A    between atoms: C_7  and  C_31
REMARK    3  A    between atoms: C_9  and  C_13
REMARK    4  A    between atoms: C_19  and  C_21
REMARK    5  A    between atoms: C_24  and  O_28
REMARK    6  A    between atoms: C_31  and  O_32
REMARK                            x       y       z     vdW  Elec       q    Type
REMARK                         _______ _______ _______ _____ _____    ______ ____
ROOT
ATOM      1  C   UNL     1      32.236 -23.685 -15.680  0.00  0.00    +0.014 C 
ATOM      2  C   UNL     1      32.163 -24.537 -14.553  0.00  0.00    +0.001 C 
ATOM      3  C   UNL     1      33.494 -23.342 -16.201  0.00  0.00    +0.051 C 
ATOM      4  C   UNL     1      31.049 -23.201 -16.253  0.00  0.00    +0.004 C 
ATOM      5  C   UNL     1      33.350 -25.022 -13.980  0.00  0.00    +0.007 C 
ATOM      6  C   UNL     1      34.663 -23.833 -15.620  0.00  0.00    +0.021 C 
ATOM      7  C   UNL     1      34.591 -24.671 -14.511  0.00  0.00    +0.077 C 
ATOM      8  C   UNL     1      30.905 -24.880 -14.032  0.00  0.00    +0.000 C 
ATOM      9  C   UNL     1      29.808 -23.552 -15.722  0.00  0.00    +0.031 C 
ATOM     10  C   UNL     1      29.736 -24.390 -14.614  0.00  0.00    +0.003 C 
ENDROOT
BRANCH   9  13
ATOM     11  N   UNL     1      28.166 -23.476 -17.584  0.00  0.00    -0.343 N 
ATOM     12  N   UNL     1      27.858 -22.146 -15.686  0.00  0.00    -0.285 NA
ATOM     13  C   UNL     1      28.588 -23.042 -16.328  0.00  0.00    +0.117 C 
ATOM     14  H   UNL     1      27.337 -23.118 -17.975  0.00  0.00    +0.144 HD
ATOM     15  H   UNL     1      28.698 -24.141 -18.079  0.00  0.00    +0.144 HD
ATOM     16  H   UNL     1      27.032 -21.800 -16.095  0.00  0.00    +0.188 HD
ENDBRANCH   9  13
BRANCH   3  18
ATOM     17  O   UNL     1      33.615 -23.999 -19.123  0.00  0.00    -0.270 OA
ATOM     18  N   UNL     1      33.629 -22.501 -17.314  0.00  0.00    -0.280 N 
ATOM     19  C   UNL     1      33.680 -22.866 -18.662  0.00  0.00    +0.249 C 
ATOM     20  H   UNL     1      33.696 -21.538 -17.122  0.00  0.00    +0.155 HD
BRANCH  19  21
ATOM     21  C   UNL     1      33.858 -21.739 -19.615  0.00  0.00    +0.053 C 
ATOM     22  C   UNL     1      35.115 -21.218 -19.847  0.00  0.00    +0.016 C 
ATOM     23  C   UNL     1      32.733 -21.248 -20.247  0.00  0.00    +0.004 C 
ATOM     24  C   UNL     1      35.253 -20.161 -20.746  0.00  0.00    +0.130 C 
ATOM     25  C   UNL     1      36.324 -21.763 -19.154  0.00  0.00    +0.034 C 
ATOM     26  C   UNL     1      32.871 -20.191 -21.146  0.00  0.00    +0.003 C 
ATOM     27  C   UNL     1      34.131 -19.648 -21.396  0.00  0.00    +0.036 C 
BRANCH  24  28
ATOM     28  O   UNL     1      36.476 -19.618 -21.005  0.00  0.00    -0.506 OA
ATOM     29  H   UNL     1      36.562 -18.692 -21.124  0.00  0.00    +0.292 HD
ENDBRANCH  24  28
ENDBRANCH  19  21
ENDBRANCH   3  18
BRANCH   7  31
ATOM     30  O   UNL     1      36.006 -25.269 -12.686  0.00  0.00    -0.245 OA
ATOM     31  C   UNL     1      35.812 -25.182 -13.906  0.00  0.00    +0.341 C 
BRANCH  31  32
ATOM     32  O   UNL     1      36.725 -25.556 -14.854  0.00  0.00    -0.441 OA
ATOM     33  C   UNL     1      36.819 -26.954 -15.146  0.00  0.00    +0.256 C 
ENDBRANCH  31  32
ENDBRANCH   7  31
TORSDOF 6
ENDMDL
MODEL 2
REMARK VINA RESULT:     -11.4      2.443      5.333
REMARK  Name = 6852141
REMARK  6 active torsions:
REMARK  status: ('A' for Active; 'I' for Inactive)
REMARK    1  A    between atoms: C_3  and  N_18
REMARK    2  A    between atoms: C_7  and  C_31
REMARK    3  A    between atoms: C_9  and  C_13
REMARK    4  A    between atoms: C_19  and  C_21
REMARK    5  A    between atoms: C_24  and  O_28
REMARK    6  A    between atoms: C_31  and  O_32
REMARK                            x       y       z     vdW  Elec       q    Type
REMARK                         _______ _______ _______ _____ _____    ______ ____
ROOT
ATOM      1  C   UNL     1      31.944 -23.551 -15.865  0.00  0.00    +0.014 C 
ATOM      2  C   UNL     1      30.921 -24.168 -15.107  0.00  0.00    +0.001 C 
ATOM      3  C   UNL     1      31.606 -22.862 -17.042  0.00  0.00    +0.051 C 
ATOM      4  C   UNL     1      33.274 -23.640 -15.425  0.00  0.00    +0.004 C 
ATOM      5  C   UNL     1      29.590 -24.078 -15.546  0.00  0.00    +0.007 C 
ATOM      6  C   UNL     1      30.279 -22.783 -17.463  0.00  0.00    +0.021 C 
ATOM      7  C   UNL     1      29.273 -23.390 -16.718  0.00  0.00    +0.077 C 
ATOM      8  C   UNL     1      31.259 -24.857 -13.930  0.00  0.00    +0.000 C 
ATOM      9  C   UNL     1      33.592 -24.328 -14.254  0.00  0.00    +0.031 C 
ATOM     10  C   UNL     1      32.586 -24.935 -13.507  0.00  0.00    +0.003 C 
ENDROOT
BRANCH   9  13
ATOM     11  N   UNL     1      35.667 -25.620 -13.817  0.00  0.00    -0.343 N 
ATOM     12  N   UNL     1      35.598 -23.324 -13.390  0.00  0.00    -0.285 NA
ATOM     13  C   UNL     1      34.975 -24.410 -13.811  0.00  0.00    +0.117 C 
ATOM     14  H   UNL     1      36.602 -25.654 -13.513  0.00  0.00    +0.144 HD
ATOM     15  H   UNL     1      35.219 -26.442 -14.124  0.00  0.00    +0.144 HD
ATOM     16  H   UNL     1      36.533 -23.377 -13.090  0.00  0.00    +0.188 HD
ENDBRANCH   9  13
BRANCH   3  18
ATOM     17  O   UNL     1      33.430 -23.993 -19.135  0.00  0.00    -0.270 OA
ATOM     18  N   UNL     1      32.575 -22.233 -17.834  0.00  0.00    -0.280 N 
ATOM     19  C   UNL     1      33.402 -22.814 -18.800  0.00  0.00    +0.249 C 
ATOM     20  H   UNL     1      32.688 -21.266 -17.692  0.00  0.00    +0.155 HD
BRANCH  19  21
ATOM     21  C   UNL     1      34.357 -21.884 -19.456  0.00  0.00    +0.053 C 
ATOM     22  C   UNL     1      33.898 -20.913 -20.321  0.00  0.00    +0.016 C 
ATOM     23  C   UNL     1      35.699 -22.033 -19.167  0.00  0.00    +0.004 C 
ATOM     24  C   UNL     1      34.818 -20.054 -20.923  0.00  0.00    +0.130 C 
ATOM     25  C   UNL     1      32.440 -20.765 -20.624  0.00  0.00    +0.034 C 
ATOM     26  C   UNL     1      36.619 -21.174 -19.769  0.00  0.00    +0.003 C 
ATOM     27  C   UNL     1      36.177 -20.185 -20.646  0.00  0.00    +0.036 C 
BRANCH  24  28
ATOM     28  O   UNL     1      34.405 -19.079 -21.783  0.00  0.00    -0.506 OA
ATOM     29  H   UNL     1      33.492 -18.888 -21.870  0.00  0.00    +0.292 HD
ENDBRANCH  24  28
ENDBRANCH  19  21
ENDBRANCH   3  18
BRANCH   7  31
ATOM     30  O   UNL     1      27.265 -24.238 -17.686  0.00  0.00    -0.245 OA
ATOM     31  C   UNL     1      27.889 -23.307 -17.160  0.00  0.00    +0.341 C 
BRANCH  31  32
ATOM     32  O   UNL     1      27.359 -22.068 -16.922  0.00  0.00    -0.441 OA
ATOM     33  C   UNL     1      26.152 -21.737 -17.617  0.00  0.00    +0.256 C 
ENDBRANCH  31  32
ENDBRANCH   7  31
TORSDOF 6
ENDMDL
MODEL 3
REMARK VINA RESULT:     -11.3      2.368      4.894
REMARK  Name = 6852141
REMARK  6 active torsions:
REMARK  status: ('A' for Active; 'I' for Inactive)
REMARK    1  A    between atoms: C_3  and  N_18
REMARK    2  A    between atoms: C_7  and  C_31
REMARK    3  A    between atoms: C_9  and  C_13
REMARK    4  A    between atoms: C_19  and  C_21
REMARK    5  A    between atoms: C_24  and  O_28
REMARK    6  A    between atoms: C_31  and  O_32
REMARK                            x       y       z     vdW  Elec       q    Type
REMARK                         _______ _______ _______ _____ _____    ______ ____
ROOT
ATOM      1  C   UNL     1      33.264 -23.607 -15.592  0.00  0.00    +0.014 C 
ATOM      2  C   UNL     1      32.751 -24.427 -14.560  0.00  0.00    +0.001 C 
ATOM      3  C   UNL     1      32.396 -23.140 -16.593  0.00  0.00    +0.051 C 
ATOM      4  C   UNL     1      34.629 -23.277 -15.594  0.00  0.00    +0.004 C 
ATOM      5  C   UNL     1      31.386 -24.757 -14.557  0.00  0.00    +0.007 C 
ATOM      6  C   UNL     1      31.042 -23.477 -16.575  0.00  0.00    +0.021 C 
ATOM      7  C   UNL     1      30.539 -24.285 -15.559  0.00  0.00    +0.077 C 
ATOM      8  C   UNL     1      33.619 -24.895 -13.559  0.00  0.00    +0.000 C 
ATOM      9  C   UNL     1      35.476 -23.750 -14.591  0.00  0.00    +0.031 C 
ATOM     10  C   UNL     1      34.972 -24.556 -13.576  0.00  0.00    +0.003 C 
ENDROOT
BRANCH   9  13
ATOM     11  N   UNL     1      37.630 -23.435 -15.786  0.00  0.00    -0.343 N 
ATOM     12  N   UNL     1      37.490 -23.038 -13.487  0.00  0.00    -0.285 NA
ATOM     13  C   UNL     1      36.887 -23.398 -14.608  0.00  0.00    +0.117 C 
ATOM     14  H   UNL     1      38.584 -23.193 -15.775  0.00  0.00    +0.144 HD
ATOM     15  H   UNL     1      37.200 -23.704 -16.631  0.00  0.00    +0.144 HD
ATOM     16  H   UNL     1      38.444 -22.800 -13.496  0.00  0.00    +0.188 HD
ENDBRANCH   9  13
BRANCH   3  18
ATOM     17  O   UNL     1      33.592 -23.875 -19.241  0.00  0.00    -0.270 OA
ATOM     18  N   UNL     1      32.846 -22.326 -17.640  0.00  0.00    -0.280 N 
ATOM     19  C   UNL     1      33.399 -22.726 -18.860  0.00  0.00    +0.249 C 
ATOM     20  H   UNL     1      32.764 -21.356 -17.499  0.00  0.00    +0.155 HD
BRANCH  19  21
ATOM     21  C   UNL     1      33.811 -21.619 -19.761  0.00  0.00    +0.053 C 
ATOM     22  C   UNL     1      35.129 -21.212 -19.805  0.00  0.00    +0.016 C 
ATOM     23  C   UNL     1      32.835 -21.026 -20.538  0.00  0.00    +0.004 C 
ATOM     24  C   UNL     1      35.487 -20.170 -20.660  0.00  0.00    +0.130 C 
ATOM     25  C   UNL     1      36.174 -21.866 -18.956  0.00  0.00    +0.034 C 
ATOM     26  C   UNL     1      33.193 -19.984 -21.393  0.00  0.00    +0.003 C 
ATOM     27  C   UNL     1      34.519 -19.557 -21.454  0.00  0.00    +0.036 C 
BRANCH  24  28
ATOM     28  O   UNL     1      36.778 -19.739 -20.734  0.00  0.00    -0.506 OA
ATOM     29  H   UNL     1      37.255 -19.552 -19.950  0.00  0.00    +0.292 HD
ENDBRANCH  24  28
ENDBRANCH  19  21
ENDBRANCH   3  18
BRANCH   7  31
ATOM     30  O   UNL     1      28.612 -25.435 -14.749  0.00  0.00    -0.245 OA
ATOM     31  C   UNL     1      29.127 -24.635 -15.543  0.00  0.00    +0.341 C 
BRANCH  31  32
ATOM     32  O   UNL     1      28.432 -23.971 -16.516  0.00  0.00    -0.441 OA
ATOM     33  C   UNL     1      27.541 -22.936 -16.084  0.00  0.00    +0.256 C 
ENDBRANCH  31  32
ENDBRANCH   7  31
TORSDOF 6
ENDMDL
MODEL 4
REMARK VINA RESULT:     -10.4      2.553      6.181
REMARK  Name = 6852141
REMARK  6 active torsions:
REMARK  status: ('A' for Active; 'I' for Inactive)
REMARK    1  A    between atoms: C_3  and  N_18
REMARK    2  A    between atoms: C_7  and  C_31
REMARK    3  A    between atoms: C_9  and  C_13
REMARK    4  A    between atoms: C_19  and  C_21
REMARK    5  A    between atoms: C_24  and  O_28
REMARK    6  A    between atoms: C_31  and  O_32
REMARK                            x       y       z     vdW  Elec       q    Type
REMARK                         _______ _______ _______ _____ _____    ______ ____
ROOT
ATOM      1  C   UNL     1      34.863 -22.411 -17.777  0.00  0.00    +0.014 C 
ATOM      2  C   UNL     1      36.251 -22.141 -17.814  0.00  0.00    +0.001 C 
ATOM      3  C   UNL     1      34.339 -23.174 -16.721  0.00  0.00    +0.051 C 
ATOM      4  C   UNL     1      34.039 -21.910 -18.798  0.00  0.00    +0.004 C 
ATOM      5  C   UNL     1      37.076 -22.641 -16.793  0.00  0.00    +0.007 C 
ATOM      6  C   UNL     1      35.174 -23.663 -15.715  0.00  0.00    +0.021 C 
ATOM      7  C   UNL     1      36.539 -23.398 -15.752  0.00  0.00    +0.077 C 
ATOM      8  C   UNL     1      36.775 -21.377 -18.871  0.00  0.00    +0.000 C 
ATOM      9  C   UNL     1      34.576 -21.153 -19.840  0.00  0.00    +0.031 C 
ATOM     10  C   UNL     1      35.941 -20.887 -19.875  0.00  0.00    +0.003 C 
ENDROOT
BRANCH   9  13
ATOM     11  N   UNL     1      34.222 -19.938 -21.976  0.00  0.00    -0.343 N 
ATOM     12  N   UNL     1      32.402 -20.837 -20.817  0.00  0.00    -0.285 NA
ATOM     13  C   UNL     1      33.708 -20.641 -20.888  0.00  0.00    +0.117 C 
ATOM     14  H   UNL     1      33.617 -19.600 -22.674  0.00  0.00    +0.144 HD
ATOM     15  H   UNL     1      35.192 -19.779 -22.045  0.00  0.00    +0.144 HD
ATOM     16  H   UNL     1      31.814 -20.491 -21.526  0.00  0.00    +0.188 HD
ENDBRANCH   9  13
BRANCH   3  18
ATOM     17  O   UNL     1      32.325 -22.440 -14.626  0.00  0.00    -0.270 OA
ATOM     18  N   UNL     1      32.974 -23.475 -16.633  0.00  0.00    -0.280 N 
ATOM     19  C   UNL     1      32.079 -23.104 -15.626  0.00  0.00    +0.249 C 
ATOM     20  H   UNL     1      32.602 -24.013 -17.368  0.00  0.00    +0.155 HD
BRANCH  19  21
ATOM     21  C   UNL     1      30.690 -23.604 -15.800  0.00  0.00    +0.053 C 
ATOM     22  C   UNL     1      30.251 -24.699 -15.084  0.00  0.00    +0.016 C 
ATOM     23  C   UNL     1      29.874 -22.937 -16.692  0.00  0.00    +0.004 C 
ATOM     24  C   UNL     1      28.943 -25.146 -15.267  0.00  0.00    +0.130 C 
ATOM     25  C   UNL     1      31.148 -25.410 -14.120  0.00  0.00    +0.034 C 
ATOM     26  C   UNL     1      28.565 -23.384 -16.875  0.00  0.00    +0.003 C 
ATOM     27  C   UNL     1      28.101 -24.488 -16.163  0.00  0.00    +0.036 C 
BRANCH  24  28
ATOM     28  O   UNL     1      28.469 -26.223 -14.579  0.00  0.00    -0.506 OA
ATOM     29  H   UNL     1      27.669 -26.155 -14.095  0.00  0.00    +0.292 HD
ENDBRANCH  24  28
ENDBRANCH  19  21
ENDBRANCH   3  18
BRANCH   7  31
ATOM     30  O   UNL     1      37.587 -23.355 -13.609  0.00  0.00    -0.245 OA
ATOM     31  C   UNL     1      37.407 -23.909 -14.702  0.00  0.00    +0.341 C 
BRANCH  31  32
ATOM     32  O   UNL     1      38.003 -25.084 -15.070  0.00  0.00    -0.441 OA
ATOM     33  C   UNL     1      37.592 -26.265 -14.373  0.00  0.00    +0.256 C 
ENDBRANCH  31  32
ENDBRANCH   7  31
TORSDOF 6
ENDMDL
MODEL 5
REMARK VINA RESULT:     -10.1      3.001      6.073
REMARK  Name = 6852141
REMARK  6 active torsions:
REMARK  status: ('A' for Active; 'I' for Inactive)
REMARK    1  A    between atoms: C_3  and  N_18
REMARK    2  A    between atoms: C_7  and  C_31
REMARK    3  A    between atoms: C_9  and  C_13
REMARK    4  A    between atoms: C_19  and  C_21
REMARK    5  A    between atoms: C_24  and  O_28
REMARK    6  A    between atoms: C_31  and  O_32
REMARK                            x       y       z     vdW  Elec       q    Type
REMARK                         _______ _______ _______ _____ _____    ______ ____
ROOT
ATOM      1  C   UNL     1      35.170 -23.119 -15.792  0.00  0.00    +0.014 C 
ATOM      2  C   UNL     1      36.512 -22.809 -15.470  0.00  0.00    +0.001 C 
ATOM      3  C   UNL     1      34.354 -23.724 -14.822  0.00  0.00    +0.051 C 
ATOM      4  C   UNL     1      34.683 -22.815 -17.073  0.00  0.00    +0.004 C 
ATOM      5  C   UNL     1      37.000 -23.113 -14.189  0.00  0.00    +0.007 C 
ATOM      6  C   UNL     1      34.855 -24.018 -13.553  0.00  0.00    +0.021 C 
ATOM      7  C   UNL     1      36.176 -23.714 -13.238  0.00  0.00    +0.077 C 
ATOM      8  C   UNL     1      37.329 -22.205 -16.440  0.00  0.00    +0.000 C 
ATOM      9  C   UNL     1      35.508 -22.214 -18.024  0.00  0.00    +0.031 C 
ATOM     10  C   UNL     1      36.828 -21.909 -17.708  0.00  0.00    +0.003 C 
ENDROOT
BRANCH   9  13
ATOM     11  N   UNL     1      33.679 -22.227 -19.704  0.00  0.00    -0.343 N 
ATOM     12  N   UNL     1      35.761 -21.309 -20.236  0.00  0.00    -0.285 NA
ATOM     13  C   UNL     1      34.987 -21.904 -19.346  0.00  0.00    +0.117 C 
ATOM     14  H   UNL     1      33.347 -22.009 -20.604  0.00  0.00    +0.144 HD
ATOM     15  H   UNL     1      33.087 -22.674 -19.055  0.00  0.00    +0.144 HD
ATOM     16  H   UNL     1      35.410 -21.099 -21.132  0.00  0.00    +0.188 HD
ENDBRANCH   9  13
BRANCH   3  18
ATOM     17  O   UNL     1      31.822 -22.334 -14.020  0.00  0.00    -0.270 OA
ATOM     18  N   UNL     1      33.018 -24.055 -15.083  0.00  0.00    -0.280 N 
ATOM     19  C   UNL     1      31.870 -23.365 -14.681  0.00  0.00    +0.249 C 
ATOM     20  H   UNL     1      32.870 -24.871 -15.612  0.00  0.00    +0.155 HD
BRANCH  19  21
ATOM     21  C   UNL     1      30.584 -23.987 -15.091  0.00  0.00    +0.053 C 
ATOM     22  C   UNL     1      29.953 -23.580 -16.249  0.00  0.00    +0.016 C 
ATOM     23  C   UNL     1      30.058 -24.971 -14.277  0.00  0.00    +0.004 C 
ATOM     24  C   UNL     1      28.747 -24.181 -16.608  0.00  0.00    +0.130 C 
ATOM     25  C   UNL     1      30.537 -22.512 -17.120  0.00  0.00    +0.034 C 
ATOM     26  C   UNL     1      28.852 -25.572 -14.636  0.00  0.00    +0.003 C 
ATOM     27  C   UNL     1      28.197 -25.176 -15.802  0.00  0.00    +0.036 C 
BRANCH  24  28
ATOM     28  O   UNL     1      28.092 -23.809 -17.745  0.00  0.00    -0.506 OA
ATOM     29  H   UNL     1      27.184 -23.582 -17.709  0.00  0.00    +0.292 HD
ENDBRANCH  24  28
ENDBRANCH  19  21
ENDBRANCH   3  18
BRANCH   7  31
ATOM     30  O   UNL     1      37.078 -23.175 -11.096  0.00  0.00    -0.245 OA
ATOM     31  C   UNL     1      36.696 -24.023 -11.914  0.00  0.00    +0.341 C 
BRANCH  31  32
ATOM     32  O   UNL     1      36.712 -25.372 -11.682  0.00  0.00    -0.441 OA
ATOM     33  C   UNL     1      37.522 -26.168 -12.553  0.00  0.00    +0.256 C 
ENDBRANCH  31  32
ENDBRANCH   7  31
TORSDOF 6
ENDMDL
MODEL 6
REMARK VINA RESULT:     -10.0      2.059      6.583
REMARK  Name = 6852141
REMARK  6 active torsions:
REMARK  status: ('A' for Active; 'I' for Inactive)
REMARK    1  A    between atoms: C_3  and  N_18
REMARK    2  A    between atoms: C_7  and  C_31
REMARK    3  A    between atoms: C_9  and  C_13
REMARK    4  A    between atoms: C_19  and  C_21
REMARK    5  A    between atoms: C_24  and  O_28
REMARK    6  A    between atoms: C_31  and  O_32
REMARK                            x       y       z     vdW  Elec       q    Type
REMARK                         _______ _______ _______ _____ _____    ______ ____
ROOT
ATOM      1  C   UNL     1      33.064 -23.158 -16.541  0.00  0.00    +0.014 C 
ATOM      2  C   UNL     1      32.221 -22.752 -17.603  0.00  0.00    +0.001 C 
ATOM      3  C   UNL     1      34.454 -23.013 -16.675  0.00  0.00    +0.051 C 
ATOM      4  C   UNL     1      32.492 -23.698 -15.378  0.00  0.00    +0.004 C 
ATOM      5  C   UNL     1      32.792 -22.212 -18.767  0.00  0.00    +0.007 C 
ATOM      6  C   UNL     1      35.005 -22.474 -17.838  0.00  0.00    +0.021 C 
ATOM      7  C   UNL     1      34.176 -22.075 -18.882  0.00  0.00    +0.077 C 
ATOM      8  C   UNL     1      30.830 -22.897 -17.470  0.00  0.00    +0.000 C 
ATOM      9  C   UNL     1      31.108 -23.834 -15.263  0.00  0.00    +0.031 C 
ATOM     10  C   UNL     1      30.279 -23.434 -16.306  0.00  0.00    +0.003 C 
ENDROOT
BRANCH   9  13
ATOM     11  N   UNL     1      29.648 -25.471 -14.098  0.00  0.00    -0.343 N 
ATOM     12  N   UNL     1      30.842 -23.878 -12.874  0.00  0.00    -0.285 NA
ATOM     13  C   UNL     1      30.532 -24.394 -14.051  0.00  0.00    +0.117 C 
ATOM     14  H   UNL     1      29.270 -25.834 -13.266  0.00  0.00    +0.144 HD
ATOM     15  H   UNL     1      29.402 -25.868 -14.966  0.00  0.00    +0.144 HD
ATOM     16  H   UNL     1      30.453 -24.255 -12.053  0.00  0.00    +0.188 HD
ENDBRANCH   9  13
BRANCH   3  18
ATOM     17  O   UNL     1      35.423 -25.736 -15.880  0.00  0.00    -0.270 OA
ATOM     18  N   UNL     1      35.338 -23.399 -15.659  0.00  0.00    -0.280 N 
ATOM     19  C   UNL     1      35.756 -24.692 -15.332  0.00  0.00    +0.249 C 
ATOM     20  H   UNL     1      35.708 -22.672 -15.109  0.00  0.00    +0.155 HD
BRANCH  19  21
ATOM     21  C   UNL     1      36.684 -24.783 -14.174  0.00  0.00    +0.053 C 
ATOM     22  C   UNL     1      36.229 -24.523 -12.898  0.00  0.00    +0.016 C 
ATOM     23  C   UNL     1      37.995 -25.132 -14.428  0.00  0.00    +0.004 C 
ATOM     24  C   UNL     1      37.122 -24.616 -11.830  0.00  0.00    +0.130 C 
ATOM     25  C   UNL     1      34.804 -24.146 -12.640  0.00  0.00    +0.034 C 
ATOM     26  C   UNL     1      38.888 -25.225 -13.360  0.00  0.00    +0.003 C 
ATOM     27  C   UNL     1      38.451 -24.967 -12.062  0.00  0.00    +0.036 C 
BRANCH  24  28
ATOM     28  O   UNL     1      36.713 -24.368 -10.553  0.00  0.00    -0.506 OA
ATOM     29  H   UNL     1      36.080 -24.928 -10.148  0.00  0.00    +0.292 HD
ENDBRANCH  24  28
ENDBRANCH  19  21
ENDBRANCH   3  18
BRANCH   7  31
ATOM     30  O   UNL     1      35.899 -21.750 -20.499  0.00  0.00    -0.245 OA
ATOM     31  C   UNL     1      34.753 -21.514 -20.094  0.00  0.00    +0.341 C 
BRANCH  31  32
ATOM     32  O   UNL     1      33.870 -20.689 -20.737  0.00  0.00    -0.441 OA
ATOM     33  C   UNL     1      34.428 -19.677 -21.581  0.00  0.00    +0.256 C 
ENDBRANCH  31  32
ENDBRANCH   7  31
TORSDOF 6
ENDMDL
MODEL 7
REMARK VINA RESULT:      -9.8      2.607      7.027
REMARK  Name = 6852141
REMARK  6 active torsions:
REMARK  status: ('A' for Active; 'I' for Inactive)
REMARK    1  A    between atoms: C_3  and  N_18
REMARK    2  A    between atoms: C_7  and  C_31
REMARK    3  A    between atoms: C_9  and  C_13
REMARK    4  A    between atoms: C_19  and  C_21
REMARK    5  A    between atoms: C_24  and  O_28
REMARK    6  A    between atoms: C_31  and  O_32
REMARK                            x       y       z     vdW  Elec       q    Type
REMARK                         _______ _______ _______ _____ _____    ______ ____
ROOT
ATOM      1  C   UNL     1      35.061 -23.281 -16.374  0.00  0.00    +0.014 C 
ATOM      2  C   UNL     1      36.371 -22.835 -16.668  0.00  0.00    +0.001 C 
ATOM      3  C   UNL     1      34.013 -22.963 -17.253  0.00  0.00    +0.051 C 
ATOM      4  C   UNL     1      34.837 -24.031 -15.208  0.00  0.00    +0.004 C 
ATOM      5  C   UNL     1      36.595 -22.084 -17.834  0.00  0.00    +0.007 C 
ATOM      6  C   UNL     1      34.254 -22.217 -18.407  0.00  0.00    +0.021 C 
ATOM      7  C   UNL     1      35.543 -21.778 -18.697  0.00  0.00    +0.077 C 
ATOM      8  C   UNL     1      37.419 -23.152 -15.788  0.00  0.00    +0.000 C 
ATOM      9  C   UNL     1      35.890 -24.338 -14.346  0.00  0.00    +0.031 C 
ATOM     10  C   UNL     1      37.178 -23.899 -14.635  0.00  0.00    +0.003 C 
ENDROOT
BRANCH   9  13
ATOM     11  N   UNL     1      36.519 -26.118 -12.733  0.00  0.00    -0.343 N 
ATOM     12  N   UNL     1      34.561 -24.882 -12.418  0.00  0.00    -0.285 NA
ATOM     13  C   UNL     1      35.641 -25.117 -13.143  0.00  0.00    +0.117 C 
ATOM     14  H   UNL     1      36.331 -26.634 -11.916  0.00  0.00    +0.144 HD
ATOM     15  H   UNL     1      37.327 -26.310 -13.263  0.00  0.00    +0.144 HD
ATOM     16  H   UNL     1      34.390 -25.408 -11.604  0.00  0.00    +0.188 HD
ENDBRANCH   9  13
BRANCH   3  18
ATOM     17  O   UNL     1      32.127 -22.237 -15.040  0.00  0.00    -0.270 OA
ATOM     18  N   UNL     1      32.696 -23.376 -17.013  0.00  0.00    -0.280 N 
ATOM     19  C   UNL     1      31.860 -23.003 -15.958  0.00  0.00    +0.249 C 
ATOM     20  H   UNL     1      32.315 -24.006 -17.667  0.00  0.00    +0.155 HD
BRANCH  19  21
ATOM     21  C   UNL     1      30.516 -23.638 -15.961  0.00  0.00    +0.053 C 
ATOM     22  C   UNL     1      30.265 -24.736 -15.163  0.00  0.00    +0.016 C 
ATOM     23  C   UNL     1      29.549 -23.091 -16.781  0.00  0.00    +0.004 C 
ATOM     24  C   UNL     1      28.995 -25.312 -15.186  0.00  0.00    +0.130 C 
ATOM     25  C   UNL     1      31.325 -25.316 -14.280  0.00  0.00    +0.034 C 
ATOM     26  C   UNL     1      28.278 -23.667 -16.804  0.00  0.00    +0.003 C 
ATOM     27  C   UNL     1      28.002 -24.777 -16.006  0.00  0.00    +0.036 C 
BRANCH  24  28
ATOM     28  O   UNL     1      28.705 -26.396 -14.413  0.00  0.00    -0.506 OA
ATOM     29  H   UNL     1      27.815 -26.585 -14.186  0.00  0.00    +0.292 HD
ENDBRANCH  24  28
ENDBRANCH  19  21
ENDBRANCH   3  18
BRANCH   7  31
ATOM     30  O   UNL     1      36.865 -20.442 -20.165  0.00  0.00    -0.245 OA
ATOM     31  C   UNL     1      35.792 -20.999 -19.901  0.00  0.00    +0.341 C 
BRANCH  31  32
ATOM     32  O   UNL     1      34.689 -20.958 -20.710  0.00  0.00    -0.441 OA
ATOM     33  C   UNL     1      34.498 -19.768 -21.483  0.00  0.00    +0.256 C 
ENDBRANCH  31  32
ENDBRANCH   7  31
TORSDOF 6
ENDMDL
MODEL 8
REMARK VINA RESULT:      -9.5      2.181      6.379
REMARK  Name = 6852141
REMARK  6 active torsions:
REMARK  status: ('A' for Active; 'I' for Inactive)
REMARK    1  A    between atoms: C_3  and  N_18
REMARK    2  A    between atoms: C_7  and  C_31
REMARK    3  A    between atoms: C_9  and  C_13
REMARK    4  A    between atoms: C_19  and  C_21
REMARK    5  A    between atoms: C_24  and  O_28
REMARK    6  A    between atoms: C_31  and  O_32
REMARK                            x       y       z     vdW  Elec       q    Type
REMARK                         _______ _______ _______ _____ _____    ______ ____
ROOT
ATOM      1  C   UNL     1      32.686 -23.505 -16.519  0.00  0.00    +0.014 C 
ATOM      2  C   UNL     1      31.876 -22.860 -17.484  0.00  0.00    +0.001 C 
ATOM      3  C   UNL     1      34.082 -23.488 -16.673  0.00  0.00    +0.051 C 
ATOM      4  C   UNL     1      32.077 -24.148 -15.430  0.00  0.00    +0.004 C 
ATOM      5  C   UNL     1      32.485 -22.217 -18.574  0.00  0.00    +0.007 C 
ATOM      6  C   UNL     1      34.670 -22.843 -17.762  0.00  0.00    +0.021 C 
ATOM      7  C   UNL     1      33.873 -22.210 -18.710  0.00  0.00    +0.077 C 
ATOM      8  C   UNL     1      30.480 -22.878 -17.330  0.00  0.00    +0.000 C 
ATOM      9  C   UNL     1      30.689 -24.155 -15.293  0.00  0.00    +0.031 C 
ATOM     10  C   UNL     1      29.892 -23.520 -16.241  0.00  0.00    +0.003 C 
ENDROOT
BRANCH   9  13
ATOM     11  N   UNL     1      28.977 -25.669 -14.321  0.00  0.00    -0.343 N 
ATOM     12  N   UNL     1      30.553 -24.633 -12.941  0.00  0.00    -0.285 NA
ATOM     13  C   UNL     1      30.074 -24.824 -14.158  0.00  0.00    +0.117 C 
ATOM     14  H   UNL     1      28.576 -26.112 -13.540  0.00  0.00    +0.144 HD
ATOM     15  H   UNL     1      28.604 -25.822 -15.220  0.00  0.00    +0.144 HD
ATOM     16  H   UNL     1      30.138 -25.085 -12.172  0.00  0.00    +0.188 HD
ENDBRANCH   9  13
BRANCH   3  18
ATOM     17  O   UNL     1      36.203 -22.325 -14.903  0.00  0.00    -0.270 OA
ATOM     18  N   UNL     1      34.934 -24.110 -15.752  0.00  0.00    -0.280 N 
ATOM     19  C   UNL     1      35.911 -23.514 -14.949  0.00  0.00    +0.249 C 
ATOM     20  H   UNL     1      34.833 -25.085 -15.660  0.00  0.00    +0.155 HD
BRANCH  19  21
ATOM     21  C   UNL     1      36.680 -24.450 -14.088  0.00  0.00    +0.053 C 
ATOM     22  C   UNL     1      37.963 -24.818 -14.435  0.00  0.00    +0.016 C 
ATOM     23  C   UNL     1      36.064 -24.925 -12.947  0.00  0.00    +0.004 C 
ATOM     24  C   UNL     1      38.661 -25.698 -13.607  0.00  0.00    +0.130 C 
ATOM     25  C   UNL     1      38.616 -24.294 -15.675  0.00  0.00    +0.034 C 
ATOM     26  C   UNL     1      36.761 -25.805 -12.119  0.00  0.00    +0.003 C 
ATOM     27  C   UNL     1      38.060 -26.190 -12.450  0.00  0.00    +0.036 C 
BRANCH  24  28
ATOM     28  O   UNL     1      39.931 -26.086 -13.913  0.00  0.00    -0.506 OA
ATOM     29  H   UNL     1      40.361 -26.734 -13.390  0.00  0.00    +0.292 HD
ENDBRANCH  24  28
ENDBRANCH  19  21
ENDBRANCH   3  18
BRANCH   7  31
ATOM     30  O   UNL     1      35.656 -21.722 -20.219  0.00  0.00    -0.245 OA
ATOM     31  C   UNL     1      34.489 -21.539 -19.845  0.00  0.00    +0.341 C 
BRANCH  31  32
ATOM     32  O   UNL     1      33.618 -20.677 -20.454  0.00  0.00    -0.441 OA
ATOM     33  C   UNL     1      34.170 -19.769 -21.413  0.00  0.00    +0.256 C 
ENDBRANCH  31  32
ENDBRANCH   7  31
TORSDOF 6
ENDMDL
MODEL 9
REMARK VINA RESULT:      -9.1      2.603      7.541
REMARK  Name = 6852141
REMARK  6 active torsions:
REMARK  status: ('A' for Active; 'I' for Inactive)
REMARK    1  A    between atoms: C_3  and  N_18
REMARK    2  A    between atoms: C_7  and  C_31
REMARK    3  A    between atoms: C_9  and  C_13
REMARK    4  A    between atoms: C_19  and  C_21
REMARK    5  A    between atoms: C_24  and  O_28
REMARK    6  A    between atoms: C_31  and  O_32
REMARK                            x       y       z     vdW  Elec       q    Type
REMARK                         _______ _______ _______ _____ _____    ______ ____
ROOT
ATOM      1  C   UNL     1      34.858 -22.704 -17.358  0.00  0.00    +0.014 C 
ATOM      2  C   UNL     1      35.817 -22.011 -18.135  0.00  0.00    +0.001 C 
ATOM      3  C   UNL     1      33.517 -22.722 -17.779  0.00  0.00    +0.051 C 
ATOM      4  C   UNL     1      35.266 -23.356 -16.185  0.00  0.00    +0.004 C 
ATOM      5  C   UNL     1      35.409 -21.358 -19.309  0.00  0.00    +0.007 C 
ATOM      6  C   UNL     1      33.130 -22.068 -18.949  0.00  0.00    +0.021 C 
ATOM      7  C   UNL     1      34.074 -21.387 -19.712  0.00  0.00    +0.077 C 
ATOM      8  C   UNL     1      37.157 -21.992 -17.714  0.00  0.00    +0.000 C 
ATOM      9  C   UNL     1      36.601 -23.328 -15.782  0.00  0.00    +0.031 C 
ATOM     10  C   UNL     1      37.545 -22.647 -16.545  0.00  0.00    +0.003 C 
ENDROOT
BRANCH   9  13
ATOM     11  N   UNL     1      37.636 -25.254 -14.604  0.00  0.00    -0.343 N 
ATOM     12  N   UNL     1      36.779 -23.452 -13.388  0.00  0.00    -0.285 NA
ATOM     13  C   UNL     1      37.008 -24.010 -14.564  0.00  0.00    +0.117 C 
ATOM     14  H   UNL     1      37.903 -25.698 -13.768  0.00  0.00    +0.144 HD
ATOM     15  H   UNL     1      37.813 -25.687 -15.471  0.00  0.00    +0.144 HD
ATOM     16  H   UNL     1      37.053 -23.912 -12.562  0.00  0.00    +0.188 HD
ENDBRANCH   9  13
BRANCH   3  18
ATOM     17  O   UNL     1      30.596 -22.118 -17.484  0.00  0.00    -0.270 OA
ATOM     18  N   UNL     1      32.524 -23.389 -17.051  0.00  0.00    -0.280 N 
ATOM     19  C   UNL     1      31.170 -23.060 -16.949  0.00  0.00    +0.249 C 
ATOM     20  H   UNL     1      32.816 -24.185 -16.551  0.00  0.00    +0.155 HD
BRANCH  19  21
ATOM     21  C   UNL     1      30.367 -23.950 -16.070  0.00  0.00    +0.053 C 
ATOM     22  C   UNL     1      30.727 -24.131 -14.750  0.00  0.00    +0.016 C 
ATOM     23  C   UNL     1      29.267 -24.576 -16.623  0.00  0.00    +0.004 C 
ATOM     24  C   UNL     1      29.955 -24.973 -13.949  0.00  0.00    +0.130 C 
ATOM     25  C   UNL     1      31.922 -23.445 -14.167  0.00  0.00    +0.034 C 
ATOM     26  C   UNL     1      28.495 -25.417 -15.821  0.00  0.00    +0.003 C 
ATOM     27  C   UNL     1      28.840 -25.615 -14.485  0.00  0.00    +0.036 C 
BRANCH  24  28
ATOM     28  O   UNL     1      30.275 -25.178 -12.640  0.00  0.00    -0.506 OA
ATOM     29  H   UNL     1      29.596 -25.318 -12.009  0.00  0.00    +0.292 HD
ENDBRANCH  24  28
ENDBRANCH  19  21
ENDBRANCH   3  18
BRANCH   7  31
ATOM     30  O   UNL     1      32.490 -20.505 -21.263  0.00  0.00    -0.245 OA
ATOM     31  C   UNL     1      33.667 -20.705 -20.931  0.00  0.00    +0.341 C 
BRANCH  31  32
ATOM     32  O   UNL     1      34.748 -20.308 -21.671  0.00  0.00    -0.441 OA
ATOM     33  C   UNL     1      34.961 -18.898 -21.799  0.00  0.00    +0.256 C 
ENDBRANCH  31  32
ENDBRANCH   7  31
TORSDOF 6
ENDMDL
