MODEL 1
REMARK VINA RESULT:     -12.4      0.000      0.000
REMARK  Name = 11987860
REMARK  5 active torsions:
REMARK  status: ('A' for Active; 'I' for Inactive)
REMARK    1  A    between atoms: N_2  and  C_19
REMARK    2  A    between atoms: C_3  and  C_11
REMARK    3  A    between atoms: N_9  and  O_17
REMARK    4  A    between atoms: C_19  and  C_20
REMARK    5  A    between atoms: C_23  and  C_26
REMARK                            x       y       z     vdW  Elec       q    Type
REMARK                         _______ _______ _______ _____ _____    ______ ____
ROOT
ATOM      1  O   UNL     1      33.701 -22.781 -15.297  0.00  0.00    -0.272 OA
ATOM      2  N   UNL     1      34.289 -23.550 -17.414  0.00  0.00    -0.298 N 
ATOM      3  C   UNL     1      34.480 -23.349 -16.058  0.00  0.00    +0.253 C 
ATOM      4  H   UNL     1      34.990 -24.022 -17.920  0.00  0.00    +0.150 HD
ENDROOT
BRANCH   3  11
ATOM      5  O   UNL     1      35.192 -24.900 -13.571  0.00  0.00    -0.327 OA
ATOM      6  O   UNL     1      35.669 -25.343 -15.801  0.00  0.00    -0.320 OA
ATOM      7  O   UNL     1      40.122 -24.517 -13.832  0.00  0.00    -0.250 OA
ATOM      8  N   UNL     1      37.938 -25.287 -14.008  0.00  0.00    -0.255 N 
ATOM      9  N   UNL     1      39.767 -26.690 -14.465  0.00  0.00    -0.181 N 
ATOM     10  C   UNL     1      35.941 -23.784 -14.071  0.00  0.00    +0.174 C 
ATOM     11  C   UNL     1      35.768 -23.934 -15.573  0.00  0.00    +0.222 C 
ATOM     12  C   UNL     1      35.588 -25.923 -14.490  0.00  0.00    +0.256 C 
ATOM     13  C   UNL     1      37.389 -23.981 -13.613  0.00  0.00    +0.128 C 
ATOM     14  C   UNL     1      36.981 -26.409 -14.089  0.00  0.00    +0.156 C 
ATOM     15  C   UNL     1      39.336 -25.437 -14.083  0.00  0.00    +0.326 C 
ATOM     16  H   UNL     1      39.142 -27.423 -14.665  0.00  0.00    +0.184 HD
BRANCH   9  17
ATOM     17  O   UNL     1      41.159 -26.845 -14.548  0.00  0.00    -0.294 OA
ATOM     18  H   UNL     1      41.475 -26.489 -15.394  0.00  0.00    +0.241 HD
ENDBRANCH   9  17
ENDBRANCH   3  11
BRANCH   2  19
ATOM     19  C   UNL     1      33.113 -23.100 -18.122  0.00  0.00    +0.116 C 
BRANCH  19  20
ATOM     20  C   UNL     1      33.479 -22.063 -19.147  0.00  0.00    -0.003 C 
ATOM     21  C   UNL     1      34.811 -21.893 -19.505  0.00  0.00    -0.003 C 
ATOM     22  C   UNL     1      32.482 -21.286 -19.723  0.00  0.00    -0.003 C 
ATOM     23  C   UNL     1      34.157 -20.147 -21.040  0.00  0.00    -0.000 C 
ATOM     24  C   UNL     1      35.150 -20.931 -20.456  0.00  0.00    -0.000 C 
ATOM     25  C   UNL     1      32.822 -20.324 -20.674  0.00  0.00    -0.000 C 
BRANCH  23  26
ATOM     26  C   UNL     1      34.509 -19.149 -22.028  0.00  0.00    -0.000 C 
ATOM     27  C   UNL     1      34.287 -19.399 -23.381  0.00  0.00    -0.000 C 
ATOM     28  C   UNL     1      35.068 -17.937 -21.624  0.00  0.00    -0.000 C 
ATOM     29  C   UNL     1      34.625 -18.437 -24.333  0.00  0.00    +0.000 C 
ATOM     30  C   UNL     1      35.406 -16.974 -22.575  0.00  0.00    +0.000 C 
ATOM     31  C   UNL     1      35.185 -17.224 -23.930  0.00  0.00    +0.000 C 
ENDBRANCH  23  26
ENDBRANCH  19  20
ENDBRANCH   2  19
TORSDOF 5
ENDMDL
MODEL 2
REMARK VINA RESULT:     -11.6      1.666      2.106
REMARK  Name = 11987860
REMARK  5 active torsions:
REMARK  status: ('A' for Active; 'I' for Inactive)
REMARK    1  A    between atoms: N_2  and  C_19
REMARK    2  A    between atoms: C_3  and  C_11
REMARK    3  A    between atoms: N_9  and  O_17
REMARK    4  A    between atoms: C_19  and  C_20
REMARK    5  A    between atoms: C_23  and  C_26
REMARK                            x       y       z     vdW  Elec       q    Type
REMARK                         _______ _______ _______ _____ _____    ______ ____
ROOT
ATOM      1  O   UNL     1      32.293 -23.578 -15.848  0.00  0.00    -0.272 OA
ATOM      2  N   UNL     1      33.995 -23.284 -17.409  0.00  0.00    -0.298 N 
ATOM      3  C   UNL     1      33.479 -23.437 -16.133  0.00  0.00    +0.253 C 
ATOM      4  H   UNL     1      34.969 -23.180 -17.511  0.00  0.00    +0.150 HD
ENDROOT
BRANCH   3  11
ATOM      5  O   UNL     1      34.561 -25.616 -14.349  0.00  0.00    -0.327 OA
ATOM      6  O   UNL     1      35.680 -24.079 -15.684  0.00  0.00    -0.320 OA
ATOM      7  O   UNL     1      37.011 -22.786 -11.108  0.00  0.00    -0.250 OA
ATOM      8  N   UNL     1      36.475 -24.157 -12.904  0.00  0.00    -0.255 N 
ATOM      9  N   UNL     1      38.710 -23.677 -12.360  0.00  0.00    -0.181 N 
ATOM     10  C   UNL     1      34.184 -24.309 -13.894  0.00  0.00    +0.174 C 
ATOM     11  C   UNL     1      34.548 -23.441 -15.087  0.00  0.00    +0.222 C 
ATOM     12  C   UNL     1      35.808 -25.328 -14.988  0.00  0.00    +0.256 C 
ATOM     13  C   UNL     1      35.033 -24.010 -12.655  0.00  0.00    +0.128 C 
ATOM     14  C   UNL     1      36.873 -25.170 -13.903  0.00  0.00    +0.156 C 
ATOM     15  C   UNL     1      37.378 -23.491 -12.054  0.00  0.00    +0.326 C 
ATOM     16  H   UNL     1      39.004 -24.238 -13.113  0.00  0.00    +0.184 HD
BRANCH   9  17
ATOM     17  O   UNL     1      39.617 -23.012 -11.521  0.00  0.00    -0.294 OA
ATOM     18  H   UNL     1      39.797 -22.126 -11.876  0.00  0.00    +0.241 HD
ENDBRANCH   9  17
ENDBRANCH   3  11
BRANCH   2  19
ATOM     19  C   UNL     1      33.172 -23.270 -18.597  0.00  0.00    +0.116 C 
BRANCH  19  20
ATOM     20  C   UNL     1      33.542 -22.111 -19.480  0.00  0.00    -0.003 C 
ATOM     21  C   UNL     1      32.538 -21.331 -20.043  0.00  0.00    -0.003 C 
ATOM     22  C   UNL     1      34.880 -21.832 -19.723  0.00  0.00    -0.003 C 
ATOM     23  C   UNL     1      34.222 -19.969 -21.112  0.00  0.00    -0.000 C 
ATOM     24  C   UNL     1      32.881 -20.256 -20.862  0.00  0.00    -0.000 C 
ATOM     25  C   UNL     1      35.222 -20.757 -20.542  0.00  0.00    -0.000 C 
BRANCH  23  26
ATOM     26  C   UNL     1      34.578 -18.852 -21.961  0.00  0.00    -0.000 C 
ATOM     27  C   UNL     1      34.571 -19.001 -23.348  0.00  0.00    -0.000 C 
ATOM     28  C   UNL     1      34.926 -17.627 -21.393  0.00  0.00    -0.000 C 
ATOM     29  C   UNL     1      34.913 -17.924 -24.167  0.00  0.00    +0.000 C 
ATOM     30  C   UNL     1      35.268 -16.551 -22.211  0.00  0.00    +0.000 C 
ATOM     31  C   UNL     1      35.262 -16.699 -23.598  0.00  0.00    +0.000 C 
ENDBRANCH  23  26
ENDBRANCH  19  20
ENDBRANCH   2  19
TORSDOF 5
ENDMDL
MODEL 3
REMARK VINA RESULT:     -11.0      8.562     13.007
REMARK  Name = 11987860
REMARK  5 active torsions:
REMARK  status: ('A' for Active; 'I' for Inactive)
REMARK    1  A    between atoms: N_2  and  C_19
REMARK    2  A    between atoms: C_3  and  C_11
REMARK    3  A    between atoms: N_9  and  O_17
REMARK    4  A    between atoms: C_19  and  C_20
REMARK    5  A    between atoms: C_23  and  C_26
REMARK                            x       y       z     vdW  Elec       q    Type
REMARK                         _______ _______ _______ _____ _____    ______ ____
ROOT
ATOM      1  O   UNL     1      33.380 -14.810 -26.605  0.00  0.00    -0.272 OA
ATOM      2  N   UNL     1      34.279 -15.348 -24.526  0.00  0.00    -0.298 N 
ATOM      3  C   UNL     1      33.559 -14.568 -25.415  0.00  0.00    +0.253 C 
ATOM      4  H   UNL     1      34.352 -15.048 -23.591  0.00  0.00    +0.150 HD
ENDROOT
BRANCH   3  11
ATOM      5  O   UNL     1      34.670 -12.609 -23.407  0.00  0.00    -0.327 OA
ATOM      6  O   UNL     1      33.560 -12.232 -25.413  0.00  0.00    -0.320 OA
ATOM      7  O   UNL     1      30.429 -10.455 -22.034  0.00  0.00    -0.250 OA
ATOM      8  N   UNL     1      32.445 -10.928 -23.084  0.00  0.00    -0.255 N 
ATOM      9  N   UNL     1      31.385  -8.849 -23.359  0.00  0.00    -0.181 N 
ATOM     10  C   UNL     1      33.384 -13.235 -23.302  0.00  0.00    +0.174 C 
ATOM     11  C   UNL     1      32.971 -13.359 -24.759  0.00  0.00    +0.222 C 
ATOM     12  C   UNL     1      34.411 -11.635 -24.423  0.00  0.00    +0.256 C 
ATOM     13  C   UNL     1      32.490 -12.279 -22.505  0.00  0.00    +0.128 C 
ATOM     14  C   UNL     1      33.662 -10.467 -23.782  0.00  0.00    +0.156 C 
ATOM     15  C   UNL     1      31.352 -10.097 -22.772  0.00  0.00    +0.326 C 
ATOM     16  H   UNL     1      32.120  -8.563 -23.947  0.00  0.00    +0.184 HD
BRANCH   9  17
ATOM     17  O   UNL     1      30.296  -8.016 -23.057  0.00  0.00    -0.294 OA
ATOM     18  H   UNL     1      30.063  -8.115 -22.120  0.00  0.00    +0.241 HD
ENDBRANCH   9  17
ENDBRANCH   3  11
BRANCH   2  19
ATOM     19  C   UNL     1      34.928 -16.583 -24.906  0.00  0.00    +0.116 C 
BRANCH  19  20
ATOM     20  C   UNL     1      34.786 -17.609 -23.817  0.00  0.00    -0.003 C 
ATOM     21  C   UNL     1      35.272 -17.330 -22.544  0.00  0.00    -0.003 C 
ATOM     22  C   UNL     1      34.172 -18.823 -24.094  0.00  0.00    -0.003 C 
ATOM     23  C   UNL     1      34.525 -19.505 -21.804  0.00  0.00    -0.000 C 
ATOM     24  C   UNL     1      35.140 -18.283 -21.535  0.00  0.00    -0.000 C 
ATOM     25  C   UNL     1      34.041 -19.775 -23.084  0.00  0.00    -0.000 C 
BRANCH  23  26
ATOM     26  C   UNL     1      34.388 -20.493 -20.755  0.00  0.00    -0.000 C 
ATOM     27  C   UNL     1      33.119 -20.890 -20.333  0.00  0.00    -0.000 C 
ATOM     28  C   UNL     1      35.524 -21.050 -20.169  0.00  0.00    -0.000 C 
ATOM     29  C   UNL     1      32.987 -21.844 -19.323  0.00  0.00    +0.000 C 
ATOM     30  C   UNL     1      35.392 -22.003 -19.159  0.00  0.00    +0.000 C 
ATOM     31  C   UNL     1      34.123 -22.400 -18.736  0.00  0.00    +0.000 C 
ENDBRANCH  23  26
ENDBRANCH  19  20
ENDBRANCH   2  19
TORSDOF 5
ENDMDL
MODEL 4
REMARK VINA RESULT:     -10.5      3.862      6.307
REMARK  Name = 11987860
REMARK  5 active torsions:
REMARK  status: ('A' for Active; 'I' for Inactive)
REMARK    1  A    between atoms: N_2  and  C_19
REMARK    2  A    between atoms: C_3  and  C_11
REMARK    3  A    between atoms: N_9  and  O_17
REMARK    4  A    between atoms: C_19  and  C_20
REMARK    5  A    between atoms: C_23  and  C_26
REMARK                            x       y       z     vdW  Elec       q    Type
REMARK                         _______ _______ _______ _____ _____    ______ ____
ROOT
ATOM      1  O   UNL     1      34.116 -24.127 -16.665  0.00  0.00    -0.272 OA
ATOM      2  N   UNL     1      33.558 -22.557 -18.290  0.00  0.00    -0.298 N 
ATOM      3  C   UNL     1      33.291 -23.432 -17.252  0.00  0.00    +0.253 C 
ATOM      4  H   UNL     1      32.809 -22.052 -18.682  0.00  0.00    +0.150 HD
ENDROOT
BRANCH   3  11
ATOM      5  O   UNL     1      31.855 -24.302 -14.746  0.00  0.00    -0.327 OA
ATOM      6  O   UNL     1      31.669 -22.339 -15.974  0.00  0.00    -0.320 OA
ATOM      7  O   UNL     1      27.242 -24.451 -16.536  0.00  0.00    -0.250 OA
ATOM      8  N   UNL     1      29.202 -23.771 -15.494  0.00  0.00    -0.255 N 
ATOM      9  N   UNL     1      27.213 -22.540 -15.272  0.00  0.00    -0.181 N 
ATOM     10  C   UNL     1      31.461 -24.672 -16.074  0.00  0.00    +0.174 C 
ATOM     11  C   UNL     1      31.844 -23.437 -16.873  0.00  0.00    +0.222 C 
ATOM     12  C   UNL     1      31.404 -22.945 -14.700  0.00  0.00    +0.256 C 
ATOM     13  C   UNL     1      29.950 -24.916 -16.036  0.00  0.00    +0.128 C 
ATOM     14  C   UNL     1      29.892 -22.955 -14.474  0.00  0.00    +0.156 C 
ATOM     15  C   UNL     1      27.838 -23.643 -15.816  0.00  0.00    +0.326 C 
ATOM     16  H   UNL     1      27.687 -21.896 -14.698  0.00  0.00    +0.184 HD
BRANCH   9  17
ATOM     17  O   UNL     1      25.854 -22.402 -15.593  0.00  0.00    -0.294 OA
ATOM     18  H   UNL     1      25.546 -23.203 -16.046  0.00  0.00    +0.241 HD
ENDBRANCH   9  17
ENDBRANCH   3  11
BRANCH   2  19
ATOM     19  C   UNL     1      34.883 -22.350 -18.828  0.00  0.00    +0.116 C 
BRANCH  19  20
ATOM     20  C   UNL     1      34.861 -21.285 -19.890  0.00  0.00    -0.003 C 
ATOM     21  C   UNL     1      33.646 -20.885 -20.433  0.00  0.00    -0.003 C 
ATOM     22  C   UNL     1      36.054 -20.716 -20.315  0.00  0.00    -0.003 C 
ATOM     23  C   UNL     1      34.818 -19.319 -21.851  0.00  0.00    -0.000 C 
ATOM     24  C   UNL     1      33.626 -19.897 -21.418  0.00  0.00    -0.000 C 
ATOM     25  C   UNL     1      36.033 -19.728 -21.299  0.00  0.00    -0.000 C 
BRANCH  23  26
ATOM     26  C   UNL     1      34.797 -18.294 -22.872  0.00  0.00    -0.000 C 
ATOM     27  C   UNL     1      34.405 -18.612 -24.172  0.00  0.00    -0.000 C 
ATOM     28  C   UNL     1      35.168 -16.987 -22.556  0.00  0.00    -0.000 C 
ATOM     29  C   UNL     1      34.383 -17.624 -25.156  0.00  0.00    +0.000 C 
ATOM     30  C   UNL     1      35.147 -15.999 -23.539  0.00  0.00    +0.000 C 
ATOM     31  C   UNL     1      34.755 -16.317 -24.840  0.00  0.00    +0.000 C 
ENDBRANCH  23  26
ENDBRANCH  19  20
ENDBRANCH   2  19
TORSDOF 5
ENDMDL
MODEL 5
REMARK VINA RESULT:     -10.4      7.978     12.446
REMARK  Name = 11987860
REMARK  5 active torsions:
REMARK  status: ('A' for Active; 'I' for Inactive)
REMARK    1  A    between atoms: N_2  and  C_19
REMARK    2  A    between atoms: C_3  and  C_11
REMARK    3  A    between atoms: N_9  and  O_17
REMARK    4  A    between atoms: C_19  and  C_20
REMARK    5  A    between atoms: C_23  and  C_26
REMARK                            x       y       z     vdW  Elec       q    Type
REMARK                         _______ _______ _______ _____ _____    ______ ____
ROOT
ATOM      1  O   UNL     1      33.185 -15.897 -26.023  0.00  0.00    -0.272 OA
ATOM      2  N   UNL     1      34.427 -16.150 -24.070  0.00  0.00    -0.298 N 
ATOM      3  C   UNL     1      33.528 -15.512 -24.908  0.00  0.00    +0.253 C 
ATOM      4  H   UNL     1      34.622 -15.742 -23.195  0.00  0.00    +0.150 HD
ENDROOT
BRANCH   3  11
ATOM      5  O   UNL     1      34.722 -13.444 -23.066  0.00  0.00    -0.327 OA
ATOM      6  O   UNL     1      33.523 -13.180 -25.038  0.00  0.00    -0.320 OA
ATOM      7  O   UNL     1      30.541 -11.215 -21.628  0.00  0.00    -0.250 OA
ATOM      8  N   UNL     1      32.510 -11.747 -22.739  0.00  0.00    -0.255 N 
ATOM      9  N   UNL     1      31.434  -9.687 -23.083  0.00  0.00    -0.181 N 
ATOM     10  C   UNL     1      33.444 -14.063 -22.868  0.00  0.00    +0.174 C 
ATOM     11  C   UNL     1      32.967 -14.269 -24.296  0.00  0.00    +0.222 C 
ATOM     12  C   UNL     1      34.416 -12.528 -24.122  0.00  0.00    +0.256 C 
ATOM     13  C   UNL     1      32.584 -13.063 -22.088  0.00  0.00    +0.128 C 
ATOM     14  C   UNL     1      33.694 -11.326 -23.515  0.00  0.00    +0.156 C 
ATOM     15  C   UNL     1      31.430 -10.899 -22.426  0.00  0.00    +0.326 C 
ATOM     16  H   UNL     1      32.141  -9.434 -23.719  0.00  0.00    +0.184 HD
BRANCH   9  17
ATOM     17  O   UNL     1      30.357  -8.838 -22.781  0.00  0.00    -0.294 OA
ATOM     18  H   UNL     1      29.600  -9.062 -23.345  0.00  0.00    +0.241 HD
ENDBRANCH   9  17
ENDBRANCH   3  11
BRANCH   2  19
ATOM     19  C   UNL     1      35.093 -17.384 -24.418  0.00  0.00    +0.116 C 
BRANCH  19  20
ATOM     20  C   UNL     1      35.080 -18.336 -23.255  0.00  0.00    -0.003 C 
ATOM     21  C   UNL     1      33.958 -19.126 -23.028  0.00  0.00    -0.003 C 
ATOM     22  C   UNL     1      36.187 -18.416 -22.421  0.00  0.00    -0.003 C 
ATOM     23  C   UNL     1      35.053 -20.096 -21.106  0.00  0.00    -0.000 C 
ATOM     24  C   UNL     1      33.946 -20.009 -21.949  0.00  0.00    -0.000 C 
ATOM     25  C   UNL     1      36.174 -19.299 -21.342  0.00  0.00    -0.000 C 
BRANCH  23  26
ATOM     26  C   UNL     1      35.041 -21.013 -19.986  0.00  0.00    -0.000 C 
ATOM     27  C   UNL     1      36.192 -21.193 -19.220  0.00  0.00    -0.000 C 
ATOM     28  C   UNL     1      33.878 -21.716 -19.673  0.00  0.00    -0.000 C 
ATOM     29  C   UNL     1      36.181 -22.076 -18.140  0.00  0.00    +0.000 C 
ATOM     30  C   UNL     1      33.866 -22.599 -18.594  0.00  0.00    +0.000 C 
ATOM     31  C   UNL     1      35.017 -22.780 -17.827  0.00  0.00    +0.000 C 
ENDBRANCH  23  26
ENDBRANCH  19  20
ENDBRANCH   2  19
TORSDOF 5
ENDMDL
MODEL 6
REMARK VINA RESULT:     -10.4      8.343     12.428
REMARK  Name = 11987860
REMARK  5 active torsions:
REMARK  status: ('A' for Active; 'I' for Inactive)
REMARK    1  A    between atoms: N_2  and  C_19
REMARK    2  A    between atoms: C_3  and  C_11
REMARK    3  A    between atoms: N_9  and  O_17
REMARK    4  A    between atoms: C_19  and  C_20
REMARK    5  A    between atoms: C_23  and  C_26
REMARK                            x       y       z     vdW  Elec       q    Type
REMARK                         _______ _______ _______ _____ _____    ______ ____
ROOT
ATOM      1  O   UNL     1      32.454 -14.428 -24.878  0.00  0.00    -0.272 OA
ATOM      2  N   UNL     1      34.488 -14.526 -23.751  0.00  0.00    -0.298 N 
ATOM      3  C   UNL     1      33.252 -13.984 -24.058  0.00  0.00    +0.253 C 
ATOM      4  H   UNL     1      35.041 -14.077 -23.071  0.00  0.00    +0.150 HD
ENDROOT
BRANCH   3  11
ATOM      5  O   UNL     1      31.283 -13.469 -21.831  0.00  0.00    -0.327 OA
ATOM      6  O   UNL     1      33.551 -12.987 -21.966  0.00  0.00    -0.320 OA
ATOM      7  O   UNL     1      31.452  -8.521 -21.807  0.00  0.00    -0.250 OA
ATOM      8  N   UNL     1      31.820 -10.761 -21.321  0.00  0.00    -0.255 N 
ATOM      9  N   UNL     1      32.649  -9.059 -19.929  0.00  0.00    -0.181 N 
ATOM     10  C   UNL     1      31.465 -12.611 -22.965  0.00  0.00    +0.174 C 
ATOM     11  C   UNL     1      32.950 -12.765 -23.245  0.00  0.00    +0.222 C 
ATOM     12  C   UNL     1      32.447 -13.149 -21.063  0.00  0.00    +0.256 C 
ATOM     13  C   UNL     1      31.083 -11.197 -22.517  0.00  0.00    +0.128 C 
ATOM     14  C   UNL     1      32.200 -11.815 -20.358  0.00  0.00    +0.156 C 
ATOM     15  C   UNL     1      31.939  -9.382 -21.067  0.00  0.00    +0.326 C 
ATOM     16  H   UNL     1      33.038  -9.744 -19.340  0.00  0.00    +0.184 HD
BRANCH   9  17
ATOM     17  O   UNL     1      32.777  -7.685 -19.672  0.00  0.00    -0.294 OA
ATOM     18  H   UNL     1      33.669  -7.500 -19.337  0.00  0.00    +0.241 HD
ENDBRANCH   9  17
ENDBRANCH   3  11
BRANCH   2  19
ATOM     19  C   UNL     1      35.006 -15.719 -24.381  0.00  0.00    +0.116 C 
BRANCH  19  20
ATOM     20  C   UNL     1      34.868 -16.902 -23.463  0.00  0.00    -0.003 C 
ATOM     21  C   UNL     1      35.109 -16.746 -22.103  0.00  0.00    -0.003 C 
ATOM     22  C   UNL     1      34.503 -18.136 -23.984  0.00  0.00    -0.003 C 
ATOM     23  C   UNL     1      34.615 -19.086 -21.766  0.00  0.00    -0.000 C 
ATOM     24  C   UNL     1      34.981 -17.843 -21.252  0.00  0.00    -0.000 C 
ATOM     25  C   UNL     1      34.376 -19.233 -23.133  0.00  0.00    -0.000 C 
BRANCH  23  26
ATOM     26  C   UNL     1      34.482 -20.225 -20.882  0.00  0.00    -0.000 C 
ATOM     27  C   UNL     1      33.215 -20.669 -20.504  0.00  0.00    -0.000 C 
ATOM     28  C   UNL     1      35.620 -20.878 -20.411  0.00  0.00    -0.000 C 
ATOM     29  C   UNL     1      33.087 -21.768 -19.654  0.00  0.00    +0.000 C 
ATOM     30  C   UNL     1      35.492 -21.976 -19.561  0.00  0.00    +0.000 C 
ATOM     31  C   UNL     1      34.225 -22.421 -19.181  0.00  0.00    +0.000 C 
ENDBRANCH  23  26
ENDBRANCH  19  20
ENDBRANCH   2  19
TORSDOF 5
ENDMDL
MODEL 7
REMARK VINA RESULT:     -10.1      2.968      4.770
REMARK  Name = 11987860
REMARK  5 active torsions:
REMARK  status: ('A' for Active; 'I' for Inactive)
REMARK    1  A    between atoms: N_2  and  C_19
REMARK    2  A    between atoms: C_3  and  C_11
REMARK    3  A    between atoms: N_9  and  O_17
REMARK    4  A    between atoms: C_19  and  C_20
REMARK    5  A    between atoms: C_23  and  C_26
REMARK                            x       y       z     vdW  Elec       q    Type
REMARK                         _______ _______ _______ _____ _____    ______ ____
ROOT
ATOM      1  O   UNL     1      37.056 -21.969 -16.325  0.00  0.00    -0.272 OA
ATOM      2  N   UNL     1      35.759 -22.043 -18.257  0.00  0.00    -0.298 N 
ATOM      3  C   UNL     1      35.983 -22.151 -16.896  0.00  0.00    +0.253 C 
ATOM      4  H   UNL     1      34.851 -22.213 -18.598  0.00  0.00    +0.150 HD
ENDROOT
BRANCH   3  11
ATOM      5  O   UNL     1      34.436 -24.725 -16.621  0.00  0.00    -0.327 OA
ATOM      6  O   UNL     1      35.168 -23.237 -14.995  0.00  0.00    -0.320 OA
ATOM      7  O   UNL     1      30.251 -22.888 -14.718  0.00  0.00    -0.250 OA
ATOM      8  N   UNL     1      32.345 -23.863 -14.959  0.00  0.00    -0.255 N 
ATOM      9  N   UNL     1      31.223 -23.878 -12.894  0.00  0.00    -0.181 N 
ATOM     10  C   UNL     1      33.845 -23.453 -16.917  0.00  0.00    +0.174 C 
ATOM     11  C   UNL     1      34.739 -22.500 -16.143  0.00  0.00    +0.222 C 
ATOM     12  C   UNL     1      34.707 -24.577 -15.224  0.00  0.00    +0.256 C 
ATOM     13  C   UNL     1      32.410 -23.496 -16.382  0.00  0.00    +0.128 C 
ATOM     14  C   UNL     1      33.396 -24.773 -14.462  0.00  0.00    +0.156 C 
ATOM     15  C   UNL     1      31.201 -23.501 -14.221  0.00  0.00    +0.326 C 
ATOM     16  H   UNL     1      31.979 -24.366 -12.498  0.00  0.00    +0.184 HD
BRANCH   9  17
ATOM     17  O   UNL     1      30.089 -23.516 -12.151  0.00  0.00    -0.294 OA
ATOM     18  H   UNL     1      30.027 -24.078 -11.361  0.00  0.00    +0.241 HD
ENDBRANCH   9  17
ENDBRANCH   3  11
BRANCH   2  19
ATOM     19  C   UNL     1      36.795 -21.694 -19.203  0.00  0.00    +0.116 C 
BRANCH  19  20
ATOM     20  C   UNL     1      36.287 -20.680 -20.191  0.00  0.00    -0.003 C 
ATOM     21  C   UNL     1      37.153 -19.714 -20.688  0.00  0.00    -0.003 C 
ATOM     22  C   UNL     1      34.959 -20.722 -20.594  0.00  0.00    -0.003 C 
ATOM     23  C   UNL     1      35.350 -18.808 -22.015  0.00  0.00    -0.000 C 
ATOM     24  C   UNL     1      36.681 -18.774 -21.604  0.00  0.00    -0.000 C 
ATOM     25  C   UNL     1      34.488 -19.782 -21.510  0.00  0.00    -0.000 C 
BRANCH  23  26
ATOM     26  C   UNL     1      34.860 -17.833 -22.967  0.00  0.00    -0.000 C 
ATOM     27  C   UNL     1      34.976 -16.471 -22.691  0.00  0.00    -0.000 C 
ATOM     28  C   UNL     1      34.275 -18.256 -24.159  0.00  0.00    -0.000 C 
ATOM     29  C   UNL     1      34.505 -15.531 -23.608  0.00  0.00    +0.000 C 
ATOM     30  C   UNL     1      33.805 -17.317 -25.077  0.00  0.00    +0.000 C 
ATOM     31  C   UNL     1      33.919 -15.954 -24.801  0.00  0.00    +0.000 C 
ENDBRANCH  23  26
ENDBRANCH  19  20
ENDBRANCH   2  19
TORSDOF 5
ENDMDL
MODEL 8
REMARK VINA RESULT:     -10.0      9.959     14.040
REMARK  Name = 11987860
REMARK  5 active torsions:
REMARK  status: ('A' for Active; 'I' for Inactive)
REMARK    1  A    between atoms: N_2  and  C_19
REMARK    2  A    between atoms: C_3  and  C_11
REMARK    3  A    between atoms: N_9  and  O_17
REMARK    4  A    between atoms: C_19  and  C_20
REMARK    5  A    between atoms: C_23  and  C_26
REMARK                            x       y       z     vdW  Elec       q    Type
REMARK                         _______ _______ _______ _____ _____    ______ ____
ROOT
ATOM      1  O   UNL     1      31.217 -12.400 -20.660  0.00  0.00    -0.272 OA
ATOM      2  N   UNL     1      32.058 -11.098 -22.397  0.00  0.00    -0.298 N 
ATOM      3  C   UNL     1      31.808 -12.285 -21.731  0.00  0.00    +0.253 C 
ATOM      4  H   UNL     1      32.543 -11.134 -23.253  0.00  0.00    +0.150 HD
ENDROOT
BRANCH   3  11
ATOM      5  O   UNL     1      34.577 -13.063 -22.638  0.00  0.00    -0.327 OA
ATOM      6  O   UNL     1      32.970 -14.299 -21.505  0.00  0.00    -0.320 OA
ATOM      7  O   UNL     1      33.345 -16.631 -25.841  0.00  0.00    -0.250 OA
ATOM      8  N   UNL     1      34.004 -15.488 -23.931  0.00  0.00    -0.255 N 
ATOM      9  N   UNL     1      34.149 -17.829 -24.062  0.00  0.00    -0.181 N 
ATOM     10  C   UNL     1      33.412 -13.103 -23.472  0.00  0.00    +0.174 C 
ATOM     11  C   UNL     1      32.324 -13.473 -22.478  0.00  0.00    +0.222 C 
ATOM     12  C   UNL     1      34.367 -14.222 -21.827  0.00  0.00    +0.256 C 
ATOM     13  C   UNL     1      33.657 -14.188 -24.525  0.00  0.00    +0.128 C 
ATOM     14  C   UNL     1      34.741 -15.454 -22.651  0.00  0.00    +0.156 C 
ATOM     15  C   UNL     1      33.803 -16.654 -24.694  0.00  0.00    +0.326 C 
ATOM     16  H   UNL     1      34.514 -17.848 -23.148  0.00  0.00    +0.184 HD
BRANCH   9  17
ATOM     17  O   UNL     1      33.946 -18.997 -24.814  0.00  0.00    -0.294 OA
ATOM     18  H   UNL     1      33.861 -18.766 -25.754  0.00  0.00    +0.241 HD
ENDBRANCH   9  17
ENDBRANCH   3  11
BRANCH   2  19
ATOM     19  C   UNL     1      31.641  -9.808 -21.896  0.00  0.00    +0.116 C 
BRANCH  19  20
ATOM     20  C   UNL     1      32.176  -8.706 -22.768  0.00  0.00    -0.003 C 
ATOM     21  C   UNL     1      32.329  -7.429 -22.241  0.00  0.00    -0.003 C 
ATOM     22  C   UNL     1      32.512  -8.977 -24.087  0.00  0.00    -0.003 C 
ATOM     23  C   UNL     1      33.165  -6.669 -24.376  0.00  0.00    -0.000 C 
ATOM     24  C   UNL     1      32.825  -6.407 -23.050  0.00  0.00    -0.000 C 
ATOM     25  C   UNL     1      33.008  -7.954 -24.895  0.00  0.00    -0.000 C 
BRANCH  23  26
ATOM     26  C   UNL     1      33.681  -5.608 -25.215  0.00  0.00    -0.000 C 
ATOM     27  C   UNL     1      34.903  -5.768 -25.868  0.00  0.00    -0.000 C 
ATOM     28  C   UNL     1      32.956  -4.428 -25.371  0.00  0.00    -0.000 C 
ATOM     29  C   UNL     1      35.400  -4.747 -26.678  0.00  0.00    +0.000 C 
ATOM     30  C   UNL     1      33.452  -3.406 -26.180  0.00  0.00    +0.000 C 
ATOM     31  C   UNL     1      34.675  -3.565 -26.834  0.00  0.00    +0.000 C 
ENDBRANCH  23  26
ENDBRANCH  19  20
ENDBRANCH   2  19
TORSDOF 5
ENDMDL
MODEL 9
REMARK VINA RESULT:      -9.6      2.757      4.987
REMARK  Name = 11987860
REMARK  5 active torsions:
REMARK  status: ('A' for Active; 'I' for Inactive)
REMARK    1  A    between atoms: N_2  and  C_19
REMARK    2  A    between atoms: C_3  and  C_11
REMARK    3  A    between atoms: N_9  and  O_17
REMARK    4  A    between atoms: C_19  and  C_20
REMARK    5  A    between atoms: C_23  and  C_26
REMARK                            x       y       z     vdW  Elec       q    Type
REMARK                         _______ _______ _______ _____ _____    ______ ____
ROOT
ATOM      1  O   UNL     1      36.587 -23.972 -15.861  0.00  0.00    -0.272 OA
ATOM      2  N   UNL     1      35.456 -22.656 -17.412  0.00  0.00    -0.298 N 
ATOM      3  C   UNL     1      35.548 -23.565 -16.373  0.00  0.00    +0.253 C 
ATOM      4  H   UNL     1      34.561 -22.405 -17.738  0.00  0.00    +0.150 HD
ENDROOT
BRANCH   3  11
ATOM      5  O   UNL     1      32.881 -22.164 -16.227  0.00  0.00    -0.327 OA
ATOM      6  O   UNL     1      33.427 -24.261 -17.062  0.00  0.00    -0.320 OA
ATOM      7  O   UNL     1      30.549 -25.300 -13.186  0.00  0.00    -0.250 OA
ATOM      8  N   UNL     1      31.323 -24.197 -15.078  0.00  0.00    -0.255 N 
ATOM      9  N   UNL     1      29.601 -25.790 -15.214  0.00  0.00    -0.181 N 
ATOM     10  C   UNL     1      33.464 -22.908 -15.148  0.00  0.00    +0.174 C 
ATOM     11  C   UNL     1      34.205 -24.009 -15.888  0.00  0.00    +0.222 C 
ATOM     12  C   UNL     1      32.433 -23.226 -17.074  0.00  0.00    +0.256 C 
ATOM     13  C   UNL     1      32.306 -23.433 -14.295  0.00  0.00    +0.128 C 
ATOM     14  C   UNL     1      31.140 -23.790 -16.486  0.00  0.00    +0.156 C 
ATOM     15  C   UNL     1      30.490 -25.111 -14.406  0.00  0.00    +0.326 C 
ATOM     16  H   UNL     1      29.553 -25.640 -16.185  0.00  0.00    +0.184 HD
BRANCH   9  17
ATOM     17  O   UNL     1      28.770 -26.707 -14.552  0.00  0.00    -0.294 OA
ATOM     18  H   UNL     1      28.595 -26.393 -13.650  0.00  0.00    +0.241 HD
ENDBRANCH   9  17
ENDBRANCH   3  11
BRANCH   2  19
ATOM     19  C   UNL     1      36.610 -22.057 -18.043  0.00  0.00    +0.116 C 
BRANCH  19  20
ATOM     20  C   UNL     1      36.194 -21.219 -19.219  0.00  0.00    -0.003 C 
ATOM     21  C   UNL     1      37.090 -20.306 -19.762  0.00  0.00    -0.003 C 
ATOM     22  C   UNL     1      34.919 -21.367 -19.749  0.00  0.00    -0.003 C 
ATOM     23  C   UNL     1      35.425 -19.670 -21.392  0.00  0.00    -0.000 C 
ATOM     24  C   UNL     1      36.702 -19.528 -20.853  0.00  0.00    -0.000 C 
ATOM     25  C   UNL     1      34.533 -20.590 -20.840  0.00  0.00    -0.000 C 
BRANCH  23  26
ATOM     26  C   UNL     1      35.023 -18.864 -22.525  0.00  0.00    -0.000 C 
ATOM     27  C   UNL     1      35.312 -17.500 -22.547  0.00  0.00    -0.000 C 
ATOM     28  C   UNL     1      34.350 -19.452 -23.596  0.00  0.00    -0.000 C 
ATOM     29  C   UNL     1      34.926 -16.722 -23.640  0.00  0.00    +0.000 C 
ATOM     30  C   UNL     1      33.964 -18.676 -24.688  0.00  0.00    +0.000 C 
ATOM     31  C   UNL     1      34.251 -17.311 -24.711  0.00  0.00    +0.000 C 
ENDBRANCH  23  26
ENDBRANCH  19  20
ENDBRANCH   2  19
TORSDOF 5
ENDMDL
