MODEL 1
REMARK VINA RESULT:     -11.9      0.000      0.000
REMARK  Name = 9889200
REMARK  5 active torsions:
REMARK  status: ('A' for Active; 'I' for Inactive)
REMARK    1  A    between atoms: C_1  and  C_21
REMARK    2  A    between atoms: C_4  and  O_7
REMARK    3  A    between atoms: O_7  and  C_8
REMARK    4  A    between atoms: C_8  and  C_12
REMARK    5  A    between atoms: C_21  and  C_26
REMARK                            x       y       z     vdW  Elec       q    Type
REMARK                         _______ _______ _______ _____ _____    ______ ____
ROOT
ATOM      1  C   UNL     1      35.194 -20.049 -20.898  0.00  0.00    -0.021 C 
ATOM      2  C   UNL     1      36.096 -20.893 -20.251  0.00  0.00    -0.001 C 
ATOM      3  C   UNL     1      33.825 -20.304 -20.829  0.00  0.00    -0.001 C 
ATOM      4  C   UNL     1      34.263 -22.241 -19.472  0.00  0.00    +0.139 C 
ATOM      5  C   UNL     1      35.627 -21.995 -19.534  0.00  0.00    +0.037 C 
ATOM      6  C   UNL     1      33.357 -21.405 -20.112  0.00  0.00    +0.037 C 
ENDROOT
BRANCH   4   7
ATOM      7  O   UNL     1      33.802 -23.326 -18.765  0.00  0.00    -0.466 OA
BRANCH   7   8
ATOM      8  C   UNL     1      32.821 -23.084 -17.779  0.00  0.00    +0.279 C 
BRANCH   8  12
ATOM      9  O   UNL     1      32.212 -23.834 -13.045  0.00  0.00    -0.274 OA
ATOM     10  N   UNL     1      32.485 -23.462 -15.340  0.00  0.00    -0.232 N 
ATOM     11  N   UNL     1      34.580 -23.919 -16.369  0.00  0.00    -0.391 NA
ATOM     12  C   UNL     1      33.348 -23.518 -16.432  0.00  0.00    +0.210 C 
ATOM     13  C   UNL     1      34.306 -24.310 -13.967  0.00  0.00    +0.151 C 
ATOM     14  C   UNL     1      35.085 -24.324 -15.127  0.00  0.00    +0.123 C 
ATOM     15  C   UNL     1      32.905 -23.851 -14.058  0.00  0.00    +0.241 C 
ATOM     16  C   UNL     1      31.107 -22.997 -15.496  0.00  0.00    +0.122 C 
ATOM     17  C   UNL     1      34.841 -24.723 -12.741  0.00  0.00    -0.010 C 
ATOM     18  C   UNL     1      36.412 -24.759 -15.044  0.00  0.00    +0.028 C 
ATOM     19  C   UNL     1      36.165 -25.154 -12.674  0.00  0.00    -0.004 C 
ATOM     20  C   UNL     1      36.950 -25.172 -13.825  0.00  0.00    +0.002 C 
ENDBRANCH   8  12
ENDBRANCH   7   8
ENDBRANCH   4   7
BRANCH   1  21
ATOM     21  C   UNL     1      35.695 -18.872 -21.665  0.00  0.00    +0.047 C 
BRANCH  21  26
ATOM     22  S   UNL     1      34.569 -18.381 -24.138  0.00  0.00    -0.048 S 
ATOM     23  O   UNL     1      34.810 -16.062 -21.063  0.00  0.00    -0.274 OA
ATOM     24  O   UNL     1      34.720 -16.255 -25.677  0.00  0.00    -0.263 OA
ATOM     25  N   UNL     1      34.768 -15.952 -23.373  0.00  0.00    -0.246 N 
ATOM     26  C   UNL     1      34.565 -18.099 -22.341  0.00  0.00    +0.137 C 
ATOM     27  C   UNL     1      34.728 -16.606 -22.159  0.00  0.00    +0.239 C 
ATOM     28  C   UNL     1      34.696 -16.681 -24.531  0.00  0.00    +0.279 C 
ATOM     29  H   UNL     1      34.846 -14.972 -23.406  0.00  0.00    +0.158 HD
ENDBRANCH  21  26
ENDBRANCH   1  21
TORSDOF 5
ENDMDL
MODEL 2
REMARK VINA RESULT:     -11.8      1.538      2.054
REMARK  Name = 9889200
REMARK  5 active torsions:
REMARK  status: ('A' for Active; 'I' for Inactive)
REMARK    1  A    between atoms: C_1  and  C_21
REMARK    2  A    between atoms: C_4  and  O_7
REMARK    3  A    between atoms: O_7  and  C_8
REMARK    4  A    between atoms: C_8  and  C_12
REMARK    5  A    between atoms: C_21  and  C_26
REMARK                            x       y       z     vdW  Elec       q    Type
REMARK                         _______ _______ _______ _____ _____    ______ ____
ROOT
ATOM      1  C   UNL     1      33.813 -20.522 -20.757  0.00  0.00    -0.021 C 
ATOM      2  C   UNL     1      35.135 -20.843 -20.451  0.00  0.00    -0.001 C 
ATOM      3  C   UNL     1      32.768 -21.144 -20.075  0.00  0.00    -0.001 C 
ATOM      4  C   UNL     1      34.365 -22.401 -18.789  0.00  0.00    +0.139 C 
ATOM      5  C   UNL     1      35.412 -21.788 -19.462  0.00  0.00    +0.037 C 
ATOM      6  C   UNL     1      33.045 -22.088 -19.086  0.00  0.00    +0.037 C 
ENDROOT
BRANCH   4   7
ATOM      7  O   UNL     1      34.639 -23.330 -17.814  0.00  0.00    -0.466 OA
BRANCH   7   8
ATOM      8  C   UNL     1      33.899 -23.244 -16.616  0.00  0.00    +0.279 C 
BRANCH   8  12
ATOM      9  O   UNL     1      34.277 -24.803 -12.058  0.00  0.00    -0.274 OA
ATOM     10  N   UNL     1      34.072 -24.042 -14.262  0.00  0.00    -0.232 N 
ATOM     11  N   UNL     1      35.949 -24.125 -15.720  0.00  0.00    -0.391 NA
ATOM     12  C   UNL     1      34.705 -23.838 -15.486  0.00  0.00    +0.210 C 
ATOM     13  C   UNL     1      36.176 -24.924 -13.416  0.00  0.00    +0.151 C 
ATOM     14  C   UNL     1      36.711 -24.677 -14.682  0.00  0.00    +0.123 C 
ATOM     15  C   UNL     1      34.758 -24.590 -13.167  0.00  0.00    +0.241 C 
ATOM     16  C   UNL     1      32.664 -23.690 -14.078  0.00  0.00    +0.122 C 
ATOM     17  C   UNL     1      36.965 -25.476 -12.401  0.00  0.00    -0.010 C 
ATOM     18  C   UNL     1      38.053 -24.991 -14.922  0.00  0.00    +0.028 C 
ATOM     19  C   UNL     1      38.301 -25.785 -12.654  0.00  0.00    -0.004 C 
ATOM     20  C   UNL     1      38.845 -25.542 -13.914  0.00  0.00    +0.002 C 
ENDBRANCH   8  12
ENDBRANCH   7   8
ENDBRANCH   4   7
BRANCH   1  21
ATOM     21  C   UNL     1      33.516 -19.514 -21.815  0.00  0.00    +0.047 C 
BRANCH  21  26
ATOM     22  S   UNL     1      35.010 -17.193 -21.763  0.00  0.00    -0.048 S 
ATOM     23  O   UNL     1      34.519 -19.715 -24.643  0.00  0.00    -0.274 OA
ATOM     24  O   UNL     1      35.237 -15.283 -23.556  0.00  0.00    -0.263 OA
ATOM     25  N   UNL     1      34.891 -17.457 -24.301  0.00  0.00    -0.246 N 
ATOM     26  C   UNL     1      34.785 -18.886 -22.387  0.00  0.00    +0.137 C 
ATOM     27  C   UNL     1      34.711 -18.763 -23.893  0.00  0.00    +0.239 C 
ATOM     28  C   UNL     1      35.068 -16.477 -23.360  0.00  0.00    +0.279 C 
ATOM     29  H   UNL     1      34.892 -17.233 -25.260  0.00  0.00    +0.158 HD
ENDBRANCH  21  26
ENDBRANCH   1  21
TORSDOF 5
ENDMDL
MODEL 3
REMARK VINA RESULT:     -11.8      0.892      1.459
REMARK  Name = 9889200
REMARK  5 active torsions:
REMARK  status: ('A' for Active; 'I' for Inactive)
REMARK    1  A    between atoms: C_1  and  C_21
REMARK    2  A    between atoms: C_4  and  O_7
REMARK    3  A    between atoms: O_7  and  C_8
REMARK    4  A    between atoms: C_8  and  C_12
REMARK    5  A    between atoms: C_21  and  C_26
REMARK                            x       y       z     vdW  Elec       q    Type
REMARK                         _______ _______ _______ _____ _____    ______ ____
ROOT
ATOM      1  C   UNL     1      35.387 -20.340 -20.644  0.00  0.00    -0.021 C 
ATOM      2  C   UNL     1      34.039 -20.694 -20.609  0.00  0.00    -0.001 C 
ATOM      3  C   UNL     1      36.308 -21.019 -19.845  0.00  0.00    -0.001 C 
ATOM      4  C   UNL     1      34.534 -22.396 -18.985  0.00  0.00    +0.139 C 
ATOM      5  C   UNL     1      33.610 -21.727 -19.775  0.00  0.00    +0.037 C 
ATOM      6  C   UNL     1      35.879 -22.052 -19.012  0.00  0.00    +0.037 C 
ENDROOT
BRANCH   4   7
ATOM      7  O   UNL     1      34.111 -23.415 -18.165  0.00  0.00    -0.466 OA
BRANCH   7   8
ATOM      8  C   UNL     1      33.543 -23.052 -16.925  0.00  0.00    +0.279 C 
BRANCH   8  12
ATOM      9  O   UNL     1      33.981 -24.659 -12.389  0.00  0.00    -0.274 OA
ATOM     10  N   UNL     1      33.747 -23.875 -14.582  0.00  0.00    -0.232 N 
ATOM     11  N   UNL     1      35.621 -23.885 -16.046  0.00  0.00    -0.391 NA
ATOM     12  C   UNL     1      34.370 -23.637 -15.805  0.00  0.00    +0.210 C 
ATOM     13  C   UNL     1      35.878 -24.706 -13.754  0.00  0.00    +0.151 C 
ATOM     14  C   UNL     1      36.402 -24.427 -15.018  0.00  0.00    +0.123 C 
ATOM     15  C   UNL     1      34.452 -24.417 -13.497  0.00  0.00    +0.241 C 
ATOM     16  C   UNL     1      32.330 -23.566 -14.390  0.00  0.00    +0.122 C 
ATOM     17  C   UNL     1      36.686 -25.248 -12.748  0.00  0.00    -0.010 C 
ATOM     18  C   UNL     1      37.752 -24.699 -15.266  0.00  0.00    +0.028 C 
ATOM     19  C   UNL     1      38.029 -25.515 -13.009  0.00  0.00    -0.004 C 
ATOM     20  C   UNL     1      38.562 -25.241 -14.267  0.00  0.00    +0.002 C 
ENDBRANCH   8  12
ENDBRANCH   7   8
ENDBRANCH   4   7
BRANCH   1  21
ATOM     21  C   UNL     1      35.846 -19.235 -21.534  0.00  0.00    +0.047 C 
BRANCH  21  26
ATOM     22  S   UNL     1      34.647 -18.716 -23.967  0.00  0.00    -0.048 S 
ATOM     23  O   UNL     1      34.897 -16.467 -20.840  0.00  0.00    -0.274 OA
ATOM     24  O   UNL     1      34.702 -16.548 -25.454  0.00  0.00    -0.263 OA
ATOM     25  N   UNL     1      34.797 -16.302 -23.145  0.00  0.00    -0.246 N 
ATOM     26  C   UNL     1      34.678 -18.478 -22.164  0.00  0.00    +0.137 C 
ATOM     27  C   UNL     1      34.805 -16.986 -21.947  0.00  0.00    +0.239 C 
ATOM     28  C   UNL     1      34.718 -17.003 -24.320  0.00  0.00    +0.279 C 
ATOM     29  H   UNL     1      34.847 -15.318 -23.155  0.00  0.00    +0.158 HD
ENDBRANCH  21  26
ENDBRANCH   1  21
TORSDOF 5
ENDMDL
MODEL 4
REMARK VINA RESULT:     -11.6      1.182      2.924
REMARK  Name = 9889200
REMARK  5 active torsions:
REMARK  status: ('A' for Active; 'I' for Inactive)
REMARK    1  A    between atoms: C_1  and  C_21
REMARK    2  A    between atoms: C_4  and  O_7
REMARK    3  A    between atoms: O_7  and  C_8
REMARK    4  A    between atoms: C_8  and  C_12
REMARK    5  A    between atoms: C_21  and  C_26
REMARK                            x       y       z     vdW  Elec       q    Type
REMARK                         _______ _______ _______ _____ _____    ______ ____
ROOT
ATOM      1  C   UNL     1      35.400 -19.835 -21.232  0.00  0.00    -0.021 C 
ATOM      2  C   UNL     1      34.067 -20.167 -20.993  0.00  0.00    -0.001 C 
ATOM      3  C   UNL     1      36.419 -20.518 -20.568  0.00  0.00    -0.001 C 
ATOM      4  C   UNL     1      34.774 -21.856 -19.435  0.00  0.00    +0.139 C 
ATOM      5  C   UNL     1      33.752 -21.183 -20.089  0.00  0.00    +0.037 C 
ATOM      6  C   UNL     1      36.105 -21.534 -19.666  0.00  0.00    +0.037 C 
ENDROOT
BRANCH   4   7
ATOM      7  O   UNL     1      34.464 -22.858 -18.546  0.00  0.00    -0.466 OA
BRANCH   7   8
ATOM      8  C   UNL     1      34.927 -22.712 -17.221  0.00  0.00    +0.279 C 
BRANCH   8  12
ATOM      9  O   UNL     1      33.731 -24.550 -12.916  0.00  0.00    -0.274 OA
ATOM     10  N   UNL     1      34.333 -23.658 -14.995  0.00  0.00    -0.232 N 
ATOM     11  N   UNL     1      32.685 -23.397 -16.689  0.00  0.00    -0.391 NA
ATOM     12  C   UNL     1      33.907 -23.284 -16.267  0.00  0.00    +0.210 C 
ATOM     13  C   UNL     1      32.044 -24.332 -14.519  0.00  0.00    +0.151 C 
ATOM     14  C   UNL     1      31.725 -23.926 -15.817  0.00  0.00    +0.123 C 
ATOM     15  C   UNL     1      33.441 -24.196 -14.055  0.00  0.00    +0.241 C 
ATOM     16  C   UNL     1      35.731 -23.499 -14.595  0.00  0.00    +0.122 C 
ATOM     17  C   UNL     1      31.061 -24.856 -13.672  0.00  0.00    -0.010 C 
ATOM     18  C   UNL     1      30.404 -24.053 -16.260  0.00  0.00    +0.028 C 
ATOM     19  C   UNL     1      29.749 -24.976 -14.127  0.00  0.00    -0.004 C 
ATOM     20  C   UNL     1      29.420 -24.575 -15.420  0.00  0.00    +0.002 C 
ENDBRANCH   8  12
ENDBRANCH   7   8
ENDBRANCH   4   7
BRANCH   1  21
ATOM     21  C   UNL     1      35.736 -18.748 -22.196  0.00  0.00    +0.047 C 
BRANCH  21  26
ATOM     22  S   UNL     1      34.245 -18.177 -24.449  0.00  0.00    -0.048 S 
ATOM     23  O   UNL     1      34.876 -16.003 -21.323  0.00  0.00    -0.274 OA
ATOM     24  O   UNL     1      34.112 -15.974 -25.879  0.00  0.00    -0.263 OA
ATOM     25  N   UNL     1      34.491 -15.782 -23.593  0.00  0.00    -0.246 N 
ATOM     26  C   UNL     1      34.498 -17.982 -22.659  0.00  0.00    +0.137 C 
ATOM     27  C   UNL     1      34.648 -16.495 -22.423  0.00  0.00    +0.239 C 
ATOM     28  C   UNL     1      34.269 -16.455 -24.766  0.00  0.00    +0.279 C 
ATOM     29  H   UNL     1      34.538 -14.799 -23.585  0.00  0.00    +0.158 HD
ENDBRANCH  21  26
ENDBRANCH   1  21
TORSDOF 5
ENDMDL
MODEL 5
REMARK VINA RESULT:     -11.4      4.329     11.485
REMARK  Name = 9889200
REMARK  5 active torsions:
REMARK  status: ('A' for Active; 'I' for Inactive)
REMARK    1  A    between atoms: C_1  and  C_21
REMARK    2  A    between atoms: C_4  and  O_7
REMARK    3  A    between atoms: O_7  and  C_8
REMARK    4  A    between atoms: C_8  and  C_12
REMARK    5  A    between atoms: C_21  and  C_26
REMARK                            x       y       z     vdW  Elec       q    Type
REMARK                         _______ _______ _______ _____ _____    ______ ____
ROOT
ATOM      1  C   UNL     1      34.789 -18.769 -22.496  0.00  0.00    -0.021 C 
ATOM      2  C   UNL     1      34.976 -17.744 -21.571  0.00  0.00    -0.001 C 
ATOM      3  C   UNL     1      34.612 -18.468 -23.846  0.00  0.00    -0.001 C 
ATOM      4  C   UNL     1      34.808 -16.125 -23.340  0.00  0.00    +0.139 C 
ATOM      5  C   UNL     1      34.986 -16.414 -21.995  0.00  0.00    +0.037 C 
ATOM      6  C   UNL     1      34.622 -17.139 -24.271  0.00  0.00    +0.037 C 
ENDROOT
BRANCH   4   7
ATOM      7  O   UNL     1      34.819 -14.815 -23.758  0.00  0.00    -0.466 OA
BRANCH   7   8
ATOM      8  C   UNL     1      33.670 -14.341 -24.426  0.00  0.00    +0.279 C 
BRANCH   8  12
ATOM      9  O   UNL     1      33.316  -9.523 -24.349  0.00  0.00    -0.274 OA
ATOM     10  N   UNL     1      33.500 -11.856 -24.406  0.00  0.00    -0.232 N 
ATOM     11  N   UNL     1      32.554 -13.158 -22.655  0.00  0.00    -0.391 NA
ATOM     12  C   UNL     1      33.205 -13.061 -23.773  0.00  0.00    +0.210 C 
ATOM     13  C   UNL     1      32.356 -10.718 -22.584  0.00  0.00    +0.151 C 
ATOM     14  C   UNL     1      32.115 -11.980 -22.037  0.00  0.00    +0.123 C 
ATOM     15  C   UNL     1      33.099 -10.627 -23.859  0.00  0.00    +0.241 C 
ATOM     16  C   UNL     1      34.241 -11.832 -25.667  0.00  0.00    +0.122 C 
ATOM     17  C   UNL     1      31.903  -9.561 -21.941  0.00  0.00    -0.010 C 
ATOM     18  C   UNL     1      31.412 -12.071 -20.830  0.00  0.00    +0.028 C 
ATOM     19  C   UNL     1      31.203  -9.666 -20.740  0.00  0.00    -0.004 C 
ATOM     20  C   UNL     1      30.958 -10.920 -20.185  0.00  0.00    +0.002 C 
ENDBRANCH   8  12
ENDBRANCH   7   8
ENDBRANCH   4   7
BRANCH   1  21
ATOM     21  C   UNL     1      34.778 -20.190 -22.043  0.00  0.00    +0.047 C 
BRANCH  21  26
ATOM     22  S   UNL     1      35.239 -21.615 -19.723  0.00  0.00    -0.048 S 
ATOM     23  O   UNL     1      31.931 -20.161 -21.077  0.00  0.00    -0.274 OA
ATOM     24  O   UNL     1      33.863 -23.573 -18.635  0.00  0.00    -0.263 OA
ATOM     25  N   UNL     1      32.707 -21.939 -19.818  0.00  0.00    -0.246 N 
ATOM     26  C   UNL     1      34.295 -20.333 -20.601  0.00  0.00    +0.137 C 
ATOM     27  C   UNL     1      32.849 -20.775 -20.544  0.00  0.00    +0.239 C 
ATOM     28  C   UNL     1      33.820 -22.545 -19.295  0.00  0.00    +0.279 C 
ATOM     29  H   UNL     1      31.815 -22.330 -19.676  0.00  0.00    +0.158 HD
ENDBRANCH  21  26
ENDBRANCH   1  21
TORSDOF 5
ENDMDL
MODEL 6
REMARK VINA RESULT:     -11.3      4.512     12.163
REMARK  Name = 9889200
REMARK  5 active torsions:
REMARK  status: ('A' for Active; 'I' for Inactive)
REMARK    1  A    between atoms: C_1  and  C_21
REMARK    2  A    between atoms: C_4  and  O_7
REMARK    3  A    between atoms: O_7  and  C_8
REMARK    4  A    between atoms: C_8  and  C_12
REMARK    5  A    between atoms: C_21  and  C_26
REMARK                            x       y       z     vdW  Elec       q    Type
REMARK                         _______ _______ _______ _____ _____    ______ ____
ROOT
ATOM      1  C   UNL     1      34.772 -18.831 -22.493  0.00  0.00    -0.021 C 
ATOM      2  C   UNL     1      34.501 -18.566 -23.835  0.00  0.00    -0.001 C 
ATOM      3  C   UNL     1      34.994 -17.779 -21.606  0.00  0.00    -0.001 C 
ATOM      4  C   UNL     1      34.677 -16.208 -23.399  0.00  0.00    +0.139 C 
ATOM      5  C   UNL     1      34.454 -17.248 -24.291  0.00  0.00    +0.037 C 
ATOM      6  C   UNL     1      34.946 -16.461 -22.060  0.00  0.00    +0.037 C 
ENDROOT
BRANCH   4   7
ATOM      7  O   UNL     1      34.628 -14.910 -23.847  0.00  0.00    -0.466 OA
BRANCH   7   8
ATOM      8  C   UNL     1      33.351 -14.343 -24.046  0.00  0.00    +0.279 C 
BRANCH   8  12
ATOM      9  O   UNL     1      32.244  -9.901 -22.501  0.00  0.00    -0.274 OA
ATOM     10  N   UNL     1      32.765 -12.062 -23.234  0.00  0.00    -0.232 N 
ATOM     11  N   UNL     1      34.250 -12.360 -25.068  0.00  0.00    -0.391 NA
ATOM     12  C   UNL     1      33.479 -12.841 -24.141  0.00  0.00    +0.210 C 
ATOM     13  C   UNL     1      33.710 -10.095 -24.311  0.00  0.00    +0.151 C 
ATOM     14  C   UNL     1      34.380 -10.970 -25.170  0.00  0.00    +0.123 C 
ATOM     15  C   UNL     1      32.836 -10.661 -23.261  0.00  0.00    +0.241 C 
ATOM     16  C   UNL     1      31.917 -12.683 -22.217  0.00  0.00    +0.122 C 
ATOM     17  C   UNL     1      33.862  -8.710 -24.439  0.00  0.00    -0.010 C 
ATOM     18  C   UNL     1      35.207 -10.438 -26.165  0.00  0.00    +0.028 C 
ATOM     19  C   UNL     1      34.690  -8.195 -25.435  0.00  0.00    -0.004 C 
ATOM     20  C   UNL     1      35.363  -9.058 -26.297  0.00  0.00    +0.002 C 
ENDBRANCH   8  12
ENDBRANCH   7   8
ENDBRANCH   4   7
BRANCH   1  21
ATOM     21  C   UNL     1      34.824 -20.240 -22.007  0.00  0.00    +0.047 C 
BRANCH  21  26
ATOM     22  S   UNL     1      35.248 -21.649 -19.671  0.00  0.00    -0.048 S 
ATOM     23  O   UNL     1      31.959 -20.216 -21.093  0.00  0.00    -0.274 OA
ATOM     24  O   UNL     1      33.859 -23.606 -18.596  0.00  0.00    -0.263 OA
ATOM     25  N   UNL     1      32.720 -21.983 -19.809  0.00  0.00    -0.246 N 
ATOM     26  C   UNL     1      34.315 -20.376 -20.574  0.00  0.00    +0.137 C 
ATOM     27  C   UNL     1      32.870 -20.823 -20.539  0.00  0.00    +0.239 C 
ATOM     28  C   UNL     1      33.825 -22.582 -19.263  0.00  0.00    +0.279 C 
ATOM     29  H   UNL     1      31.826 -22.376 -19.681  0.00  0.00    +0.158 HD
ENDBRANCH  21  26
ENDBRANCH   1  21
TORSDOF 5
ENDMDL
MODEL 7
REMARK VINA RESULT:     -11.1      3.088     10.229
REMARK  Name = 9889200
REMARK  5 active torsions:
REMARK  status: ('A' for Active; 'I' for Inactive)
REMARK    1  A    between atoms: C_1  and  C_21
REMARK    2  A    between atoms: C_4  and  O_7
REMARK    3  A    between atoms: O_7  and  C_8
REMARK    4  A    between atoms: C_8  and  C_12
REMARK    5  A    between atoms: C_21  and  C_26
REMARK                            x       y       z     vdW  Elec       q    Type
REMARK                         _______ _______ _______ _____ _____    ______ ____
ROOT
ATOM      1  C   UNL     1      33.775 -22.527 -18.781  0.00  0.00    -0.021 C 
ATOM      2  C   UNL     1      35.158 -22.349 -18.780  0.00  0.00    -0.001 C 
ATOM      3  C   UNL     1      32.966 -21.700 -19.560  0.00  0.00    -0.001 C 
ATOM      4  C   UNL     1      34.919 -20.526 -20.330  0.00  0.00    +0.139 C 
ATOM      5  C   UNL     1      35.733 -21.343 -19.558  0.00  0.00    +0.037 C 
ATOM      6  C   UNL     1      33.540 -20.696 -20.339  0.00  0.00    +0.037 C 
ENDROOT
BRANCH   4   7
ATOM      7  O   UNL     1      35.485 -19.537 -21.098  0.00  0.00    -0.466 OA
BRANCH   7   8
ATOM      8  C   UNL     1      35.183 -19.538 -22.476  0.00  0.00    +0.279 C 
BRANCH   8  12
ATOM      9  O   UNL     1      33.621 -16.426 -25.827  0.00  0.00    -0.274 OA
ATOM     10  N   UNL     1      34.377 -17.951 -24.220  0.00  0.00    -0.232 N 
ATOM     11  N   UNL     1      34.881 -17.196 -22.021  0.00  0.00    -0.391 NA
ATOM     12  C   UNL     1      34.797 -18.142 -22.905  0.00  0.00    +0.210 C 
ATOM     13  C   UNL     1      34.091 -15.592 -23.695  0.00  0.00    +0.151 C 
ATOM     14  C   UNL     1      34.527 -15.896 -22.403  0.00  0.00    +0.123 C 
ATOM     15  C   UNL     1      34.002 -16.682 -24.689  0.00  0.00    +0.241 C 
ATOM     16  C   UNL     1      34.311 -19.072 -25.157  0.00  0.00    +0.122 C 
ATOM     17  C   UNL     1      33.745 -14.282 -24.043  0.00  0.00    -0.010 C 
ATOM     18  C   UNL     1      34.612 -14.867 -21.459  0.00  0.00    +0.028 C 
ATOM     19  C   UNL     1      33.834 -13.267 -23.092  0.00  0.00    -0.004 C 
ATOM     20  C   UNL     1      34.268 -13.559 -21.801  0.00  0.00    +0.002 C 
ENDBRANCH   8  12
ENDBRANCH   7   8
ENDBRANCH   4   7
BRANCH   1  21
ATOM     21  C   UNL     1      33.161 -23.600 -17.948  0.00  0.00    +0.047 C 
BRANCH  21  26
ATOM     22  S   UNL     1      33.471 -24.008 -15.235  0.00  0.00    -0.048 S 
ATOM     23  O   UNL     1      30.363 -22.811 -17.183  0.00  0.00    -0.274 OA
ATOM     24  O   UNL     1      31.865 -25.159 -13.500  0.00  0.00    -0.263 OA
ATOM     25  N   UNL     1      30.917 -24.010 -15.284  0.00  0.00    -0.246 N 
ATOM     26  C   UNL     1      32.691 -23.081 -16.591  0.00  0.00    +0.137 C 
ATOM     27  C   UNL     1      31.200 -23.269 -16.413  0.00  0.00    +0.239 C 
ATOM     28  C   UNL     1      31.948 -24.491 -14.520  0.00  0.00    +0.279 C 
ATOM     29  H   UNL     1      29.983 -24.189 -15.030  0.00  0.00    +0.158 HD
ENDBRANCH  21  26
ENDBRANCH   1  21
TORSDOF 5
ENDMDL
MODEL 8
REMARK VINA RESULT:     -10.6      5.529     12.907
REMARK  Name = 9889200
REMARK  5 active torsions:
REMARK  status: ('A' for Active; 'I' for Inactive)
REMARK    1  A    between atoms: C_1  and  C_21
REMARK    2  A    between atoms: C_4  and  O_7
REMARK    3  A    between atoms: O_7  and  C_8
REMARK    4  A    between atoms: C_8  and  C_12
REMARK    5  A    between atoms: C_21  and  C_26
REMARK                            x       y       z     vdW  Elec       q    Type
REMARK                         _______ _______ _______ _____ _____    ______ ____
ROOT
ATOM      1  C   UNL     1      34.890 -16.884 -23.499  0.00  0.00    -0.021 C 
ATOM      2  C   UNL     1      34.422 -16.683 -24.797  0.00  0.00    -0.001 C 
ATOM      3  C   UNL     1      34.770 -15.870 -22.549  0.00  0.00    -0.001 C 
ATOM      4  C   UNL     1      33.720 -14.464 -24.193  0.00  0.00    +0.139 C 
ATOM      5  C   UNL     1      33.835 -15.466 -25.146  0.00  0.00    +0.037 C 
ATOM      6  C   UNL     1      34.182 -14.655 -22.897  0.00  0.00    +0.037 C 
ENDROOT
BRANCH   4   7
ATOM      7  O   UNL     1      33.140 -13.266 -24.536  0.00  0.00    -0.466 OA
BRANCH   7   8
ATOM      8  C   UNL     1      33.951 -12.324 -25.205  0.00  0.00    +0.279 C 
BRANCH   8  12
ATOM      9  O   UNL     1      35.306  -7.719 -24.652  0.00  0.00    -0.274 OA
ATOM     10  N   UNL     1      34.667  -9.953 -24.936  0.00  0.00    -0.232 N 
ATOM     11  N   UNL     1      32.911 -10.856 -23.610  0.00  0.00    -0.391 NA
ATOM     12  C   UNL     1      33.816 -10.979 -24.532  0.00  0.00    +0.210 C 
ATOM     13  C   UNL     1      33.572  -8.518 -23.303  0.00  0.00    +0.151 C 
ATOM     14  C   UNL     1      32.772  -9.615 -22.975  0.00  0.00    +0.123 C 
ATOM     15  C   UNL     1      34.598  -8.677 -24.356  0.00  0.00    +0.241 C 
ATOM     16  C   UNL     1      35.662 -10.174 -25.984  0.00  0.00    +0.122 C 
ATOM     17  C   UNL     1      33.408  -7.292 -22.650  0.00  0.00    -0.010 C 
ATOM     18  C   UNL     1      31.800  -9.469 -21.979  0.00  0.00    +0.028 C 
ATOM     19  C   UNL     1      32.435  -7.161 -21.660  0.00  0.00    -0.004 C 
ATOM     20  C   UNL     1      31.632  -8.248 -21.325  0.00  0.00    +0.002 C 
ENDBRANCH   8  12
ENDBRANCH   7   8
ENDBRANCH   4   7
BRANCH   1  21
ATOM     21  C   UNL     1      35.519 -18.184 -23.127  0.00  0.00    +0.047 C 
BRANCH  21  26
ATOM     22  S   UNL     1      36.842 -19.098 -20.883  0.00  0.00    -0.048 S 
ATOM     23  O   UNL     1      33.176 -19.657 -21.952  0.00  0.00    -0.274 OA
ATOM     24  O   UNL     1      36.807 -21.467 -19.743  0.00  0.00    -0.263 OA
ATOM     25  N   UNL     1      34.873 -20.723 -20.797  0.00  0.00    -0.246 N 
ATOM     26  C   UNL     1      35.297 -18.534 -21.658  0.00  0.00    +0.137 C 
ATOM     27  C   UNL     1      34.318 -19.677 -21.503  0.00  0.00    +0.239 C 
ATOM     28  C   UNL     1      36.173 -20.633 -20.373  0.00  0.00    +0.279 C 
ATOM     29  H   UNL     1      34.339 -21.526 -20.598  0.00  0.00    +0.158 HD
ENDBRANCH  21  26
ENDBRANCH   1  21
TORSDOF 5
ENDMDL
MODEL 9
REMARK VINA RESULT:     -10.5      2.769     10.126
REMARK  Name = 9889200
REMARK  5 active torsions:
REMARK  status: ('A' for Active; 'I' for Inactive)
REMARK    1  A    between atoms: C_1  and  C_21
REMARK    2  A    between atoms: C_4  and  O_7
REMARK    3  A    between atoms: O_7  and  C_8
REMARK    4  A    between atoms: C_8  and  C_12
REMARK    5  A    between atoms: C_21  and  C_26
REMARK                            x       y       z     vdW  Elec       q    Type
REMARK                         _______ _______ _______ _____ _____    ______ ____
ROOT
ATOM      1  C   UNL     1      34.038 -22.881 -17.827  0.00  0.00    -0.021 C 
ATOM      2  C   UNL     1      35.237 -22.396 -18.348  0.00  0.00    -0.001 C 
ATOM      3  C   UNL     1      32.825 -22.513 -18.408  0.00  0.00    -0.001 C 
ATOM      4  C   UNL     1      34.010 -21.180 -20.020  0.00  0.00    +0.139 C 
ATOM      5  C   UNL     1      35.223 -21.540 -19.450  0.00  0.00    +0.037 C 
ATOM      6  C   UNL     1      32.810 -21.659 -19.510  0.00  0.00    +0.037 C 
ENDROOT
BRANCH   4   7
ATOM      7  O   UNL     1      33.996 -20.338 -21.107  0.00  0.00    -0.466 OA
BRANCH   7   8
ATOM      8  C   UNL     1      35.225 -19.763 -21.494  0.00  0.00    +0.279 C 
BRANCH   8  12
ATOM      9  O   UNL     1      34.535 -17.109 -25.472  0.00  0.00    -0.274 OA
ATOM     10  N   UNL     1      34.873 -18.414 -23.558  0.00  0.00    -0.232 N 
ATOM     11  N   UNL     1      34.849 -17.390 -21.412  0.00  0.00    -0.391 NA
ATOM     12  C   UNL     1      34.967 -18.437 -22.169  0.00  0.00    +0.210 C 
ATOM     13  C   UNL     1      34.496 -16.014 -23.407  0.00  0.00    +0.151 C 
ATOM     14  C   UNL     1      34.610 -16.152 -22.022  0.00  0.00    +0.123 C 
ATOM     15  C   UNL     1      34.634 -17.218 -24.254  0.00  0.00    +0.241 C 
ATOM     16  C   UNL     1      35.018 -19.641 -24.341  0.00  0.00    +0.122 C 
ATOM     17  C   UNL     1      34.257 -14.763 -23.985  0.00  0.00    -0.010 C 
ATOM     18  C   UNL     1      34.481 -15.015 -21.217  0.00  0.00    +0.028 C 
ATOM     19  C   UNL     1      34.130 -13.639 -23.171  0.00  0.00    -0.004 C 
ATOM     20  C   UNL     1      34.242 -13.764 -21.787  0.00  0.00    +0.002 C 
ENDBRANCH   8  12
ENDBRANCH   7   8
ENDBRANCH   4   7
BRANCH   1  21
ATOM     21  C   UNL     1      34.054 -23.795 -16.648  0.00  0.00    +0.047 C 
BRANCH  21  26
ATOM     22  S   UNL     1      36.388 -22.901 -15.475  0.00  0.00    -0.048 S 
ATOM     23  O   UNL     1      33.203 -24.308 -13.811  0.00  0.00    -0.274 OA
ATOM     24  O   UNL     1      37.796 -23.928 -13.506  0.00  0.00    -0.263 OA
ATOM     25  N   UNL     1      35.490 -24.214 -13.477  0.00  0.00    -0.246 N 
ATOM     26  C   UNL     1      34.583 -23.107 -15.391  0.00  0.00    +0.137 C 
ATOM     27  C   UNL     1      34.321 -23.938 -14.155  0.00  0.00    +0.239 C 
ATOM     28  C   UNL     1      36.682 -23.767 -13.983  0.00  0.00    +0.279 C 
ATOM     29  H   UNL     1      35.466 -24.727 -12.636  0.00  0.00    +0.158 HD
ENDBRANCH  21  26
ENDBRANCH   1  21
TORSDOF 5
ENDMDL
