MODEL 1
REMARK VINA RESULT:     -12.5      0.000      0.000
REMARK  Name = 68488178
REMARK  9 active torsions:
REMARK  status: ('A' for Active; 'I' for Inactive)
REMARK    1  A    between atoms: N_1  and  C_10
REMARK    2  A    between atoms: N_2  and  C_29
REMARK    3  A    between atoms: C_10  and  C_11
REMARK    4  A    between atoms: C_16  and  O_17
REMARK    5  A    between atoms: O_17  and  C_18
REMARK    6  A    between atoms: C_23  and  C_26
REMARK    7  A    between atoms: C_29  and  C_30
REMARK    8  A    between atoms: C_35  and  C_37
REMARK    9  A    between atoms: C_37  and  O_38
REMARK                            x       y       z     vdW  Elec       q    Type
REMARK                         _______ _______ _______ _____ _____    ______ ____
ROOT
ATOM      1  N   UNL     1      32.868 -23.658 -17.128  0.00  0.00    +0.388 N 
ATOM      2  N   UNL     1      33.947 -24.930 -14.877  0.00  0.00    +0.388 N 
ATOM      3  C   UNL     1      34.041 -23.123 -16.396  0.00  0.00    -0.081 C 
ATOM      4  C   UNL     1      32.823 -23.966 -14.787  0.00  0.00    -0.081 C 
ATOM      5  C   UNL     1      33.464 -22.622 -15.085  0.00  0.00    -0.046 C 
ATOM      6  C   UNL     1      31.976 -24.169 -16.057  0.00  0.00    -0.098 C 
ATOM      7  C   UNL     1      34.840 -24.346 -15.909  0.00  0.00    -0.098 C 
ATOM      8  H   UNL     1      33.132 -24.384 -17.795  0.00  0.00    -0.079 HD
ATOM      9  H   UNL     1      33.627 -25.868 -15.123  0.00  0.00    -0.079 HD
ENDROOT
BRANCH   1  10
ATOM     10  C   UNL     1      32.213 -22.649 -17.952  0.00  0.00    -0.050 C 
BRANCH  10  11
ATOM     11  C   UNL     1      33.168 -22.013 -18.926  0.00  0.00    -0.043 C 
ATOM     12  C   UNL     1      32.706 -21.058 -19.833  0.00  0.00    -0.003 C 
ATOM     13  C   UNL     1      34.514 -22.379 -18.922  0.00  0.00    -0.003 C 
ATOM     14  C   UNL     1      33.591 -20.469 -20.736  0.00  0.00    +0.037 C 
ATOM     15  C   UNL     1      35.399 -21.790 -19.826  0.00  0.00    +0.037 C 
ATOM     16  C   UNL     1      34.938 -20.835 -20.733  0.00  0.00    +0.145 C 
BRANCH  16  17
ATOM     17  O   UNL     1      35.801 -20.261 -21.614  0.00  0.00    -0.453 OA
BRANCH  17  18
ATOM     18  C   UNL     1      35.367 -19.141 -22.304  0.00  0.00    +0.145 C 
ATOM     19  C   UNL     1      34.844 -19.273 -23.590  0.00  0.00    +0.038 C 
ATOM     20  C   UNL     1      35.455 -17.880 -21.713  0.00  0.00    +0.038 C 
ATOM     21  C   UNL     1      34.410 -18.145 -24.285  0.00  0.00    +0.008 C 
ATOM     22  C   UNL     1      35.021 -16.752 -22.408  0.00  0.00    +0.008 C 
ATOM     23  C   UNL     1      34.497 -16.884 -23.695  0.00  0.00    +0.054 C 
BRANCH  23  26
ATOM     24  O   UNL     1      33.973 -14.576 -23.677  0.00  0.00    -0.431 OA
ATOM     25  N   UNL     1      33.703 -15.598 -25.677  0.00  0.00    -0.206 NA
ATOM     26  C   UNL     1      34.049 -15.718 -24.415  0.00  0.00    +0.230 C 
ATOM     27  C   UNL     1      33.534 -13.647 -24.572  0.00  0.00    +0.202 C 
ATOM     28  C   UNL     1      33.373 -14.272 -25.784  0.00  0.00    +0.143 C 
ENDBRANCH  23  26
ENDBRANCH  17  18
ENDBRANCH  16  17
ENDBRANCH  10  11
ENDBRANCH   1  10
BRANCH   2  29
ATOM     29  C   UNL     1      34.631 -25.117 -13.602  0.00  0.00    -0.050 C 
BRANCH  29  30
ATOM     30  C   UNL     1      36.111 -25.323 -13.785  0.00  0.00    -0.043 C 
ATOM     31  C   UNL     1      36.575 -26.319 -14.644  0.00  0.00    -0.006 C 
ATOM     32  C   UNL     1      37.018 -24.518 -13.094  0.00  0.00    -0.006 C 
ATOM     33  C   UNL     1      37.946 -26.510 -14.811  0.00  0.00    +0.006 C 
ATOM     34  C   UNL     1      38.388 -24.710 -13.262  0.00  0.00    +0.006 C 
ATOM     35  C   UNL     1      38.854 -25.705 -14.122  0.00  0.00    +0.075 C 
BRANCH  35  37
ATOM     36  O   UNL     1      40.906 -26.928 -13.999  0.00  0.00    -0.245 OA
ATOM     37  C   UNL     1      40.282 -25.904 -14.298  0.00  0.00    +0.338 C 
BRANCH  37  38
ATOM     38  O   UNL     1      40.896 -24.819 -14.845  0.00  0.00    -0.477 OA
ATOM     39  H   UNL     1      41.249 -24.151 -14.291  0.00  0.00    +0.295 HD
ENDBRANCH  37  38
ENDBRANCH  35  37
ENDBRANCH  29  30
ENDBRANCH   2  29
TORSDOF 9
ENDMDL
MODEL 2
REMARK VINA RESULT:     -12.3      5.495     15.562
REMARK  Name = 68488178
REMARK  9 active torsions:
REMARK  status: ('A' for Active; 'I' for Inactive)
REMARK    1  A    between atoms: N_1  and  C_10
REMARK    2  A    between atoms: N_2  and  C_29
REMARK    3  A    between atoms: C_10  and  C_11
REMARK    4  A    between atoms: C_16  and  O_17
REMARK    5  A    between atoms: O_17  and  C_18
REMARK    6  A    between atoms: C_23  and  C_26
REMARK    7  A    between atoms: C_29  and  C_30
REMARK    8  A    between atoms: C_35  and  C_37
REMARK    9  A    between atoms: C_37  and  O_38
REMARK                            x       y       z     vdW  Elec       q    Type
REMARK                         _______ _______ _______ _____ _____    ______ ____
ROOT
ATOM      1  N   UNL     1      33.405 -11.279 -23.626  0.00  0.00    +0.388 N 
ATOM      2  N   UNL     1      34.547  -8.777 -24.162  0.00  0.00    +0.388 N 
ATOM      3  C   UNL     1      34.032 -10.951 -24.929  0.00  0.00    -0.081 C 
ATOM      4  C   UNL     1      33.103  -9.054 -24.359  0.00  0.00    -0.081 C 
ATOM      5  C   UNL     1      33.065  -9.971 -25.569  0.00  0.00    -0.046 C 
ATOM      6  C   UNL     1      32.694 -10.033 -23.243  0.00  0.00    -0.098 C 
ATOM      7  C   UNL     1      35.218 -10.021 -24.616  0.00  0.00    -0.098 C 
ATOM      8  H   UNL     1      34.097 -11.562 -22.931  0.00  0.00    -0.079 HD
ATOM      9  H   UNL     1      34.763  -8.550 -23.190  0.00  0.00    -0.079 HD
ENDROOT
BRANCH   1  10
ATOM     10  C   UNL     1      32.504 -12.422 -23.708  0.00  0.00    -0.050 C 
BRANCH  10  11
ATOM     11  C   UNL     1      33.253 -13.716 -23.883  0.00  0.00    -0.043 C 
ATOM     12  C   UNL     1      33.113 -14.449 -25.062  0.00  0.00    -0.003 C 
ATOM     13  C   UNL     1      34.088 -14.182 -22.867  0.00  0.00    -0.003 C 
ATOM     14  C   UNL     1      33.807 -15.648 -25.225  0.00  0.00    +0.037 C 
ATOM     15  C   UNL     1      34.782 -15.381 -23.029  0.00  0.00    +0.037 C 
ATOM     16  C   UNL     1      34.641 -16.114 -24.209  0.00  0.00    +0.145 C 
BRANCH  16  17
ATOM     17  O   UNL     1      35.318 -17.284 -24.367  0.00  0.00    -0.453 OA
BRANCH  17  18
ATOM     18  C   UNL     1      35.316 -18.177 -23.308  0.00  0.00    +0.145 C 
ATOM     19  C   UNL     1      36.437 -18.285 -22.485  0.00  0.00    +0.038 C 
ATOM     20  C   UNL     1      34.194 -18.970 -23.066  0.00  0.00    +0.038 C 
ATOM     21  C   UNL     1      36.437 -19.186 -21.421  0.00  0.00    +0.008 C 
ATOM     22  C   UNL     1      34.194 -19.871 -22.002  0.00  0.00    +0.008 C 
ATOM     23  C   UNL     1      35.315 -19.979 -21.178  0.00  0.00    +0.054 C 
BRANCH  23  26
ATOM     24  O   UNL     1      36.444 -20.910 -19.317  0.00  0.00    -0.431 OA
ATOM     25  N   UNL     1      34.384 -21.760 -19.704  0.00  0.00    -0.206 NA
ATOM     26  C   UNL     1      35.315 -20.912 -20.077  0.00  0.00    +0.230 C 
ATOM     27  C   UNL     1      36.192 -21.857 -18.371  0.00  0.00    +0.202 C 
ATOM     28  C   UNL     1      34.941 -22.370 -18.609  0.00  0.00    +0.143 C 
ENDBRANCH  23  26
ENDBRANCH  17  18
ENDBRANCH  16  17
ENDBRANCH  10  11
ENDBRANCH   1  10
BRANCH   2  29
ATOM     29  C   UNL     1      35.001  -7.606 -24.903  0.00  0.00    -0.050 C 
BRANCH  29  30
ATOM     30  C   UNL     1      34.104  -6.418 -24.679  0.00  0.00    -0.043 C 
ATOM     31  C   UNL     1      33.933  -5.473 -25.691  0.00  0.00    -0.006 C 
ATOM     32  C   UNL     1      33.444  -6.262 -23.460  0.00  0.00    -0.006 C 
ATOM     33  C   UNL     1      33.103  -4.372 -25.482  0.00  0.00    +0.006 C 
ATOM     34  C   UNL     1      32.614  -5.161 -23.252  0.00  0.00    +0.006 C 
ATOM     35  C   UNL     1      32.442  -4.216 -24.264  0.00  0.00    +0.075 C 
BRANCH  35  37
ATOM     36  O   UNL     1      31.946  -1.955 -23.663  0.00  0.00    -0.245 OA
ATOM     37  C   UNL     1      31.576  -3.069 -24.048  0.00  0.00    +0.338 C 
BRANCH  37  38
ATOM     38  O   UNL     1      30.271  -3.343 -24.319  0.00  0.00    -0.477 OA
ATOM     39  H   UNL     1      30.050  -3.916 -25.027  0.00  0.00    +0.295 HD
ENDBRANCH  37  38
ENDBRANCH  35  37
ENDBRANCH  29  30
ENDBRANCH   2  29
TORSDOF 9
ENDMDL
MODEL 3
REMARK VINA RESULT:     -11.7      5.239     10.404
REMARK  Name = 68488178
REMARK  9 active torsions:
REMARK  status: ('A' for Active; 'I' for Inactive)
REMARK    1  A    between atoms: N_1  and  C_10
REMARK    2  A    between atoms: N_2  and  C_29
REMARK    3  A    between atoms: C_10  and  C_11
REMARK    4  A    between atoms: C_16  and  O_17
REMARK    5  A    between atoms: O_17  and  C_18
REMARK    6  A    between atoms: C_23  and  C_26
REMARK    7  A    between atoms: C_29  and  C_30
REMARK    8  A    between atoms: C_35  and  C_37
REMARK    9  A    between atoms: C_37  and  O_38
REMARK                            x       y       z     vdW  Elec       q    Type
REMARK                         _______ _______ _______ _____ _____    ______ ____
ROOT
ATOM      1  N   UNL     1      33.505 -15.647 -24.057  0.00  0.00    +0.388 N 
ATOM      2  N   UNL     1      34.611 -17.836 -22.702  0.00  0.00    +0.388 N 
ATOM      3  C   UNL     1      34.271 -16.710 -24.751  0.00  0.00    -0.081 C 
ATOM      4  C   UNL     1      35.321 -16.541 -22.839  0.00  0.00    -0.081 C 
ATOM      5  C   UNL     1      35.705 -16.484 -24.307  0.00  0.00    -0.046 C 
ATOM      6  C   UNL     1      34.240 -15.446 -22.782  0.00  0.00    -0.098 C 
ATOM      7  C   UNL     1      33.947 -18.024 -24.016  0.00  0.00    -0.098 C 
ATOM      8  H   UNL     1      32.531 -15.913 -23.908  0.00  0.00    -0.079 HD
ATOM      9  H   UNL     1      33.946 -17.826 -21.927  0.00  0.00    -0.079 HD
ENDROOT
BRANCH   1  10
ATOM     10  C   UNL     1      33.416 -14.419 -24.838  0.00  0.00    -0.050 C 
BRANCH  10  11
ATOM     11  C   UNL     1      33.034 -13.238 -23.986  0.00  0.00    -0.043 C 
ATOM     12  C   UNL     1      32.149 -13.405 -22.921  0.00  0.00    -0.003 C 
ATOM     13  C   UNL     1      33.565 -11.977 -24.261  0.00  0.00    -0.003 C 
ATOM     14  C   UNL     1      31.794 -12.311 -22.131  0.00  0.00    +0.037 C 
ATOM     15  C   UNL     1      33.210 -10.884 -23.472  0.00  0.00    +0.037 C 
ATOM     16  C   UNL     1      32.325 -11.051 -22.406  0.00  0.00    +0.145 C 
BRANCH  16  17
ATOM     17  O   UNL     1      31.978  -9.983 -21.636  0.00  0.00    -0.453 OA
BRANCH  17  18
ATOM     18  C   UNL     1      31.917  -8.741 -22.247  0.00  0.00    +0.145 C 
ATOM     19  C   UNL     1      32.818  -7.741 -21.883  0.00  0.00    +0.038 C 
ATOM     20  C   UNL     1      30.955  -8.491 -23.225  0.00  0.00    +0.038 C 
ATOM     21  C   UNL     1      32.755  -6.490 -22.495  0.00  0.00    +0.008 C 
ATOM     22  C   UNL     1      30.891  -7.240 -23.837  0.00  0.00    +0.008 C 
ATOM     23  C   UNL     1      31.792  -6.238 -23.473  0.00  0.00    +0.054 C 
BRANCH  23  26
ATOM     24  O   UNL     1      30.487  -4.385 -24.154  0.00  0.00    -0.431 OA
ATOM     25  N   UNL     1      32.689  -4.229 -24.643  0.00  0.00    -0.206 NA
ATOM     26  C   UNL     1      31.727  -4.944 -24.106  0.00  0.00    +0.230 C 
ATOM     27  C   UNL     1      30.697  -3.197 -24.786  0.00  0.00    +0.202 C 
ATOM     28  C   UNL     1      32.034  -3.106 -25.081  0.00  0.00    +0.143 C 
ENDBRANCH  23  26
ENDBRANCH  17  18
ENDBRANCH  16  17
ENDBRANCH  10  11
ENDBRANCH   1  10
BRANCH   2  29
ATOM     29  C   UNL     1      35.509 -18.938 -22.377  0.00  0.00    -0.050 C 
BRANCH  29  30
ATOM     30  C   UNL     1      34.887 -19.900 -21.402  0.00  0.00    -0.043 C 
ATOM     31  C   UNL     1      35.697 -20.746 -20.644  0.00  0.00    -0.006 C 
ATOM     32  C   UNL     1      33.500 -19.948 -21.258  0.00  0.00    -0.006 C 
ATOM     33  C   UNL     1      35.119 -21.638 -19.741  0.00  0.00    +0.006 C 
ATOM     34  C   UNL     1      32.923 -20.841 -20.355  0.00  0.00    +0.006 C 
ATOM     35  C   UNL     1      33.733 -21.686 -19.595  0.00  0.00    +0.075 C 
BRANCH  35  37
ATOM     36  O   UNL     1      33.693 -23.599 -18.160  0.00  0.00    -0.245 OA
ATOM     37  C   UNL     1      33.132 -22.616 -18.654  0.00  0.00    +0.338 C 
BRANCH  37  38
ATOM     38  O   UNL     1      31.844 -22.292 -18.353  0.00  0.00    -0.477 OA
ATOM     39  H   UNL     1      31.634 -21.427 -18.060  0.00  0.00    +0.295 HD
ENDBRANCH  37  38
ENDBRANCH  35  37
ENDBRANCH  29  30
ENDBRANCH   2  29
TORSDOF 9
ENDMDL
MODEL 4
REMARK VINA RESULT:     -11.6      4.053      7.667
REMARK  Name = 68488178
REMARK  9 active torsions:
REMARK  status: ('A' for Active; 'I' for Inactive)
REMARK    1  A    between atoms: N_1  and  C_10
REMARK    2  A    between atoms: N_2  and  C_29
REMARK    3  A    between atoms: C_10  and  C_11
REMARK    4  A    between atoms: C_16  and  O_17
REMARK    5  A    between atoms: O_17  and  C_18
REMARK    6  A    between atoms: C_23  and  C_26
REMARK    7  A    between atoms: C_29  and  C_30
REMARK    8  A    between atoms: C_35  and  C_37
REMARK    9  A    between atoms: C_37  and  O_38
REMARK                            x       y       z     vdW  Elec       q    Type
REMARK                         _______ _______ _______ _____ _____    ______ ____
ROOT
ATOM      1  N   UNL     1      35.047 -17.728 -21.950  0.00  0.00    +0.388 N 
ATOM      2  N   UNL     1      34.978 -20.180 -20.596  0.00  0.00    +0.388 N 
ATOM      3  C   UNL     1      34.299 -18.901 -22.463  0.00  0.00    -0.081 C 
ATOM      4  C   UNL     1      36.059 -19.824 -21.548  0.00  0.00    -0.081 C 
ATOM      5  C   UNL     1      35.384 -19.867 -22.907  0.00  0.00    -0.046 C 
ATOM      6  C   UNL     1      36.292 -18.310 -21.390  0.00  0.00    -0.098 C 
ATOM      7  C   UNL     1      33.749 -19.637 -21.227  0.00  0.00    -0.098 C 
ATOM      8  H   UNL     1      34.511 -17.209 -21.253  0.00  0.00    -0.079 HD
ATOM      9  H   UNL     1      35.144 -19.791 -19.667  0.00  0.00    -0.079 HD
ENDROOT
BRANCH   1  10
ATOM     10  C   UNL     1      35.320 -16.740 -22.987  0.00  0.00    -0.050 C 
BRANCH  10  11
ATOM     11  C   UNL     1      34.436 -15.529 -22.855  0.00  0.00    -0.043 C 
ATOM     12  C   UNL     1      34.240 -14.942 -21.604  0.00  0.00    -0.003 C 
ATOM     13  C   UNL     1      33.813 -14.994 -23.982  0.00  0.00    -0.003 C 
ATOM     14  C   UNL     1      33.421 -13.819 -21.481  0.00  0.00    +0.037 C 
ATOM     15  C   UNL     1      32.993 -13.871 -23.860  0.00  0.00    +0.037 C 
ATOM     16  C   UNL     1      32.797 -13.284 -22.609  0.00  0.00    +0.145 C 
BRANCH  16  17
ATOM     17  O   UNL     1      31.997 -12.190 -22.489  0.00  0.00    -0.453 OA
BRANCH  17  18
ATOM     18  C   UNL     1      32.466 -10.991 -23.000  0.00  0.00    +0.145 C 
ATOM     19  C   UNL     1      31.936  -9.784 -22.544  0.00  0.00    +0.038 C 
ATOM     20  C   UNL     1      33.466 -10.990 -23.972  0.00  0.00    +0.038 C 
ATOM     21  C   UNL     1      32.405  -8.577 -23.061  0.00  0.00    +0.008 C 
ATOM     22  C   UNL     1      33.936  -9.783 -24.489  0.00  0.00    +0.008 C 
ATOM     23  C   UNL     1      33.406  -8.575 -24.033  0.00  0.00    +0.054 C 
BRANCH  23  26
ATOM     24  O   UNL     1      33.203  -6.221 -24.172  0.00  0.00    -0.431 OA
ATOM     25  N   UNL     1      34.899  -7.103 -25.380  0.00  0.00    -0.206 NA
ATOM     26  C   UNL     1      33.891  -7.326 -24.568  0.00  0.00    +0.230 C 
ATOM     27  C   UNL     1      33.848  -5.201 -24.803  0.00  0.00    +0.202 C 
ATOM     28  C   UNL     1      34.877  -5.741 -25.535  0.00  0.00    +0.143 C 
ENDBRANCH  23  26
ENDBRANCH  17  18
ENDBRANCH  16  17
ENDBRANCH  10  11
ENDBRANCH   1  10
BRANCH   2  29
ATOM     29  C   UNL     1      34.886 -21.617 -20.363  0.00  0.00    -0.050 C 
BRANCH  29  30
ATOM     30  C   UNL     1      35.286 -21.984 -18.959  0.00  0.00    -0.043 C 
ATOM     31  C   UNL     1      34.394 -22.674 -18.138  0.00  0.00    -0.006 C 
ATOM     32  C   UNL     1      36.548 -21.632 -18.478  0.00  0.00    -0.006 C 
ATOM     33  C   UNL     1      34.765 -23.013 -16.837  0.00  0.00    +0.006 C 
ATOM     34  C   UNL     1      36.918 -21.971 -17.177  0.00  0.00    +0.006 C 
ATOM     35  C   UNL     1      36.027 -22.663 -16.356  0.00  0.00    +0.075 C 
BRANCH  35  37
ATOM     36  O   UNL     1      37.561 -23.275 -14.626  0.00  0.00    -0.245 OA
ATOM     37  C   UNL     1      36.412 -23.016 -15.000  0.00  0.00    +0.338 C 
BRANCH  37  38
ATOM     38  O   UNL     1      35.352 -23.037 -14.146  0.00  0.00    -0.477 OA
ATOM     39  H   UNL     1      34.561 -23.475 -14.392  0.00  0.00    +0.295 HD
ENDBRANCH  37  38
ENDBRANCH  35  37
ENDBRANCH  29  30
ENDBRANCH   2  29
TORSDOF 9
ENDMDL
MODEL 5
REMARK VINA RESULT:     -11.4      2.903     12.426
REMARK  Name = 68488178
REMARK  9 active torsions:
REMARK  status: ('A' for Active; 'I' for Inactive)
REMARK    1  A    between atoms: N_1  and  C_10
REMARK    2  A    between atoms: N_2  and  C_29
REMARK    3  A    between atoms: C_10  and  C_11
REMARK    4  A    between atoms: C_16  and  O_17
REMARK    5  A    between atoms: O_17  and  C_18
REMARK    6  A    between atoms: C_23  and  C_26
REMARK    7  A    between atoms: C_29  and  C_30
REMARK    8  A    between atoms: C_35  and  C_37
REMARK    9  A    between atoms: C_37  and  O_38
REMARK                            x       y       z     vdW  Elec       q    Type
REMARK                         _______ _______ _______ _____ _____    ______ ____
ROOT
ATOM      1  N   UNL     1      34.757 -18.870 -21.879  0.00  0.00    +0.388 N 
ATOM      2  N   UNL     1      34.368 -16.342 -23.023  0.00  0.00    +0.388 N 
ATOM      3  C   UNL     1      35.764 -17.786 -21.779  0.00  0.00    -0.081 C 
ATOM      4  C   UNL     1      34.938 -17.482 -23.782  0.00  0.00    -0.081 C 
ATOM      5  C   UNL     1      36.322 -17.667 -23.185  0.00  0.00    -0.046 C 
ATOM      6  C   UNL     1      34.229 -18.746 -23.261  0.00  0.00    -0.098 C 
ATOM      7  C   UNL     1      34.971 -16.470 -21.673  0.00  0.00    -0.098 C 
ATOM      8  H   UNL     1      34.026 -18.778 -21.173  0.00  0.00    -0.079 HD
ATOM      9  H   UNL     1      33.347 -16.372 -22.998  0.00  0.00    -0.079 HD
ENDROOT
BRANCH   1  10
ATOM     10  C   UNL     1      35.325 -20.189 -21.625  0.00  0.00    -0.050 C 
BRANCH  10  11
ATOM     11  C   UNL     1      34.538 -20.949 -20.591  0.00  0.00    -0.043 C 
ATOM     12  C   UNL     1      35.168 -21.916 -19.807  0.00  0.00    -0.003 C 
ATOM     13  C   UNL     1      33.178 -20.687 -20.417  0.00  0.00    -0.003 C 
ATOM     14  C   UNL     1      34.439 -22.621 -18.849  0.00  0.00    +0.037 C 
ATOM     15  C   UNL     1      32.449 -21.392 -19.459  0.00  0.00    +0.037 C 
ATOM     16  C   UNL     1      33.080 -22.359 -18.675  0.00  0.00    +0.145 C 
BRANCH  16  17
ATOM     17  O   UNL     1      32.368 -23.047 -17.741  0.00  0.00    -0.453 OA
BRANCH  17  18
ATOM     18  C   UNL     1      32.981 -23.307 -16.527  0.00  0.00    +0.145 C 
ATOM     19  C   UNL     1      32.211 -23.651 -15.416  0.00  0.00    +0.038 C 
ATOM     20  C   UNL     1      34.369 -23.223 -16.414  0.00  0.00    +0.038 C 
ATOM     21  C   UNL     1      32.828 -23.909 -14.193  0.00  0.00    +0.008 C 
ATOM     22  C   UNL     1      34.986 -23.481 -15.191  0.00  0.00    +0.008 C 
ATOM     23  C   UNL     1      34.216 -23.825 -14.079  0.00  0.00    +0.054 C 
BRANCH  23  26
ATOM     24  O   UNL     1      35.941 -23.319 -12.539  0.00  0.00    -0.431 OA
ATOM     25  N   UNL     1      34.539 -24.971 -11.890  0.00  0.00    -0.206 NA
ATOM     26  C   UNL     1      34.855 -24.092 -12.814  0.00  0.00    +0.230 C 
ATOM     27  C   UNL     1      36.347 -23.763 -11.317  0.00  0.00    +0.202 C 
ATOM     28  C   UNL     1      35.493 -24.764 -10.927  0.00  0.00    +0.143 C 
ENDBRANCH  23  26
ENDBRANCH  17  18
ENDBRANCH  16  17
ENDBRANCH  10  11
ENDBRANCH   1  10
BRANCH   2  29
ATOM     29  C   UNL     1      34.665 -15.054 -23.638  0.00  0.00    -0.050 C 
BRANCH  29  30
ATOM     30  C   UNL     1      33.773 -13.962 -23.111  0.00  0.00    -0.043 C 
ATOM     31  C   UNL     1      33.087 -14.141 -21.909  0.00  0.00    -0.006 C 
ATOM     32  C   UNL     1      33.631 -12.771 -23.824  0.00  0.00    -0.006 C 
ATOM     33  C   UNL     1      32.260 -13.130 -21.422  0.00  0.00    +0.006 C 
ATOM     34  C   UNL     1      32.803 -11.761 -23.337  0.00  0.00    +0.006 C 
ATOM     35  C   UNL     1      32.118 -11.939 -22.134  0.00  0.00    +0.075 C 
BRANCH  35  37
ATOM     36  O   UNL     1      31.558  -9.690 -21.543  0.00  0.00    -0.245 OA
ATOM     37  C   UNL     1      31.256 -10.885 -21.625  0.00  0.00    +0.338 C 
BRANCH  37  38
ATOM     38  O   UNL     1      30.039 -11.352 -21.234  0.00  0.00    -0.477 OA
ATOM     39  H   UNL     1      29.573 -10.925 -20.542  0.00  0.00    +0.295 HD
ENDBRANCH  37  38
ENDBRANCH  35  37
ENDBRANCH  29  30
ENDBRANCH   2  29
TORSDOF 9
ENDMDL
MODEL 6
REMARK VINA RESULT:     -11.3      4.455      8.451
REMARK  Name = 68488178
REMARK  9 active torsions:
REMARK  status: ('A' for Active; 'I' for Inactive)
REMARK    1  A    between atoms: N_1  and  C_10
REMARK    2  A    between atoms: N_2  and  C_29
REMARK    3  A    between atoms: C_10  and  C_11
REMARK    4  A    between atoms: C_16  and  O_17
REMARK    5  A    between atoms: O_17  and  C_18
REMARK    6  A    between atoms: C_23  and  C_26
REMARK    7  A    between atoms: C_29  and  C_30
REMARK    8  A    between atoms: C_35  and  C_37
REMARK    9  A    between atoms: C_37  and  O_38
REMARK                            x       y       z     vdW  Elec       q    Type
REMARK                         _______ _______ _______ _____ _____    ______ ____
ROOT
ATOM      1  N   UNL     1      34.866 -17.457 -22.719  0.00  0.00    +0.388 N 
ATOM      2  N   UNL     1      35.280 -19.743 -21.152  0.00  0.00    +0.388 N 
ATOM      3  C   UNL     1      35.566 -18.660 -23.232  0.00  0.00    -0.081 C 
ATOM      4  C   UNL     1      36.213 -18.590 -21.144  0.00  0.00    -0.081 C 
ATOM      5  C   UNL     1      36.895 -18.657 -22.499  0.00  0.00    -0.046 C 
ATOM      6  C   UNL     1      35.346 -17.330 -21.320  0.00  0.00    -0.098 C 
ATOM      7  C   UNL     1      34.879 -19.872 -22.576  0.00  0.00    -0.098 C 
ATOM      8  H   UNL     1      33.852 -17.553 -22.777  0.00  0.00    -0.079 HD
ATOM      9  H   UNL     1      34.481 -19.592 -20.534  0.00  0.00    -0.079 HD
ENDROOT
BRANCH   1  10
ATOM     10  C   UNL     1      35.150 -16.264 -23.507  0.00  0.00    -0.050 C 
BRANCH  10  11
ATOM     11  C   UNL     1      34.228 -15.128 -23.157  0.00  0.00    -0.043 C 
ATOM     12  C   UNL     1      33.454 -14.526 -24.150  0.00  0.00    -0.003 C 
ATOM     13  C   UNL     1      34.146 -14.675 -21.840  0.00  0.00    -0.003 C 
ATOM     14  C   UNL     1      32.599 -13.473 -23.826  0.00  0.00    +0.037 C 
ATOM     15  C   UNL     1      33.291 -13.622 -21.516  0.00  0.00    +0.037 C 
ATOM     16  C   UNL     1      32.518 -13.021 -22.509  0.00  0.00    +0.145 C 
BRANCH  16  17
ATOM     17  O   UNL     1      31.684 -11.992 -22.193  0.00  0.00    -0.453 OA
BRANCH  17  18
ATOM     18  C   UNL     1      32.007 -10.732 -22.669  0.00  0.00    +0.145 C 
ATOM     19  C   UNL     1      33.071 -10.574 -23.557  0.00  0.00    +0.038 C 
ATOM     20  C   UNL     1      31.268  -9.622 -22.260  0.00  0.00    +0.038 C 
ATOM     21  C   UNL     1      33.397  -9.305 -24.034  0.00  0.00    +0.008 C 
ATOM     22  C   UNL     1      31.595  -8.353 -22.737  0.00  0.00    +0.008 C 
ATOM     23  C   UNL     1      32.660  -8.194 -23.625  0.00  0.00    +0.054 C 
BRANCH  23  26
ATOM     24  O   UNL     1      32.173  -5.879 -23.710  0.00  0.00    -0.431 OA
ATOM     25  N   UNL     1      33.986  -6.515 -24.904  0.00  0.00    -0.206 NA
ATOM     26  C   UNL     1      32.998  -6.881 -24.119  0.00  0.00    +0.230 C 
ATOM     27  C   UNL     1      32.700  -4.771 -24.302  0.00  0.00    +0.202 C 
ATOM     28  C   UNL     1      33.800  -5.162 -25.025  0.00  0.00    +0.143 C 
ENDBRANCH  23  26
ENDBRANCH  17  18
ENDBRANCH  16  17
ENDBRANCH  10  11
ENDBRANCH   1  10
BRANCH   2  29
ATOM     29  C   UNL     1      35.891 -20.965 -20.641  0.00  0.00    -0.050 C 
BRANCH  29  30
ATOM     30  C   UNL     1      35.038 -21.622 -19.590  0.00  0.00    -0.043 C 
ATOM     31  C   UNL     1      33.660 -21.732 -19.780  0.00  0.00    -0.006 C 
ATOM     32  C   UNL     1      35.624 -22.119 -18.426  0.00  0.00    -0.006 C 
ATOM     33  C   UNL     1      32.869 -22.340 -18.805  0.00  0.00    +0.006 C 
ATOM     34  C   UNL     1      34.833 -22.726 -17.451  0.00  0.00    +0.006 C 
ATOM     35  C   UNL     1      33.455 -22.839 -17.641  0.00  0.00    +0.075 C 
BRANCH  35  37
ATOM     36  O   UNL     1      31.395 -23.458 -16.594  0.00  0.00    -0.245 OA
ATOM     37  C   UNL     1      32.630 -23.473 -16.626  0.00  0.00    +0.338 C 
BRANCH  37  38
ATOM     38  O   UNL     1      33.370 -24.110 -15.678  0.00  0.00    -0.477 OA
ATOM     39  H   UNL     1      32.978 -24.352 -14.861  0.00  0.00    +0.295 HD
ENDBRANCH  37  38
ENDBRANCH  35  37
ENDBRANCH  29  30
ENDBRANCH   2  29
TORSDOF 9
ENDMDL
MODEL 7
REMARK VINA RESULT:     -11.3      3.629      6.437
REMARK  Name = 68488178
REMARK  9 active torsions:
REMARK  status: ('A' for Active; 'I' for Inactive)
REMARK    1  A    between atoms: N_1  and  C_10
REMARK    2  A    between atoms: N_2  and  C_29
REMARK    3  A    between atoms: C_10  and  C_11
REMARK    4  A    between atoms: C_16  and  O_17
REMARK    5  A    between atoms: O_17  and  C_18
REMARK    6  A    between atoms: C_23  and  C_26
REMARK    7  A    between atoms: C_29  and  C_30
REMARK    8  A    between atoms: C_35  and  C_37
REMARK    9  A    between atoms: C_37  and  O_38
REMARK                            x       y       z     vdW  Elec       q    Type
REMARK                         _______ _______ _______ _____ _____    ______ ____
ROOT
ATOM      1  N   UNL     1      35.506 -19.453 -20.740  0.00  0.00    +0.388 N 
ATOM      2  N   UNL     1      34.238 -21.574 -19.417  0.00  0.00    +0.388 N 
ATOM      3  C   UNL     1      34.505 -20.323 -21.404  0.00  0.00    -0.081 C 
ATOM      4  C   UNL     1      35.552 -21.723 -20.090  0.00  0.00    -0.081 C 
ATOM      5  C   UNL     1      35.220 -21.652 -21.570  0.00  0.00    -0.046 C 
ATOM      6  C   UNL     1      36.292 -20.387 -19.896  0.00  0.00    -0.098 C 
ATOM      7  C   UNL     1      33.468 -20.688 -20.326  0.00  0.00    -0.098 C 
ATOM      8  H   UNL     1      35.065 -18.712 -20.195  0.00  0.00    -0.079 HD
ATOM      9  H   UNL     1      34.332 -21.182 -18.479  0.00  0.00    -0.079 HD
ENDROOT
BRANCH   1  10
ATOM     10  C   UNL     1      36.344 -18.735 -21.692  0.00  0.00    -0.050 C 
BRANCH  10  11
ATOM     11  C   UNL     1      35.530 -17.871 -22.618  0.00  0.00    -0.043 C 
ATOM     12  C   UNL     1      35.219 -16.560 -22.255  0.00  0.00    -0.003 C 
ATOM     13  C   UNL     1      35.085 -18.382 -23.838  0.00  0.00    -0.003 C 
ATOM     14  C   UNL     1      34.464 -15.760 -23.113  0.00  0.00    +0.037 C 
ATOM     15  C   UNL     1      34.330 -17.582 -24.695  0.00  0.00    +0.037 C 
ATOM     16  C   UNL     1      34.020 -16.271 -24.333  0.00  0.00    +0.145 C 
BRANCH  16  17
ATOM     17  O   UNL     1      33.282 -15.490 -25.169  0.00  0.00    -0.453 OA
BRANCH  17  18
ATOM     18  C   UNL     1      33.456 -14.118 -25.090  0.00  0.00    +0.145 C 
ATOM     19  C   UNL     1      33.349 -13.472 -23.859  0.00  0.00    +0.038 C 
ATOM     20  C   UNL     1      33.738 -13.383 -26.241  0.00  0.00    +0.038 C 
ATOM     21  C   UNL     1      33.521 -12.090 -23.780  0.00  0.00    +0.008 C 
ATOM     22  C   UNL     1      33.910 -12.002 -26.162  0.00  0.00    +0.008 C 
ATOM     23  C   UNL     1      33.802 -11.354 -24.931  0.00  0.00    +0.054 C 
BRANCH  23  26
ATOM     24  O   UNL     1      35.124  -9.518 -24.235  0.00  0.00    -0.431 OA
ATOM     25  N   UNL     1      33.197  -8.962 -25.281  0.00  0.00    -0.206 NA
ATOM     26  C   UNL     1      33.980  -9.925 -24.849  0.00  0.00    +0.230 C 
ATOM     27  C   UNL     1      35.048  -8.159 -24.288  0.00  0.00    +0.202 C 
ATOM     28  C   UNL     1      33.878  -7.827 -24.924  0.00  0.00    +0.143 C 
ENDBRANCH  23  26
ENDBRANCH  17  18
ENDBRANCH  16  17
ENDBRANCH  10  11
ENDBRANCH   1  10
BRANCH   2  29
ATOM     29  C   UNL     1      33.570 -22.851 -19.199  0.00  0.00    -0.050 C 
BRANCH  29  30
ATOM     30  C   UNL     1      33.189 -23.045 -17.756  0.00  0.00    -0.043 C 
ATOM     31  C   UNL     1      34.179 -23.250 -16.794  0.00  0.00    -0.006 C 
ATOM     32  C   UNL     1      31.846 -23.020 -17.379  0.00  0.00    -0.006 C 
ATOM     33  C   UNL     1      33.826 -23.430 -15.458  0.00  0.00    +0.006 C 
ATOM     34  C   UNL     1      31.493 -23.201 -16.043  0.00  0.00    +0.006 C 
ATOM     35  C   UNL     1      32.483 -23.405 -15.080  0.00  0.00    +0.075 C 
BRANCH  35  37
ATOM     36  O   UNL     1      30.989 -23.890 -13.277  0.00  0.00    -0.245 OA
ATOM     37  C   UNL     1      32.115 -23.592 -13.687  0.00  0.00    +0.338 C 
BRANCH  37  38
ATOM     38  O   UNL     1      33.165 -23.403 -12.842  0.00  0.00    -0.477 OA
ATOM     39  H   UNL     1      33.281 -23.969 -12.103  0.00  0.00    +0.295 HD
ENDBRANCH  37  38
ENDBRANCH  35  37
ENDBRANCH  29  30
ENDBRANCH   2  29
TORSDOF 9
ENDMDL
MODEL 8
REMARK VINA RESULT:     -10.8      5.082     10.507
REMARK  Name = 68488178
REMARK  9 active torsions:
REMARK  status: ('A' for Active; 'I' for Inactive)
REMARK    1  A    between atoms: N_1  and  C_10
REMARK    2  A    between atoms: N_2  and  C_29
REMARK    3  A    between atoms: C_10  and  C_11
REMARK    4  A    between atoms: C_16  and  O_17
REMARK    5  A    between atoms: O_17  and  C_18
REMARK    6  A    between atoms: C_23  and  C_26
REMARK    7  A    between atoms: C_29  and  C_30
REMARK    8  A    between atoms: C_35  and  C_37
REMARK    9  A    between atoms: C_37  and  O_38
REMARK                            x       y       z     vdW  Elec       q    Type
REMARK                         _______ _______ _______ _____ _____    ______ ____
ROOT
ATOM      1  N   UNL     1      33.455 -15.687 -24.478  0.00  0.00    +0.388 N 
ATOM      2  N   UNL     1      34.635 -17.633 -22.843  0.00  0.00    +0.388 N 
ATOM      3  C   UNL     1      34.256 -16.809 -25.025  0.00  0.00    -0.081 C 
ATOM      4  C   UNL     1      35.301 -16.345 -23.160  0.00  0.00    -0.081 C 
ATOM      5  C   UNL     1      35.682 -16.477 -24.624  0.00  0.00    -0.046 C 
ATOM      6  C   UNL     1      34.184 -15.290 -23.247  0.00  0.00    -0.098 C 
ATOM      7  C   UNL     1      33.977 -18.021 -24.116  0.00  0.00    -0.098 C 
ATOM      8  H   UNL     1      32.491 -15.963 -24.288  0.00  0.00    -0.079 HD
ATOM      9  H   UNL     1      33.971 -17.539 -22.073  0.00  0.00    -0.079 HD
ENDROOT
BRANCH   1  10
ATOM     10  C   UNL     1      33.324 -14.581 -25.419  0.00  0.00    -0.050 C 
BRANCH  10  11
ATOM     11  C   UNL     1      33.261 -13.251 -24.716  0.00  0.00    -0.043 C 
ATOM     12  C   UNL     1      34.016 -12.177 -25.188  0.00  0.00    -0.003 C 
ATOM     13  C   UNL     1      32.448 -13.092 -23.593  0.00  0.00    -0.003 C 
ATOM     14  C   UNL     1      33.959 -10.944 -24.537  0.00  0.00    +0.037 C 
ATOM     15  C   UNL     1      32.390 -11.860 -22.943  0.00  0.00    +0.037 C 
ATOM     16  C   UNL     1      33.146 -10.786 -23.414  0.00  0.00    +0.145 C 
BRANCH  16  17
ATOM     17  O   UNL     1      33.090  -9.584 -22.778  0.00  0.00    -0.453 OA
BRANCH  17  18
ATOM     18  C   UNL     1      33.318  -8.445 -23.533  0.00  0.00    +0.145 C 
ATOM     19  C   UNL     1      32.288  -7.896 -24.296  0.00  0.00    +0.038 C 
ATOM     20  C   UNL     1      34.579  -7.848 -23.531  0.00  0.00    +0.038 C 
ATOM     21  C   UNL     1      32.518  -6.752 -25.059  0.00  0.00    +0.008 C 
ATOM     22  C   UNL     1      34.810  -6.704 -24.294  0.00  0.00    +0.008 C 
ATOM     23  C   UNL     1      33.779  -6.154 -25.058  0.00  0.00    +0.054 C 
BRANCH  23  26
ATOM     24  O   UNL     1      35.145  -5.001 -26.609  0.00  0.00    -0.431 OA
ATOM     25  N   UNL     1      33.305  -3.870 -25.936  0.00  0.00    -0.206 NA
ATOM     26  C   UNL     1      34.017  -4.971 -25.847  0.00  0.00    +0.230 C 
ATOM     27  C   UNL     1      35.136  -3.793 -27.238  0.00  0.00    +0.202 C 
ATOM     28  C   UNL     1      34.018  -3.111 -26.828  0.00  0.00    +0.143 C 
ENDBRANCH  23  26
ENDBRANCH  17  18
ENDBRANCH  16  17
ENDBRANCH  10  11
ENDBRANCH   1  10
BRANCH   2  29
ATOM     29  C   UNL     1      35.571 -18.649 -22.377  0.00  0.00    -0.050 C 
BRANCH  29  30
ATOM     30  C   UNL     1      34.906 -19.649 -21.468  0.00  0.00    -0.043 C 
ATOM     31  C   UNL     1      33.514 -19.710 -21.400  0.00  0.00    -0.006 C 
ATOM     32  C   UNL     1      35.682 -20.513 -20.694  0.00  0.00    -0.006 C 
ATOM     33  C   UNL     1      32.898 -20.636 -20.558  0.00  0.00    +0.006 C 
ATOM     34  C   UNL     1      35.065 -21.437 -19.852  0.00  0.00    +0.006 C 
ATOM     35  C   UNL     1      33.673 -21.500 -19.785  0.00  0.00    +0.075 C 
BRANCH  35  37
ATOM     36  O   UNL     1      31.909 -22.341 -18.406  0.00  0.00    -0.245 OA
ATOM     37  C   UNL     1      33.031 -22.465 -18.908  0.00  0.00    +0.338 C 
BRANCH  37  38
ATOM     38  O   UNL     1      33.807 -23.561 -18.682  0.00  0.00    -0.477 OA
ATOM     39  H   UNL     1      33.975 -23.843 -17.804  0.00  0.00    +0.295 HD
ENDBRANCH  37  38
ENDBRANCH  35  37
ENDBRANCH  29  30
ENDBRANCH   2  29
TORSDOF 9
ENDMDL
MODEL 9
REMARK VINA RESULT:     -10.8      6.461     16.508
REMARK  Name = 68488178
REMARK  9 active torsions:
REMARK  status: ('A' for Active; 'I' for Inactive)
REMARK    1  A    between atoms: N_1  and  C_10
REMARK    2  A    between atoms: N_2  and  C_29
REMARK    3  A    between atoms: C_10  and  C_11
REMARK    4  A    between atoms: C_16  and  O_17
REMARK    5  A    between atoms: O_17  and  C_18
REMARK    6  A    between atoms: C_23  and  C_26
REMARK    7  A    between atoms: C_29  and  C_30
REMARK    8  A    between atoms: C_35  and  C_37
REMARK    9  A    between atoms: C_37  and  O_38
REMARK                            x       y       z     vdW  Elec       q    Type
REMARK                         _______ _______ _______ _____ _____    ______ ____
ROOT
ATOM      1  N   UNL     1      32.601  -9.208 -22.978  0.00  0.00    +0.388 N 
ATOM      2  N   UNL     1      32.951  -6.503 -23.620  0.00  0.00    +0.388 N 
ATOM      3  C   UNL     1      31.666  -8.471 -23.862  0.00  0.00    -0.081 C 
ATOM      4  C   UNL     1      32.236  -6.948 -22.399  0.00  0.00    -0.081 C 
ATOM      5  C   UNL     1      30.934  -7.529 -22.923  0.00  0.00    -0.046 C 
ATOM      6  C   UNL     1      32.949  -8.226 -21.921  0.00  0.00    -0.098 C 
ATOM      7  C   UNL     1      32.523  -7.472 -24.661  0.00  0.00    -0.098 C 
ATOM      8  H   UNL     1      33.422  -9.543 -23.486  0.00  0.00    -0.079 HD
ATOM      9  H   UNL     1      33.963  -6.495 -23.488  0.00  0.00    -0.079 HD
ENDROOT
BRANCH   1  10
ATOM     10  C   UNL     1      32.013 -10.423 -22.427  0.00  0.00    -0.050 C 
BRANCH  10  11
ATOM     11  C   UNL     1      32.619 -11.663 -23.028  0.00  0.00    -0.043 C 
ATOM     12  C   UNL     1      32.275 -12.920 -22.528  0.00  0.00    -0.003 C 
ATOM     13  C   UNL     1      33.524 -11.556 -24.085  0.00  0.00    -0.003 C 
ATOM     14  C   UNL     1      32.837 -14.069 -23.084  0.00  0.00    +0.037 C 
ATOM     15  C   UNL     1      34.085 -12.705 -24.641  0.00  0.00    +0.037 C 
ATOM     16  C   UNL     1      33.742 -13.962 -24.141  0.00  0.00    +0.145 C 
BRANCH  16  17
ATOM     17  O   UNL     1      34.290 -15.083 -24.683  0.00  0.00    -0.453 OA
BRANCH  17  18
ATOM     18  C   UNL     1      34.495 -16.169 -23.848  0.00  0.00    +0.145 C 
ATOM     19  C   UNL     1      34.259 -17.462 -24.314  0.00  0.00    +0.038 C 
ATOM     20  C   UNL     1      34.936 -15.969 -22.540  0.00  0.00    +0.038 C 
ATOM     21  C   UNL     1      34.462 -18.555 -23.472  0.00  0.00    +0.008 C 
ATOM     22  C   UNL     1      35.139 -17.062 -21.697  0.00  0.00    +0.008 C 
ATOM     23  C   UNL     1      34.902 -18.356 -22.164  0.00  0.00    +0.054 C 
BRANCH  23  26
ATOM     24  O   UNL     1      33.996 -20.210 -21.005  0.00  0.00    -0.431 OA
ATOM     25  N   UNL     1      36.222 -19.916 -20.738  0.00  0.00    -0.206 NA
ATOM     26  C   UNL     1      35.112 -19.486 -21.293  0.00  0.00    +0.230 C 
ATOM     27  C   UNL     1      34.457 -21.195 -20.185  0.00  0.00    +0.202 C 
ATOM     28  C   UNL     1      35.808 -21.013 -20.026  0.00  0.00    +0.143 C 
ENDBRANCH  23  26
ENDBRANCH  17  18
ENDBRANCH  16  17
ENDBRANCH  10  11
ENDBRANCH   1  10
BRANCH   2  29
ATOM     29  C   UNL     1      32.634  -5.128 -23.987  0.00  0.00    -0.050 C 
BRANCH  29  30
ATOM     30  C   UNL     1      33.264  -4.738 -25.298  0.00  0.00    -0.043 C 
ATOM     31  C   UNL     1      34.585  -5.095 -25.569  0.00  0.00    -0.006 C 
ATOM     32  C   UNL     1      32.527  -4.019 -26.240  0.00  0.00    -0.006 C 
ATOM     33  C   UNL     1      35.168  -4.733 -26.783  0.00  0.00    +0.006 C 
ATOM     34  C   UNL     1      33.111  -3.657 -27.453  0.00  0.00    +0.006 C 
ATOM     35  C   UNL     1      34.432  -4.015 -27.726  0.00  0.00    +0.075 C 
BRANCH  35  37
ATOM     36  O   UNL     1      35.312  -4.412 -29.914  0.00  0.00    -0.245 OA
ATOM     37  C   UNL     1      35.041  -3.638 -28.991  0.00  0.00    +0.338 C 
BRANCH  37  38
ATOM     38  O   UNL     1      35.295  -2.303 -29.069  0.00  0.00    -0.477 OA
ATOM     39  H   UNL     1      36.163  -2.001 -29.253  0.00  0.00    +0.295 HD
ENDBRANCH  37  38
ENDBRANCH  35  37
ENDBRANCH  29  30
ENDBRANCH   2  29
TORSDOF 9
ENDMDL
