MODEL 1
REMARK VINA RESULT:     -11.1      0.000      0.000
REMARK  Name = 11691242
REMARK  5 active torsions:
REMARK  status: ('A' for Active; 'I' for Inactive)
REMARK    1  A    between atoms: N_1  and  C_25
REMARK    2  A    between atoms: C_5  and  N_11
REMARK    3  A    between atoms: N_12  and  C_17
REMARK    4  A    between atoms: C_18  and  O_23
REMARK    5  A    between atoms: C_25  and  C_28
REMARK                            x       y       z     vdW  Elec       q    Type
REMARK                         _______ _______ _______ _____ _____    ______ ____
ROOT
ATOM      1  N   UNL     1      35.258 -17.075 -22.248  0.00  0.00    -0.282 N 
ATOM      2  C   UNL     1      34.720 -16.354 -23.289  0.00  0.00    +0.053 C 
ATOM      3  C   UNL     1      34.043 -15.267 -22.729  0.00  0.00    +0.028 C 
ATOM      4  C   UNL     1      34.946 -16.485 -21.053  0.00  0.00    +0.066 C 
ATOM      5  C   UNL     1      33.393 -14.358 -23.587  0.00  0.00    +0.053 C 
ATOM      6  C   UNL     1      34.194 -15.364 -21.317  0.00  0.00    +0.019 C 
ATOM      7  C   UNL     1      34.779 -16.577 -24.669  0.00  0.00    +0.015 C 
ATOM      8  C   UNL     1      33.443 -14.568 -24.970  0.00  0.00    +0.015 C 
ATOM      9  C   UNL     1      34.126 -15.661 -25.501  0.00  0.00    +0.003 C 
ENDROOT
BRANCH   5  11
ATOM     10  O   UNL     1      33.923 -11.436 -23.911  0.00  0.00    -0.252 OA
ATOM     11  N   UNL     1      32.703 -13.256 -23.080  0.00  0.00    -0.268 N 
ATOM     12  N   UNL     1      32.035 -11.105 -22.571  0.00  0.00    -0.266 N 
ATOM     13  C   UNL     1      32.985 -11.880 -23.256  0.00  0.00    +0.308 C 
ATOM     14  H   UNL     1      31.914 -13.463 -22.527  0.00  0.00    +0.156 HD
ATOM     15  H   UNL     1      31.338 -11.603 -22.088  0.00  0.00    +0.157 HD
BRANCH  12  17
ATOM     16 BR   UNL     1      31.694  -6.558 -25.194  0.00  0.00    -0.049 Br
ATOM     17  C   UNL     1      31.956  -9.694 -22.492  0.00  0.00    +0.086 C 
ATOM     18  C   UNL     1      31.961  -9.069 -21.254  0.00  0.00    +0.152 C 
ATOM     19  C   UNL     1      31.875  -8.964 -23.667  0.00  0.00    +0.024 C 
ATOM     20  C   UNL     1      31.882  -7.678 -21.191  0.00  0.00    +0.039 C 
ATOM     21  C   UNL     1      31.798  -7.572 -23.603  0.00  0.00    +0.036 C 
ATOM     22  C   UNL     1      31.801  -6.930 -22.366  0.00  0.00    +0.010 C 
BRANCH  18  23
ATOM     23  O   UNL     1      32.041  -9.783 -20.096  0.00  0.00    -0.470 OA
ATOM     24  C   UNL     1      30.819 -10.036 -19.405  0.00  0.00    +0.253 C 
ENDBRANCH  18  23
ENDBRANCH  12  17
ENDBRANCH   5  11
BRANCH   1  25
ATOM     25  C   UNL     1      36.039 -18.287 -22.380  0.00  0.00    +0.122 C 
BRANCH  25  28
ATOM     26  N   UNL     1      34.531 -21.407 -19.859  0.00  0.00    -0.230 NA
ATOM     27  N   UNL     1      32.319 -20.909 -20.589  0.00  0.00    -0.343 N 
ATOM     28  C   UNL     1      35.509 -19.381 -21.494  0.00  0.00    +0.002 C 
ATOM     29  C   UNL     1      34.149 -19.633 -21.455  0.00  0.00    +0.031 C 
ATOM     30  C   UNL     1      36.388 -20.126 -20.728  0.00  0.00    +0.018 C 
ATOM     31  C   UNL     1      33.712 -20.653 -20.625  0.00  0.00    +0.125 C 
ATOM     32  C   UNL     1      35.851 -21.124 -19.930  0.00  0.00    +0.100 C 
ATOM     33  H   UNL     1      31.965 -21.624 -20.013  0.00  0.00    +0.144 HD
ATOM     34  H   UNL     1      31.705 -20.371 -21.141  0.00  0.00    +0.144 HD
ENDBRANCH  25  28
ENDBRANCH   1  25
TORSDOF 5
ENDMDL
MODEL 2
REMARK VINA RESULT:     -10.9      0.485      1.218
REMARK  Name = 11691242
REMARK  5 active torsions:
REMARK  status: ('A' for Active; 'I' for Inactive)
REMARK    1  A    between atoms: N_1  and  C_25
REMARK    2  A    between atoms: C_5  and  N_11
REMARK    3  A    between atoms: N_12  and  C_17
REMARK    4  A    between atoms: C_18  and  O_23
REMARK    5  A    between atoms: C_25  and  C_28
REMARK                            x       y       z     vdW  Elec       q    Type
REMARK                         _______ _______ _______ _____ _____    ______ ____
ROOT
ATOM      1  N   UNL     1      35.165 -16.974 -22.356  0.00  0.00    -0.282 N 
ATOM      2  C   UNL     1      34.605 -16.248 -23.383  0.00  0.00    +0.053 C 
ATOM      3  C   UNL     1      34.013 -15.119 -22.812  0.00  0.00    +0.028 C 
ATOM      4  C   UNL     1      34.947 -16.346 -21.160  0.00  0.00    +0.066 C 
ATOM      5  C   UNL     1      33.361 -14.196 -23.654  0.00  0.00    +0.053 C 
ATOM      6  C   UNL     1      34.236 -15.195 -21.408  0.00  0.00    +0.019 C 
ATOM      7  C   UNL     1      34.579 -16.500 -24.758  0.00  0.00    +0.015 C 
ATOM      8  C   UNL     1      33.326 -14.436 -25.033  0.00  0.00    +0.015 C 
ATOM      9  C   UNL     1      33.926 -15.570 -25.575  0.00  0.00    +0.003 C 
ENDROOT
BRANCH   5  11
ATOM     10  O   UNL     1      33.949 -11.309 -24.147  0.00  0.00    -0.252 OA
ATOM     11  N   UNL     1      32.752 -13.052 -23.136  0.00  0.00    -0.268 N 
ATOM     12  N   UNL     1      32.199 -10.860 -22.663  0.00  0.00    -0.266 N 
ATOM     13  C   UNL     1      33.059 -11.694 -23.394  0.00  0.00    +0.308 C 
ATOM     14  H   UNL     1      32.011 -13.209 -22.507  0.00  0.00    +0.156 HD
ATOM     15  H   UNL     1      31.533 -11.315 -22.099  0.00  0.00    +0.157 HD
BRANCH  12  17
ATOM     16 BR   UNL     1      31.914  -6.409 -25.451  0.00  0.00    -0.049 Br
ATOM     17  C   UNL     1      32.170  -9.446 -22.636  0.00  0.00    +0.086 C 
ATOM     18  C   UNL     1      32.242  -8.774 -21.426  0.00  0.00    +0.152 C 
ATOM     19  C   UNL     1      32.071  -8.759 -23.836  0.00  0.00    +0.024 C 
ATOM     20  C   UNL     1      32.212  -7.380 -21.416  0.00  0.00    +0.039 C 
ATOM     21  C   UNL     1      32.042  -7.364 -23.825  0.00  0.00    +0.036 C 
ATOM     22  C   UNL     1      32.112  -6.675 -22.615  0.00  0.00    +0.010 C 
BRANCH  18  23
ATOM     23  O   UNL     1      32.341  -9.445 -20.244  0.00  0.00    -0.470 OA
ATOM     24  C   UNL     1      31.133  -9.651 -19.513  0.00  0.00    +0.253 C 
ENDBRANCH  18  23
ENDBRANCH  12  17
ENDBRANCH   5  11
BRANCH   1  25
ATOM     25  C   UNL     1      35.879 -18.224 -22.502  0.00  0.00    +0.122 C 
BRANCH  25  28
ATOM     26  N   UNL     1      34.228 -21.271 -19.979  0.00  0.00    -0.230 NA
ATOM     27  N   UNL     1      36.407 -21.731 -19.134  0.00  0.00    -0.343 N 
ATOM     28  C   UNL     1      35.300 -19.294 -21.617  0.00  0.00    +0.002 C 
ATOM     29  C   UNL     1      36.133 -20.019 -20.783  0.00  0.00    +0.031 C 
ATOM     30  C   UNL     1      33.940 -19.542 -21.645  0.00  0.00    +0.018 C 
ATOM     31  C   UNL     1      35.551 -20.991 -19.987  0.00  0.00    +0.125 C 
ATOM     32  C   UNL     1      33.455 -20.537 -20.811  0.00  0.00    +0.100 C 
ATOM     33  H   UNL     1      36.036 -22.431 -18.551  0.00  0.00    +0.144 HD
ATOM     34  H   UNL     1      37.374 -21.542 -19.123  0.00  0.00    +0.144 HD
ENDBRANCH  25  28
ENDBRANCH   1  25
TORSDOF 5
ENDMDL
MODEL 3
REMARK VINA RESULT:     -10.9      5.573      9.435
REMARK  Name = 11691242
REMARK  5 active torsions:
REMARK  status: ('A' for Active; 'I' for Inactive)
REMARK    1  A    between atoms: N_1  and  C_25
REMARK    2  A    between atoms: C_5  and  N_11
REMARK    3  A    between atoms: N_12  and  C_17
REMARK    4  A    between atoms: C_18  and  O_23
REMARK    5  A    between atoms: C_25  and  C_28
REMARK                            x       y       z     vdW  Elec       q    Type
REMARK                         _______ _______ _______ _____ _____    ______ ____
ROOT
ATOM      1  N   UNL     1      36.153 -22.766 -15.816  0.00  0.00    -0.282 N 
ATOM      2  C   UNL     1      35.259 -22.785 -16.862  0.00  0.00    +0.053 C 
ATOM      3  C   UNL     1      35.735 -21.895 -17.827  0.00  0.00    +0.028 C 
ATOM      4  C   UNL     1      37.176 -21.896 -16.085  0.00  0.00    +0.066 C 
ATOM      5  C   UNL     1      34.997 -21.722 -19.014  0.00  0.00    +0.053 C 
ATOM      6  C   UNL     1      36.945 -21.340 -17.322  0.00  0.00    +0.019 C 
ATOM      7  C   UNL     1      34.077 -23.515 -17.027  0.00  0.00    +0.015 C 
ATOM      8  C   UNL     1      33.812 -22.445 -19.193  0.00  0.00    +0.015 C 
ATOM      9  C   UNL     1      33.361 -23.328 -18.214  0.00  0.00    +0.003 C 
ENDROOT
BRANCH   5  11
ATOM     10  O   UNL     1      33.427 -19.927 -20.813  0.00  0.00    -0.252 OA
ATOM     11  N   UNL     1      35.428 -20.844 -20.011  0.00  0.00    -0.268 N 
ATOM     12  N   UNL     1      35.488 -19.285 -21.713  0.00  0.00    -0.266 N 
ATOM     13  C   UNL     1      34.651 -20.006 -20.846  0.00  0.00    +0.308 C 
ATOM     14  H   UNL     1      36.402 -20.802 -20.152  0.00  0.00    +0.156 HD
ATOM     15  H   UNL     1      36.453 -19.455 -21.622  0.00  0.00    +0.157 HD
BRANCH  12  17
ATOM     16 BR   UNL     1      34.420 -14.255 -22.822  0.00  0.00    -0.049 Br
ATOM     17  C   UNL     1      35.114 -18.343 -22.701  0.00  0.00    +0.086 C 
ATOM     18  C   UNL     1      34.888 -18.758 -24.004  0.00  0.00    +0.152 C 
ATOM     19  C   UNL     1      34.981 -17.013 -22.336  0.00  0.00    +0.024 C 
ATOM     20  C   UNL     1      34.521 -17.819 -24.966  0.00  0.00    +0.039 C 
ATOM     21  C   UNL     1      34.613 -16.073 -23.299  0.00  0.00    +0.036 C 
ATOM     22  C   UNL     1      34.384 -16.476 -24.614  0.00  0.00    +0.010 C 
BRANCH  18  23
ATOM     23  O   UNL     1      35.017 -20.066 -24.367  0.00  0.00    -0.470 OA
ATOM     24  C   UNL     1      34.266 -20.501 -25.500  0.00  0.00    +0.253 C 
ENDBRANCH  18  23
ENDBRANCH  12  17
ENDBRANCH   5  11
BRANCH   1  25
ATOM     25  C   UNL     1      36.042 -23.543 -14.600  0.00  0.00    +0.122 C 
BRANCH  25  28
ATOM     26  N   UNL     1      38.149 -27.261 -14.915  0.00  0.00    -0.230 NA
ATOM     27  N   UNL     1      40.148 -26.171 -14.216  0.00  0.00    -0.343 N 
ATOM     28  C   UNL     1      36.782 -24.847 -14.711  0.00  0.00    +0.002 C 
ATOM     29  C   UNL     1      38.131 -24.898 -14.409  0.00  0.00    +0.031 C 
ATOM     30  C   UNL     1      36.105 -25.985 -15.113  0.00  0.00    +0.018 C 
ATOM     31  C   UNL     1      38.766 -26.123 -14.526  0.00  0.00    +0.125 C 
ATOM     32  C   UNL     1      36.831 -27.162 -15.199  0.00  0.00    +0.100 C 
ATOM     33  H   UNL     1      40.638 -27.022 -14.284  0.00  0.00    +0.144 HD
ATOM     34  H   UNL     1      40.617 -25.354 -13.929  0.00  0.00    +0.144 HD
ENDBRANCH  25  28
ENDBRANCH   1  25
TORSDOF 5
ENDMDL
MODEL 4
REMARK VINA RESULT:     -10.0      2.128      3.107
REMARK  Name = 11691242
REMARK  5 active torsions:
REMARK  status: ('A' for Active; 'I' for Inactive)
REMARK    1  A    between atoms: N_1  and  C_25
REMARK    2  A    between atoms: C_5  and  N_11
REMARK    3  A    between atoms: N_12  and  C_17
REMARK    4  A    between atoms: C_18  and  O_23
REMARK    5  A    between atoms: C_25  and  C_28
REMARK                            x       y       z     vdW  Elec       q    Type
REMARK                         _______ _______ _______ _____ _____    ______ ____
ROOT
ATOM      1  N   UNL     1      35.130 -18.430 -22.202  0.00  0.00    -0.282 N 
ATOM      2  C   UNL     1      34.676 -17.727 -23.294  0.00  0.00    +0.053 C 
ATOM      3  C   UNL     1      34.679 -16.375 -22.944  0.00  0.00    +0.028 C 
ATOM      4  C   UNL     1      35.419 -17.572 -21.175  0.00  0.00    +0.066 C 
ATOM      5  C   UNL     1      34.253 -15.426 -23.894  0.00  0.00    +0.053 C 
ATOM      6  C   UNL     1      35.150 -16.292 -21.603  0.00  0.00    +0.019 C 
ATOM      7  C   UNL     1      34.267 -18.179 -24.553  0.00  0.00    +0.015 C 
ATOM      8  C   UNL     1      33.841 -15.864 -25.158  0.00  0.00    +0.015 C 
ATOM      9  C   UNL     1      33.849 -17.219 -25.481  0.00  0.00    +0.003 C 
ENDROOT
BRANCH   5  11
ATOM     10  O   UNL     1      33.331 -13.106 -25.533  0.00  0.00    -0.252 OA
ATOM     11  N   UNL     1      34.236 -14.063 -23.596  0.00  0.00    -0.268 N 
ATOM     12  N   UNL     1      33.951 -11.774 -23.713  0.00  0.00    -0.266 N 
ATOM     13  C   UNL     1      33.790 -12.987 -24.401  0.00  0.00    +0.308 C 
ATOM     14  H   UNL     1      34.581 -13.815 -22.707  0.00  0.00    +0.156 HD
ATOM     15  H   UNL     1      34.334 -11.838 -22.809  0.00  0.00    +0.157 HD
BRANCH  12  17
ATOM     16 BR   UNL     1      30.875  -7.549 -23.122  0.00  0.00    -0.049 Br
ATOM     17  C   UNL     1      33.630 -10.470 -24.160  0.00  0.00    +0.086 C 
ATOM     18  C   UNL     1      34.338  -9.904 -25.209  0.00  0.00    +0.152 C 
ATOM     19  C   UNL     1      32.603  -9.784 -23.531  0.00  0.00    +0.024 C 
ATOM     20  C   UNL     1      34.011  -8.618 -25.638  0.00  0.00    +0.039 C 
ATOM     21  C   UNL     1      32.276  -8.498 -23.961  0.00  0.00    +0.036 C 
ATOM     22  C   UNL     1      32.980  -7.915 -25.014  0.00  0.00    +0.010 C 
BRANCH  18  23
ATOM     23  O   UNL     1      35.348 -10.575 -25.831  0.00  0.00    -0.470 OA
ATOM     24  C   UNL     1      35.249 -10.727 -27.246  0.00  0.00    +0.253 C 
ENDBRANCH  18  23
ENDBRANCH  12  17
ENDBRANCH   5  11
BRANCH   1  25
ATOM     25  C   UNL     1      35.282 -19.867 -22.130  0.00  0.00    +0.122 C 
BRANCH  25  28
ATOM     26  N   UNL     1      32.644 -21.574 -19.215  0.00  0.00    -0.230 NA
ATOM     27  N   UNL     1      34.478 -22.768 -18.275  0.00  0.00    -0.343 N 
ATOM     28  C   UNL     1      34.356 -20.467 -21.107  0.00  0.00    +0.002 C 
ATOM     29  C   UNL     1      34.856 -21.346 -20.162  0.00  0.00    +0.031 C 
ATOM     30  C   UNL     1      33.014 -20.133 -21.121  0.00  0.00    +0.018 C 
ATOM     31  C   UNL     1      33.963 -21.869 -19.242  0.00  0.00    +0.125 C 
ATOM     32  C   UNL     1      32.203 -20.711 -20.158  0.00  0.00    +0.100 C 
ATOM     33  H   UNL     1      33.879 -23.163 -17.602  0.00  0.00    +0.144 HD
ATOM     34  H   UNL     1      35.436 -22.996 -18.277  0.00  0.00    +0.144 HD
ENDBRANCH  25  28
ENDBRANCH   1  25
TORSDOF 5
ENDMDL
MODEL 5
REMARK VINA RESULT:      -9.7      6.741     11.574
REMARK  Name = 11691242
REMARK  5 active torsions:
REMARK  status: ('A' for Active; 'I' for Inactive)
REMARK    1  A    between atoms: N_1  and  C_25
REMARK    2  A    between atoms: C_5  and  N_11
REMARK    3  A    between atoms: N_12  and  C_17
REMARK    4  A    between atoms: C_18  and  O_23
REMARK    5  A    between atoms: C_25  and  C_28
REMARK                            x       y       z     vdW  Elec       q    Type
REMARK                         _______ _______ _______ _____ _____    ______ ____
ROOT
ATOM      1  N   UNL     1      34.768 -19.359 -22.083  0.00  0.00    -0.282 N 
ATOM      2  C   UNL     1      35.040 -20.224 -21.048  0.00  0.00    +0.053 C 
ATOM      3  C   UNL     1      33.815 -20.722 -20.597  0.00  0.00    +0.028 C 
ATOM      4  C   UNL     1      33.419 -19.292 -22.301  0.00  0.00    +0.066 C 
ATOM      5  C   UNL     1      33.808 -21.640 -19.528  0.00  0.00    +0.053 C 
ATOM      6  C   UNL     1      32.801 -20.124 -21.397  0.00  0.00    +0.019 C 
ATOM      7  C   UNL     1      36.262 -20.601 -20.483  0.00  0.00    +0.015 C 
ATOM      8  C   UNL     1      35.024 -22.027 -18.952  0.00  0.00    +0.015 C 
ATOM      9  C   UNL     1      36.231 -21.514 -19.424  0.00  0.00    +0.003 C 
ENDROOT
BRANCH   5  11
ATOM     10  O   UNL     1      33.203 -22.924 -16.900  0.00  0.00    -0.252 OA
ATOM     11  N   UNL     1      32.613 -22.169 -19.038  0.00  0.00    -0.268 N 
ATOM     12  N   UNL     1      31.018 -23.166 -17.699  0.00  0.00    -0.266 N 
ATOM     13  C   UNL     1      32.363 -22.772 -17.782  0.00  0.00    +0.308 C 
ATOM     14  H   UNL     1      31.841 -22.115 -19.647  0.00  0.00    +0.156 HD
ATOM     15  H   UNL     1      30.463 -22.977 -18.489  0.00  0.00    +0.157 HD
BRANCH  12  17
ATOM     16 BR   UNL     1      31.495 -25.426 -12.973  0.00  0.00    -0.049 Br
ATOM     17  C   UNL     1      30.363 -23.803 -16.618  0.00  0.00    +0.086 C 
ATOM     18  C   UNL     1      28.991 -24.000 -16.660  0.00  0.00    +0.152 C 
ATOM     19  C   UNL     1      31.117 -24.217 -15.533  0.00  0.00    +0.024 C 
ATOM     20  C   UNL     1      28.359 -24.628 -15.588  0.00  0.00    +0.039 C 
ATOM     21  C   UNL     1      30.484 -24.846 -14.460  0.00  0.00    +0.036 C 
ATOM     22  C   UNL     1      29.105 -25.051 -14.488  0.00  0.00    +0.010 C 
BRANCH  18  23
ATOM     23  O   UNL     1      28.245 -23.595 -17.726  0.00  0.00    -0.470 OA
ATOM     24  C   UNL     1      27.156 -22.714 -17.458  0.00  0.00    +0.253 C 
ENDBRANCH  18  23
ENDBRANCH  12  17
ENDBRANCH   5  11
BRANCH   1  25
ATOM     25  C   UNL     1      35.754 -18.616 -22.839  0.00  0.00    +0.122 C 
BRANCH  25  28
ATOM     26  N   UNL     1      34.165 -14.898 -24.262  0.00  0.00    -0.230 NA
ATOM     27  N   UNL     1      34.239 -14.034 -22.043  0.00  0.00    -0.343 N 
ATOM     28  C   UNL     1      35.195 -17.311 -23.338  0.00  0.00    +0.002 C 
ATOM     29  C   UNL     1      34.976 -16.275 -22.448  0.00  0.00    +0.031 C 
ATOM     30  C   UNL     1      34.908 -17.160 -24.682  0.00  0.00    +0.018 C 
ATOM     31  C   UNL     1      34.462 -15.094 -22.957  0.00  0.00    +0.125 C 
ATOM     32  C   UNL     1      34.397 -15.939 -25.092  0.00  0.00    +0.100 C 
ATOM     33  H   UNL     1      33.875 -13.178 -22.362  0.00  0.00    +0.144 HD
ATOM     34  H   UNL     1      34.449 -14.156 -21.088  0.00  0.00    +0.144 HD
ENDBRANCH  25  28
ENDBRANCH   1  25
TORSDOF 5
ENDMDL
MODEL 6
REMARK VINA RESULT:      -9.5      1.452      2.012
REMARK  Name = 11691242
REMARK  5 active torsions:
REMARK  status: ('A' for Active; 'I' for Inactive)
REMARK    1  A    between atoms: N_1  and  C_25
REMARK    2  A    between atoms: C_5  and  N_11
REMARK    3  A    between atoms: N_12  and  C_17
REMARK    4  A    between atoms: C_18  and  O_23
REMARK    5  A    between atoms: C_25  and  C_28
REMARK                            x       y       z     vdW  Elec       q    Type
REMARK                         _______ _______ _______ _____ _____    ______ ____
ROOT
ATOM      1  N   UNL     1      35.159 -18.462 -22.087  0.00  0.00    -0.282 N 
ATOM      2  C   UNL     1      34.770 -17.771 -23.212  0.00  0.00    +0.053 C 
ATOM      3  C   UNL     1      34.732 -16.417 -22.871  0.00  0.00    +0.028 C 
ATOM      4  C   UNL     1      35.367 -17.595 -21.049  0.00  0.00    +0.066 C 
ATOM      5  C   UNL     1      34.358 -15.479 -23.853  0.00  0.00    +0.053 C 
ATOM      6  C   UNL     1      35.110 -16.321 -21.501  0.00  0.00    +0.019 C 
ATOM      7  C   UNL     1      34.452 -18.235 -24.493  0.00  0.00    +0.015 C 
ATOM      8  C   UNL     1      34.037 -15.929 -25.139  0.00  0.00    +0.015 C 
ATOM      9  C   UNL     1      34.084 -17.286 -25.453  0.00  0.00    +0.003 C 
ENDROOT
BRANCH   5  11
ATOM     10  O   UNL     1      32.065 -13.570 -23.994  0.00  0.00    -0.252 OA
ATOM     11  N   UNL     1      34.303 -14.115 -23.565  0.00  0.00    -0.268 N 
ATOM     12  N   UNL     1      33.577 -11.943 -23.263  0.00  0.00    -0.266 N 
ATOM     13  C   UNL     1      33.193 -13.239 -23.643  0.00  0.00    +0.308 C 
ATOM     14  H   UNL     1      35.148 -13.706 -23.267  0.00  0.00    +0.156 HD
ATOM     15  H   UNL     1      34.521 -11.830 -23.007  0.00  0.00    +0.157 HD
BRANCH  12  17
ATOM     16 BR   UNL     1      32.502  -7.223 -25.321  0.00  0.00    -0.049 Br
ATOM     17  C   UNL     1      32.775 -10.779 -23.203  0.00  0.00    +0.086 C 
ATOM     18  C   UNL     1      31.790 -10.667 -22.233  0.00  0.00    +0.152 C 
ATOM     19  C   UNL     1      32.996  -9.769 -24.125  0.00  0.00    +0.024 C 
ATOM     20  C   UNL     1      31.006  -9.515 -22.186  0.00  0.00    +0.039 C 
ATOM     21  C   UNL     1      32.212  -8.616 -24.077  0.00  0.00    +0.036 C 
ATOM     22  C   UNL     1      31.217  -8.489 -23.108  0.00  0.00    +0.010 C 
BRANCH  18  23
ATOM     23  O   UNL     1      31.570 -11.657 -21.324  0.00  0.00    -0.470 OA
ATOM     24  C   UNL     1      31.666 -11.304 -19.945  0.00  0.00    +0.253 C 
ENDBRANCH  18  23
ENDBRANCH  12  17
ENDBRANCH   5  11
BRANCH   1  25
ATOM     25  C   UNL     1      35.324 -19.897 -21.997  0.00  0.00    +0.122 C 
BRANCH  25  28
ATOM     26  N   UNL     1      32.556 -21.617 -19.214  0.00  0.00    -0.230 NA
ATOM     27  N   UNL     1      34.343 -22.828 -18.207  0.00  0.00    -0.343 N 
ATOM     28  C   UNL     1      34.353 -20.502 -21.020  0.00  0.00    +0.002 C 
ATOM     29  C   UNL     1      34.808 -21.391 -20.063  0.00  0.00    +0.031 C 
ATOM     30  C   UNL     1      33.014 -20.161 -21.089  0.00  0.00    +0.018 C 
ATOM     31  C   UNL     1      33.873 -21.918 -19.187  0.00  0.00    +0.125 C 
ATOM     32  C   UNL     1      32.159 -20.744 -20.167  0.00  0.00    +0.100 C 
ATOM     33  H   UNL     1      33.713 -23.226 -17.564  0.00  0.00    +0.144 HD
ATOM     34  H   UNL     1      35.299 -23.060 -18.169  0.00  0.00    +0.144 HD
ENDBRANCH  25  28
ENDBRANCH   1  25
TORSDOF 5
ENDMDL
MODEL 7
REMARK VINA RESULT:      -9.2      1.654      2.302
REMARK  Name = 11691242
REMARK  5 active torsions:
REMARK  status: ('A' for Active; 'I' for Inactive)
REMARK    1  A    between atoms: N_1  and  C_25
REMARK    2  A    between atoms: C_5  and  N_11
REMARK    3  A    between atoms: N_12  and  C_17
REMARK    4  A    between atoms: C_18  and  O_23
REMARK    5  A    between atoms: C_25  and  C_28
REMARK                            x       y       z     vdW  Elec       q    Type
REMARK                         _______ _______ _______ _____ _____    ______ ____
ROOT
ATOM      1  N   UNL     1      35.409 -17.421 -22.260  0.00  0.00    -0.282 N 
ATOM      2  C   UNL     1      34.834 -16.875 -23.385  0.00  0.00    +0.053 C 
ATOM      3  C   UNL     1      34.251 -15.664 -23.003  0.00  0.00    +0.028 C 
ATOM      4  C   UNL     1      35.210 -16.601 -21.182  0.00  0.00    +0.066 C 
ATOM      5  C   UNL     1      33.587 -14.893 -23.976  0.00  0.00    +0.053 C 
ATOM      6  C   UNL     1      34.495 -15.506 -21.609  0.00  0.00    +0.019 C 
ATOM      7  C   UNL     1      34.787 -17.353 -24.699  0.00  0.00    +0.015 C 
ATOM      8  C   UNL     1      33.531 -15.359 -25.295  0.00  0.00    +0.015 C 
ATOM      9  C   UNL     1      34.122 -16.570 -25.649  0.00  0.00    +0.003 C 
ENDROOT
BRANCH   5  11
ATOM     10  O   UNL     1      34.597 -12.099 -24.287  0.00  0.00    -0.252 OA
ATOM     11  N   UNL     1      32.987 -13.677 -23.648  0.00  0.00    -0.268 N 
ATOM     12  N   UNL     1      32.565 -11.426 -23.346  0.00  0.00    -0.266 N 
ATOM     13  C   UNL     1      33.498 -12.366 -23.810  0.00  0.00    +0.308 C 
ATOM     14  H   UNL     1      32.088 -13.737 -23.249  0.00  0.00    +0.156 HD
ATOM     15  H   UNL     1      31.724 -11.793 -22.989  0.00  0.00    +0.157 HD
BRANCH  12  17
ATOM     16 BR   UNL     1      32.781  -7.061 -20.420  0.00  0.00    -0.049 Br
ATOM     17  C   UNL     1      32.683 -10.016 -23.329  0.00  0.00    +0.086 C 
ATOM     18  C   UNL     1      32.803  -9.316 -24.520  0.00  0.00    +0.152 C 
ATOM     19  C   UNL     1      32.678  -9.362 -22.107  0.00  0.00    +0.024 C 
ATOM     20  C   UNL     1      32.920  -7.928 -24.487  0.00  0.00    +0.039 C 
ATOM     21  C   UNL     1      32.794  -7.972 -22.075  0.00  0.00    +0.036 C 
ATOM     22  C   UNL     1      32.915  -7.255 -23.265  0.00  0.00    +0.010 C 
BRANCH  18  23
ATOM     23  O   UNL     1      32.808  -9.955 -25.723  0.00  0.00    -0.470 OA
ATOM     24  C   UNL     1      33.999  -9.860 -26.503  0.00  0.00    +0.253 C 
ENDBRANCH  18  23
ENDBRANCH  12  17
ENDBRANCH   5  11
BRANCH   1  25
ATOM     25  C   UNL     1      36.120 -18.680 -22.207  0.00  0.00    +0.122 C 
BRANCH  25  28
ATOM     26  N   UNL     1      34.139 -21.493 -19.651  0.00  0.00    -0.230 NA
ATOM     27  N   UNL     1      32.036 -20.746 -20.483  0.00  0.00    -0.343 N 
ATOM     28  C   UNL     1      35.424 -19.667 -21.309  0.00  0.00    +0.002 C 
ATOM     29  C   UNL     1      34.043 -19.744 -21.316  0.00  0.00    +0.031 C 
ATOM     30  C   UNL     1      36.173 -20.488 -20.486  0.00  0.00    +0.018 C 
ATOM     31  C   UNL     1      33.451 -20.669 -20.473  0.00  0.00    +0.125 C 
ATOM     32  C   UNL     1      35.486 -21.381 -19.679  0.00  0.00    +0.100 C 
ATOM     33  H   UNL     1      31.574 -21.390 -19.900  0.00  0.00    +0.144 HD
ATOM     34  H   UNL     1      31.515 -20.155 -21.075  0.00  0.00    +0.144 HD
ENDBRANCH  25  28
ENDBRANCH   1  25
TORSDOF 5
ENDMDL
MODEL 8
REMARK VINA RESULT:      -9.1      3.831     10.345
REMARK  Name = 11691242
REMARK  5 active torsions:
REMARK  status: ('A' for Active; 'I' for Inactive)
REMARK    1  A    between atoms: N_1  and  C_25
REMARK    2  A    between atoms: C_5  and  N_11
REMARK    3  A    between atoms: N_12  and  C_17
REMARK    4  A    between atoms: C_18  and  O_23
REMARK    5  A    between atoms: C_25  and  C_28
REMARK                            x       y       z     vdW  Elec       q    Type
REMARK                         _______ _______ _______ _____ _____    ______ ____
ROOT
ATOM      1  N   UNL     1      32.447  -9.603 -22.504  0.00  0.00    -0.282 N 
ATOM      2  C   UNL     1      33.265  -9.977 -23.546  0.00  0.00    +0.053 C 
ATOM      3  C   UNL     1      33.102 -11.353 -23.723  0.00  0.00    +0.028 C 
ATOM      4  C   UNL     1      31.775 -10.691 -22.016  0.00  0.00    +0.066 C 
ATOM      5  C   UNL     1      33.835 -11.999 -24.738  0.00  0.00    +0.053 C 
ATOM      6  C   UNL     1      32.159 -11.790 -22.749  0.00  0.00    +0.019 C 
ATOM      7  C   UNL     1      34.127  -9.211 -24.338  0.00  0.00    +0.015 C 
ATOM      8  C   UNL     1      34.702 -11.245 -25.538  0.00  0.00    +0.015 C 
ATOM      9  C   UNL     1      34.844  -9.873 -25.340  0.00  0.00    +0.003 C 
ENDROOT
BRANCH   5  11
ATOM     10  O   UNL     1      34.944 -14.305 -23.198  0.00  0.00    -0.252 OA
ATOM     11  N   UNL     1      33.710 -13.371 -24.957  0.00  0.00    -0.268 N 
ATOM     12  N   UNL     1      33.881 -15.667 -24.774  0.00  0.00    -0.266 N 
ATOM     13  C   UNL     1      34.252 -14.439 -24.203  0.00  0.00    +0.308 C 
ATOM     14  H   UNL     1      33.173 -13.632 -25.740  0.00  0.00    +0.156 HD
ATOM     15  H   UNL     1      33.321 -15.615 -25.582  0.00  0.00    +0.157 HD
BRANCH  12  17
ATOM     16 BR   UNL     1      36.978 -18.626 -21.721  0.00  0.00    -0.049 Br
ATOM     17  C   UNL     1      34.212 -16.970 -24.332  0.00  0.00    +0.086 C 
ATOM     18  C   UNL     1      33.513 -18.064 -24.817  0.00  0.00    +0.152 C 
ATOM     19  C   UNL     1      35.239 -17.120 -23.413  0.00  0.00    +0.024 C 
ATOM     20  C   UNL     1      33.850 -19.341 -24.371  0.00  0.00    +0.039 C 
ATOM     21  C   UNL     1      35.576 -18.398 -22.968  0.00  0.00    +0.036 C 
ATOM     22  C   UNL     1      34.882 -19.509 -23.447  0.00  0.00    +0.010 C 
BRANCH  18  23
ATOM     23  O   UNL     1      32.503 -17.921 -25.721  0.00  0.00    -0.470 OA
ATOM     24  C   UNL     1      31.620 -19.029 -25.886  0.00  0.00    +0.253 C 
ENDBRANCH  18  23
ENDBRANCH  12  17
ENDBRANCH   5  11
BRANCH   1  25
ATOM     25  C   UNL     1      32.310  -8.259 -21.983  0.00  0.00    +0.122 C 
BRANCH  25  28
ATOM     26  N   UNL     1      31.053  -5.523 -25.033  0.00  0.00    -0.230 NA
ATOM     27  N   UNL     1      32.727  -3.984 -24.322  0.00  0.00    -0.343 N 
ATOM     28  C   UNL     1      31.869  -7.298 -23.053  0.00  0.00    +0.002 C 
ATOM     29  C   UNL     1      32.510  -6.079 -23.187  0.00  0.00    +0.031 C 
ATOM     30  C   UNL     1      30.826  -7.643 -23.894  0.00  0.00    +0.018 C 
ATOM     31  C   UNL     1      32.067  -5.231 -24.188  0.00  0.00    +0.125 C 
ATOM     32  C   UNL     1      30.458  -6.725 -24.864  0.00  0.00    +0.100 C 
ATOM     33  H   UNL     1      32.445  -3.351 -25.021  0.00  0.00    +0.144 HD
ATOM     34  H   UNL     1      33.469  -3.752 -23.717  0.00  0.00    +0.144 HD
ENDBRANCH  25  28
ENDBRANCH   1  25
TORSDOF 5
ENDMDL
MODEL 9
REMARK VINA RESULT:      -9.1      4.034     10.710
REMARK  Name = 11691242
REMARK  5 active torsions:
REMARK  status: ('A' for Active; 'I' for Inactive)
REMARK    1  A    between atoms: N_1  and  C_25
REMARK    2  A    between atoms: C_5  and  N_11
REMARK    3  A    between atoms: N_12  and  C_17
REMARK    4  A    between atoms: C_18  and  O_23
REMARK    5  A    between atoms: C_25  and  C_28
REMARK                            x       y       z     vdW  Elec       q    Type
REMARK                         _______ _______ _______ _____ _____    ______ ____
ROOT
ATOM      1  N   UNL     1      33.820  -8.678 -23.499  0.00  0.00    -0.282 N 
ATOM      2  C   UNL     1      33.020  -9.691 -23.021  0.00  0.00    +0.053 C 
ATOM      3  C   UNL     1      33.437 -10.871 -23.642  0.00  0.00    +0.028 C 
ATOM      4  C   UNL     1      34.724  -9.174 -24.399  0.00  0.00    +0.066 C 
ATOM      5  C   UNL     1      32.775 -12.074 -23.326  0.00  0.00    +0.053 C 
ATOM      6  C   UNL     1      34.512 -10.529 -24.510  0.00  0.00    +0.019 C 
ATOM      7  C   UNL     1      31.972  -9.655 -22.095  0.00  0.00    +0.015 C 
ATOM      8  C   UNL     1      31.724 -12.053 -22.402  0.00  0.00    +0.015 C 
ATOM      9  C   UNL     1      31.330 -10.861 -21.797  0.00  0.00    +0.003 C 
ENDROOT
BRANCH   5  11
ATOM     10  O   UNL     1      33.673 -14.635 -22.079  0.00  0.00    -0.252 OA
ATOM     11  N   UNL     1      33.151 -13.281 -23.918  0.00  0.00    -0.268 N 
ATOM     12  N   UNL     1      33.856 -15.453 -24.262  0.00  0.00    -0.266 N 
ATOM     13  C   UNL     1      33.572 -14.479 -23.292  0.00  0.00    +0.308 C 
ATOM     14  H   UNL     1      33.118 -13.303 -24.902  0.00  0.00    +0.156 HD
ATOM     15  H   UNL     1      33.727 -15.180 -25.199  0.00  0.00    +0.157 HD
BRANCH  12  17
ATOM     16 BR   UNL     1      37.239 -18.630 -21.786  0.00  0.00    -0.049 Br
ATOM     17  C   UNL     1      34.303 -16.780 -24.059  0.00  0.00    +0.086 C 
ATOM     18  C   UNL     1      33.693 -17.828 -24.732  0.00  0.00    +0.152 C 
ATOM     19  C   UNL     1      35.353 -17.003 -23.182  0.00  0.00    +0.024 C 
ATOM     20  C   UNL     1      34.144 -19.130 -24.521  0.00  0.00    +0.039 C 
ATOM     21  C   UNL     1      35.804 -18.306 -22.972  0.00  0.00    +0.036 C 
ATOM     22  C   UNL     1      35.200 -19.369 -23.642  0.00  0.00    +0.010 C 
BRANCH  18  23
ATOM     23  O   UNL     1      32.661 -17.614 -25.596  0.00  0.00    -0.470 OA
ATOM     24  C   UNL     1      31.749 -18.692 -25.797  0.00  0.00    +0.253 C 
ENDBRANCH  18  23
ENDBRANCH  12  17
ENDBRANCH   5  11
BRANCH   1  25
ATOM     25  C   UNL     1      33.728  -7.284 -23.120  0.00  0.00    +0.122 C 
BRANCH  25  28
ATOM     26  N   UNL     1      32.390  -4.860 -26.391  0.00  0.00    -0.230 NA
ATOM     27  N   UNL     1      34.607  -4.030 -26.664  0.00  0.00    -0.343 N 
ATOM     28  C   UNL     1      33.259  -6.432 -24.268  0.00  0.00    +0.002 C 
ATOM     29  C   UNL     1      34.161  -5.622 -24.933  0.00  0.00    +0.031 C 
ATOM     30  C   UNL     1      31.929  -6.469 -24.647  0.00  0.00    +0.018 C 
ATOM     31  C   UNL     1      33.679  -4.858 -25.984  0.00  0.00    +0.125 C 
ATOM     32  C   UNL     1      31.546  -5.667 -25.710  0.00  0.00    +0.100 C 
ATOM     33  H   UNL     1      34.307  -3.471 -27.416  0.00  0.00    +0.144 HD
ATOM     34  H   UNL     1      35.551  -4.015 -26.384  0.00  0.00    +0.144 HD
ENDBRANCH  25  28
ENDBRANCH   1  25
TORSDOF 5
ENDMDL
