MODEL 1
REMARK VINA RESULT:     -12.3      0.000      0.000
REMARK  Name = 71245288
REMARK  5 active torsions:
REMARK  status: ('A' for Active; 'I' for Inactive)
REMARK    1  A    between atoms: C_3  and  C_9
REMARK    2  A    between atoms: C_6  and  N_14
REMARK    3  A    between atoms: C_15  and  C_18
REMARK    4  A    between atoms: C_22  and  C_30
REMARK    5  A    between atoms: N_27  and  C_32
REMARK                            x       y       z     vdW  Elec       q    Type
REMARK                         _______ _______ _______ _____ _____    ______ ____
ROOT
ATOM      1  O   UNL     1      32.616 -21.813 -19.890  0.00  0.00    -0.270 OA
ATOM      2  N   UNL     1      34.202 -22.146 -18.193  0.00  0.00    -0.259 N 
ATOM      3  C   UNL     1      33.759 -21.662 -19.433  0.00  0.00    +0.253 C 
ATOM      4  H   UNL     1      35.139 -21.947 -17.967  0.00  0.00    +0.157 HD
ATOM      5  N   UNL     1      34.109 -23.250 -16.088  0.00  0.00    -0.388 NA
ATOM      6  C   UNL     1      33.378 -23.952 -15.194  0.00  0.00    +0.166 C 
ATOM      7  C   UNL     1      33.478 -22.883 -17.225  0.00  0.00    +0.167 C 
ATOM      8  C   UNL     1      32.050 -24.300 -15.383  0.00  0.00    +0.031 C 
ATOM      9  C   UNL     1      32.155 -23.181 -17.508  0.00  0.00    +0.101 C 
ATOM     10  C   UNL     1      31.434 -23.905 -16.564  0.00  0.00    -0.015 C 
ENDROOT
BRANCH   3  15
ATOM     11  F   UNL     1      36.516 -21.811 -18.919  0.00  0.00    -0.204 F 
ATOM     12  C   UNL     1      35.242 -19.354 -21.984  0.00  0.00    +0.046 C 
ATOM     13  C   UNL     1      36.601 -19.461 -21.691  0.00  0.00    -0.006 C 
ATOM     14  C   UNL     1      34.309 -20.078 -21.241  0.00  0.00    +0.021 C 
ATOM     15  C   UNL     1      34.735 -20.909 -20.205  0.00  0.00    +0.082 C 
ATOM     16  C   UNL     1      37.028 -20.291 -20.655  0.00  0.00    +0.027 C 
ATOM     17  C   UNL     1      37.628 -18.698 -22.466  0.00  0.00    +0.032 C 
ATOM     18  C   UNL     1      36.094 -21.015 -19.912  0.00  0.00    +0.144 C 
BRANCH  12  20
ATOM     19  N   UNL     1      33.820 -17.919 -24.906  0.00  0.00    -0.255 NA
ATOM     20  N   UNL     1      34.797 -18.535 -23.008  0.00  0.00    -0.282 N 
ATOM     21  C   UNL     1      34.361 -16.826 -24.277  0.00  0.00    +0.053 C 
ATOM     22  C   UNL     1      34.973 -17.182 -23.098  0.00  0.00    +0.134 C 
ATOM     23  C   UNL     1      34.100 -18.931 -24.116  0.00  0.00    +0.219 C 
BRANCH  21  24
ATOM     24  C   UNL     1      34.289 -15.403 -24.823  0.00  0.00    +0.037 C 
ATOM     25  C   UNL     1      34.294 -14.258 -23.852  0.00  0.00    +0.006 C 
ATOM     26  C   UNL     1      33.038 -14.607 -24.596  0.00  0.00    +0.006 C 
ENDBRANCH  21  24
ENDBRANCH  12  20
ENDBRANCH   3  15
BRANCH   6  30
ATOM     27  N   UNL     1      35.346 -24.840 -13.988  0.00  0.00    -0.252 N 
ATOM     28  N   UNL     1      33.639 -24.222 -12.767  0.00  0.00    -0.129 NA
ATOM     29  N   UNL     1      34.632 -24.686 -11.927  0.00  0.00    -0.128 NA
ATOM     30  C   UNL     1      34.086 -24.323 -13.998  0.00  0.00    +0.188 C 
ATOM     31  C   UNL     1      35.646 -25.050 -12.676  0.00  0.00    +0.192 C 
BRANCH  27  32
ATOM     32  C   UNL     1      36.206 -25.114 -15.115  0.00  0.00    +0.080 C 
ATOM     33  C   UNL     1      37.558 -24.409 -14.976  0.00  0.00    +0.022 C 
ATOM     34  C   UNL     1      36.394 -26.618 -15.326  0.00  0.00    +0.022 C 
ENDBRANCH  27  32
ENDBRANCH   6  30
TORSDOF 5
ENDMDL
MODEL 2
REMARK VINA RESULT:     -11.6      1.613     10.655
REMARK  Name = 71245288
REMARK  5 active torsions:
REMARK  status: ('A' for Active; 'I' for Inactive)
REMARK    1  A    between atoms: C_3  and  C_9
REMARK    2  A    between atoms: C_6  and  N_14
REMARK    3  A    between atoms: C_15  and  C_18
REMARK    4  A    between atoms: C_22  and  C_30
REMARK    5  A    between atoms: N_27  and  C_32
REMARK                            x       y       z     vdW  Elec       q    Type
REMARK                         _______ _______ _______ _____ _____    ______ ____
ROOT
ATOM      1  O   UNL     1      36.599 -21.587 -18.742  0.00  0.00    -0.270 OA
ATOM      2  N   UNL     1      34.802 -20.828 -20.047  0.00  0.00    -0.259 N 
ATOM      3  C   UNL     1      35.386 -21.555 -18.999  0.00  0.00    +0.253 C 
ATOM      4  H   UNL     1      33.824 -20.902 -20.126  0.00  0.00    +0.157 HD
ATOM      5  N   UNL     1      34.673 -19.391 -21.938  0.00  0.00    -0.388 NA
ATOM      6  C   UNL     1      35.323 -18.613 -22.832  0.00  0.00    +0.166 C 
ATOM      7  C   UNL     1      35.437 -20.003 -21.007  0.00  0.00    +0.167 C 
ATOM      8  C   UNL     1      36.696 -18.420 -22.838  0.00  0.00    +0.031 C 
ATOM      9  C   UNL     1      36.815 -19.874 -20.927  0.00  0.00    +0.101 C 
ATOM     10  C   UNL     1      37.449 -19.066 -21.865  0.00  0.00    -0.015 C 
ENDROOT
BRANCH   3  15
ATOM     11  F   UNL     1      32.724 -22.044 -19.749  0.00  0.00    -0.204 F 
ATOM     12  C   UNL     1      34.016 -23.506 -16.109  0.00  0.00    +0.046 C 
ATOM     13  C   UNL     1      32.702 -23.723 -16.525  0.00  0.00    -0.006 C 
ATOM     14  C   UNL     1      34.897 -22.793 -16.922  0.00  0.00    +0.021 C 
ATOM     15  C   UNL     1      34.464 -22.298 -18.153  0.00  0.00    +0.082 C 
ATOM     16  C   UNL     1      32.270 -23.227 -17.754  0.00  0.00    +0.027 C 
ATOM     17  C   UNL     1      31.732 -24.482 -15.677  0.00  0.00    +0.032 C 
ATOM     18  C   UNL     1      33.151 -22.515 -18.568  0.00  0.00    +0.144 C 
BRANCH  12  20
ATOM     19  N   UNL     1      34.489 -24.466 -12.722  0.00  0.00    -0.255 NA
ATOM     20  N   UNL     1      34.466 -23.989 -14.892  0.00  0.00    -0.282 N 
ATOM     21  C   UNL     1      35.644 -24.911 -13.316  0.00  0.00    +0.053 C 
ATOM     22  C   UNL     1      35.652 -24.627 -14.661  0.00  0.00    +0.134 C 
ATOM     23  C   UNL     1      33.802 -23.917 -13.698  0.00  0.00    +0.219 C 
BRANCH  21  24
ATOM     24  C   UNL     1      36.766 -25.628 -12.571  0.00  0.00    +0.037 C 
ATOM     25  C   UNL     1      37.895 -24.811 -12.012  0.00  0.00    +0.006 C 
ATOM     26  C   UNL     1      38.124 -25.692 -13.206  0.00  0.00    +0.006 C 
ENDBRANCH  21  24
ENDBRANCH  12  20
ENDBRANCH   3  15
BRANCH   6  30
ATOM     27  N   UNL     1      34.270 -16.636 -23.880  0.00  0.00    -0.252 N 
ATOM     28  N   UNL     1      33.787 -18.584 -24.749  0.00  0.00    -0.129 NA
ATOM     29  N   UNL     1      33.113 -17.611 -25.459  0.00  0.00    -0.128 NA
ATOM     30  C   UNL     1      34.474 -17.980 -23.806  0.00  0.00    +0.188 C 
ATOM     31  C   UNL     1      33.415 -16.451 -24.924  0.00  0.00    +0.192 C 
BRANCH  27  32
ATOM     32  C   UNL     1      34.830 -15.602 -23.042  0.00  0.00    +0.080 C 
ATOM     33  C   UNL     1      34.403 -14.208 -23.507  0.00  0.00    +0.022 C 
ATOM     34  C   UNL     1      34.476 -15.818 -21.569  0.00  0.00    +0.022 C 
ENDBRANCH  27  32
ENDBRANCH   6  30
TORSDOF 5
ENDMDL
MODEL 3
REMARK VINA RESULT:     -11.4      5.606      9.932
REMARK  Name = 71245288
REMARK  5 active torsions:
REMARK  status: ('A' for Active; 'I' for Inactive)
REMARK    1  A    between atoms: C_3  and  C_9
REMARK    2  A    between atoms: C_6  and  N_14
REMARK    3  A    between atoms: C_15  and  C_18
REMARK    4  A    between atoms: C_22  and  C_30
REMARK    5  A    between atoms: N_27  and  C_32
REMARK                            x       y       z     vdW  Elec       q    Type
REMARK                         _______ _______ _______ _____ _____    ______ ____
ROOT
ATOM      1  O   UNL     1      32.690 -13.453 -24.438  0.00  0.00    -0.270 OA
ATOM      2  N   UNL     1      33.659 -14.490 -22.568  0.00  0.00    -0.259 N 
ATOM      3  C   UNL     1      32.946 -13.475 -23.224  0.00  0.00    +0.253 C 
ATOM      4  H   UNL     1      33.783 -14.367 -21.600  0.00  0.00    +0.157 HD
ATOM      5  N   UNL     1      34.876 -16.515 -22.294  0.00  0.00    -0.388 NA
ATOM      6  C   UNL     1      35.398 -17.624 -22.864  0.00  0.00    +0.166 C 
ATOM      7  C   UNL     1      34.224 -15.666 -23.118  0.00  0.00    +0.167 C 
ATOM      8  C   UNL     1      35.298 -17.922 -24.214  0.00  0.00    +0.031 C 
ATOM      9  C   UNL     1      34.069 -15.872 -24.480  0.00  0.00    +0.101 C 
ATOM     10  C   UNL     1      34.620 -17.025 -25.030  0.00  0.00    -0.015 C 
ENDROOT
BRANCH   3  15
ATOM     11  F   UNL     1      32.089 -13.902 -20.583  0.00  0.00    -0.204 F 
ATOM     12  C   UNL     1      31.949 -10.052 -22.073  0.00  0.00    +0.046 C 
ATOM     13  C   UNL     1      31.535 -10.314 -20.767  0.00  0.00    -0.006 C 
ATOM     14  C   UNL     1      32.413 -11.092 -22.879  0.00  0.00    +0.021 C 
ATOM     15  C   UNL     1      32.462 -12.393 -22.380  0.00  0.00    +0.082 C 
ATOM     16  C   UNL     1      31.583 -11.615 -20.268  0.00  0.00    +0.027 C 
ATOM     17  C   UNL     1      31.031  -9.224 -19.876  0.00  0.00    +0.032 C 
ATOM     18  C   UNL     1      32.047 -12.655 -21.074  0.00  0.00    +0.144 C 
BRANCH  12  20
ATOM     19  N   UNL     1      31.082  -6.905 -23.472  0.00  0.00    -0.255 NA
ATOM     20  N   UNL     1      31.909  -8.768 -22.588  0.00  0.00    -0.282 N 
ATOM     21  C   UNL     1      32.434  -6.775 -23.278  0.00  0.00    +0.053 C 
ATOM     22  C   UNL     1      32.970  -7.918 -22.731  0.00  0.00    +0.134 C 
ATOM     23  C   UNL     1      30.797  -8.115 -23.046  0.00  0.00    +0.219 C 
BRANCH  21  24
ATOM     24  C   UNL     1      33.232  -5.523 -23.628  0.00  0.00    +0.037 C 
ATOM     25  C   UNL     1      32.913  -4.799 -24.903  0.00  0.00    +0.006 C 
ATOM     26  C   UNL     1      34.190  -5.578 -24.781  0.00  0.00    +0.006 C 
ENDBRANCH  21  24
ENDBRANCH  12  20
ENDBRANCH   3  15
BRANCH   6  30
ATOM     27  N   UNL     1      35.461 -19.426 -21.171  0.00  0.00    -0.252 N 
ATOM     28  N   UNL     1      37.380 -18.545 -21.743  0.00  0.00    -0.129 NA
ATOM     29  N   UNL     1      37.614 -19.523 -20.798  0.00  0.00    -0.128 NA
ATOM     30  C   UNL     1      36.084 -18.502 -21.953  0.00  0.00    +0.188 C 
ATOM     31  C   UNL     1      36.452 -20.041 -20.468  0.00  0.00    +0.192 C 
BRANCH  27  32
ATOM     32  C   UNL     1      34.050 -19.717 -21.088  0.00  0.00    +0.080 C 
ATOM     33  C   UNL     1      33.425 -19.878 -22.476  0.00  0.00    +0.022 C 
ATOM     34  C   UNL     1      33.779 -20.949 -20.222  0.00  0.00    +0.022 C 
ENDBRANCH  27  32
ENDBRANCH   6  30
TORSDOF 5
ENDMDL
MODEL 4
REMARK VINA RESULT:     -11.0      5.185      9.364
REMARK  Name = 71245288
REMARK  5 active torsions:
REMARK  status: ('A' for Active; 'I' for Inactive)
REMARK    1  A    between atoms: C_3  and  C_9
REMARK    2  A    between atoms: C_6  and  N_14
REMARK    3  A    between atoms: C_15  and  C_18
REMARK    4  A    between atoms: C_22  and  C_30
REMARK    5  A    between atoms: N_27  and  C_32
REMARK                            x       y       z     vdW  Elec       q    Type
REMARK                         _______ _______ _______ _____ _____    ______ ____
ROOT
ATOM      1  O   UNL     1      33.041 -14.355 -24.899  0.00  0.00    -0.270 OA
ATOM      2  N   UNL     1      33.935 -15.025 -22.835  0.00  0.00    -0.259 N 
ATOM      3  C   UNL     1      33.282 -14.136 -23.702  0.00  0.00    +0.253 C 
ATOM      4  H   UNL     1      34.055 -14.711 -21.911  0.00  0.00    +0.157 HD
ATOM      5  N   UNL     1      35.045 -17.005 -22.122  0.00  0.00    -0.388 NA
ATOM      6  C   UNL     1      35.517 -18.231 -22.439  0.00  0.00    +0.166 C 
ATOM      7  C   UNL     1      34.446 -16.315 -23.118  0.00  0.00    +0.167 C 
ATOM      8  C   UNL     1      35.418 -18.797 -23.700  0.00  0.00    +0.031 C 
ATOM      9  C   UNL     1      34.297 -16.792 -24.411  0.00  0.00    +0.101 C 
ATOM     10  C   UNL     1      34.795 -18.058 -24.699  0.00  0.00    -0.015 C 
ENDROOT
BRANCH   3  15
ATOM     11  F   UNL     1      31.931 -14.029 -21.242  0.00  0.00    -0.204 F 
ATOM     12  C   UNL     1      32.673 -10.473 -23.207  0.00  0.00    +0.046 C 
ATOM     13  C   UNL     1      32.005 -10.471 -21.982  0.00  0.00    -0.006 C 
ATOM     14  C   UNL     1      33.091 -11.678 -23.771  0.00  0.00    +0.021 C 
ATOM     15  C   UNL     1      32.843 -12.881 -23.111  0.00  0.00    +0.082 C 
ATOM     16  C   UNL     1      31.756 -11.674 -21.322  0.00  0.00    +0.027 C 
ATOM     17  C   UNL     1      31.541  -9.198 -21.350  0.00  0.00    +0.032 C 
ATOM     18  C   UNL     1      32.176 -12.879 -21.886  0.00  0.00    +0.144 C 
BRANCH  12  20
ATOM     19  N   UNL     1      32.716  -7.652 -25.365  0.00  0.00    -0.255 NA
ATOM     20  N   UNL     1      32.929  -9.290 -23.879  0.00  0.00    -0.282 N 
ATOM     21  C   UNL     1      33.773  -7.396 -24.527  0.00  0.00    +0.053 C 
ATOM     22  C   UNL     1      33.924  -8.397 -23.597  0.00  0.00    +0.134 C 
ATOM     23  C   UNL     1      32.230  -8.800 -24.947  0.00  0.00    +0.219 C 
BRANCH  21  24
ATOM     24  C   UNL     1      34.658  -6.157 -24.623  0.00  0.00    +0.037 C 
ATOM     25  C   UNL     1      34.140  -4.957 -25.360  0.00  0.00    +0.006 C 
ATOM     26  C   UNL     1      35.238  -5.788 -25.957  0.00  0.00    +0.006 C 
ENDBRANCH  21  24
ENDBRANCH  12  20
ENDBRANCH   3  15
BRANCH   6  30
ATOM     27  N   UNL     1      35.617 -20.028 -20.743  0.00  0.00    -0.252 N 
ATOM     28  N   UNL     1      37.299 -18.630 -20.797  0.00  0.00    -0.129 NA
ATOM     29  N   UNL     1      37.530 -19.552 -19.796  0.00  0.00    -0.128 NA
ATOM     30  C   UNL     1      36.147 -18.931 -21.352  0.00  0.00    +0.188 C 
ATOM     31  C   UNL     1      36.513 -20.382 -19.780  0.00  0.00    +0.192 C 
BRANCH  27  32
ATOM     32  C   UNL     1      34.372 -20.696 -21.038  0.00  0.00    +0.080 C 
ATOM     33  C   UNL     1      34.132 -21.879 -20.097  0.00  0.00    +0.022 C 
ATOM     34  C   UNL     1      33.191 -19.725 -21.005  0.00  0.00    +0.022 C 
ENDBRANCH  27  32
ENDBRANCH   6  30
TORSDOF 5
ENDMDL
MODEL 5
REMARK VINA RESULT:     -10.2      2.014     10.674
REMARK  Name = 71245288
REMARK  5 active torsions:
REMARK  status: ('A' for Active; 'I' for Inactive)
REMARK    1  A    between atoms: C_3  and  C_9
REMARK    2  A    between atoms: C_6  and  N_14
REMARK    3  A    between atoms: C_15  and  C_18
REMARK    4  A    between atoms: C_22  and  C_30
REMARK    5  A    between atoms: N_27  and  C_32
REMARK                            x       y       z     vdW  Elec       q    Type
REMARK                         _______ _______ _______ _____ _____    ______ ____
ROOT
ATOM      1  O   UNL     1      36.108 -21.930 -20.501  0.00  0.00    -0.270 OA
ATOM      2  N   UNL     1      34.736 -20.048 -20.217  0.00  0.00    -0.259 N 
ATOM      3  C   UNL     1      35.167 -21.352 -19.935  0.00  0.00    +0.253 C 
ATOM      4  H   UNL     1      33.974 -19.725 -19.684  0.00  0.00    +0.157 HD
ATOM      5  N   UNL     1      34.676 -17.918 -21.275  0.00  0.00    -0.388 NA
ATOM      6  C   UNL     1      35.201 -17.082 -22.198  0.00  0.00    +0.166 C 
ATOM      7  C   UNL     1      35.251 -19.136 -21.170  0.00  0.00    +0.167 C 
ATOM      8  C   UNL     1      36.272 -17.406 -23.017  0.00  0.00    +0.031 C 
ATOM      9  C   UNL     1      36.324 -19.556 -21.941  0.00  0.00    +0.101 C 
ATOM     10  C   UNL     1      36.838 -18.668 -22.880  0.00  0.00    -0.015 C 
ENDROOT
BRANCH   3  15
ATOM     11  F   UNL     1      32.386 -21.734 -20.006  0.00  0.00    -0.204 F 
ATOM     12  C   UNL     1      34.466 -23.200 -16.752  0.00  0.00    +0.046 C 
ATOM     13  C   UNL     1      33.083 -23.365 -16.833  0.00  0.00    -0.006 C 
ATOM     14  C   UNL     1      35.150 -22.538 -17.772  0.00  0.00    +0.021 C 
ATOM     15  C   UNL     1      34.451 -22.042 -18.873  0.00  0.00    +0.082 C 
ATOM     16  C   UNL     1      32.385 -22.868 -17.932  0.00  0.00    +0.027 C 
ATOM     17  C   UNL     1      32.320 -24.068 -15.756  0.00  0.00    +0.032 C 
ATOM     18  C   UNL     1      33.069 -22.207 -18.953  0.00  0.00    +0.144 C 
BRANCH  12  20
ATOM     19  N   UNL     1      36.059 -23.781 -13.631  0.00  0.00    -0.255 NA
ATOM     20  N   UNL     1      35.179 -23.684 -15.669  0.00  0.00    -0.282 N 
ATOM     21  C   UNL     1      36.399 -24.902 -14.346  0.00  0.00    +0.053 C 
ATOM     22  C   UNL     1      35.866 -24.865 -15.613  0.00  0.00    +0.134 C 
ATOM     23  C   UNL     1      35.324 -23.069 -14.456  0.00  0.00    +0.219 C 
BRANCH  21  24
ATOM     24  C   UNL     1      37.259 -26.037 -13.798  0.00  0.00    +0.037 C 
ATOM     25  C   UNL     1      37.537 -26.082 -12.324  0.00  0.00    +0.006 C 
ATOM     26  C   UNL     1      38.632 -25.716 -13.283  0.00  0.00    +0.006 C 
ENDBRANCH  21  24
ENDBRANCH  12  20
ENDBRANCH   3  15
BRANCH   6  30
ATOM     27  N   UNL     1      34.111 -15.240 -23.437  0.00  0.00    -0.252 N 
ATOM     28  N   UNL     1      34.317 -14.986 -21.273  0.00  0.00    -0.129 NA
ATOM     29  N   UNL     1      33.691 -13.867 -21.786  0.00  0.00    -0.128 NA
ATOM     30  C   UNL     1      34.561 -15.796 -22.278  0.00  0.00    +0.188 C 
ATOM     31  C   UNL     1      33.576 -14.038 -23.083  0.00  0.00    +0.192 C 
BRANCH  27  32
ATOM     32  C   UNL     1      34.172 -15.787 -24.770  0.00  0.00    +0.080 C 
ATOM     33  C   UNL     1      33.397 -17.103 -24.876  0.00  0.00    +0.022 C 
ATOM     34  C   UNL     1      33.683 -14.781 -25.815  0.00  0.00    +0.022 C 
ENDBRANCH  27  32
ENDBRANCH   6  30
TORSDOF 5
ENDMDL
MODEL 6
REMARK VINA RESULT:     -10.2      9.203     17.140
REMARK  Name = 71245288
REMARK  5 active torsions:
REMARK  status: ('A' for Active; 'I' for Inactive)
REMARK    1  A    between atoms: C_3  and  C_9
REMARK    2  A    between atoms: C_6  and  N_14
REMARK    3  A    between atoms: C_15  and  C_18
REMARK    4  A    between atoms: C_22  and  C_30
REMARK    5  A    between atoms: N_27  and  C_32
REMARK                            x       y       z     vdW  Elec       q    Type
REMARK                         _______ _______ _______ _____ _____    ______ ____
ROOT
ATOM      1  O   UNL     1      35.054  -8.726 -24.710  0.00  0.00    -0.270 OA
ATOM      2  N   UNL     1      32.939  -7.727 -24.523  0.00  0.00    -0.259 N 
ATOM      3  C   UNL     1      33.859  -8.775 -24.380  0.00  0.00    +0.253 C 
ATOM      4  H   UNL     1      32.023  -7.916 -24.215  0.00  0.00    +0.157 HD
ATOM      5  N   UNL     1      32.114  -5.571 -25.097  0.00  0.00    -0.388 NA
ATOM      6  C   UNL     1      32.368  -4.347 -25.613  0.00  0.00    +0.166 C 
ATOM      7  C   UNL     1      33.154  -6.432 -25.054  0.00  0.00    +0.167 C 
ATOM      8  C   UNL     1      33.608  -3.946 -26.083  0.00  0.00    +0.031 C 
ATOM      9  C   UNL     1      34.431  -6.128 -25.499  0.00  0.00    +0.101 C 
ATOM     10  C   UNL     1      34.654  -4.859 -26.022  0.00  0.00    -0.015 C 
ENDROOT
BRANCH   3  15
ATOM     11  F   UNL     1      32.201  -8.730 -22.114  0.00  0.00    -0.204 F 
ATOM     12  C   UNL     1      33.183 -12.402 -23.729  0.00  0.00    +0.046 C 
ATOM     13  C   UNL     1      32.362 -12.328 -22.603  0.00  0.00    -0.006 C 
ATOM     14  C   UNL     1      33.675 -11.234 -24.311  0.00  0.00    +0.021 C 
ATOM     15  C   UNL     1      33.345  -9.992 -23.769  0.00  0.00    +0.082 C 
ATOM     16  C   UNL     1      32.033 -11.086 -22.060  0.00  0.00    +0.027 C 
ATOM     17  C   UNL     1      31.819 -13.560 -21.953  0.00  0.00    +0.032 C 
ATOM     18  C   UNL     1      32.525  -9.918 -22.644  0.00  0.00    +0.144 C 
BRANCH  12  20
ATOM     19  N   UNL     1      33.646 -15.277 -25.763  0.00  0.00    -0.255 NA
ATOM     20  N   UNL     1      33.522 -13.625 -24.282  0.00  0.00    -0.282 N 
ATOM     21  C   UNL     1      34.332 -15.612 -24.622  0.00  0.00    +0.053 C 
ATOM     22  C   UNL     1      34.269 -14.604 -23.690  0.00  0.00    +0.134 C 
ATOM     23  C   UNL     1      33.171 -14.074 -25.526  0.00  0.00    +0.219 C 
BRANCH  21  24
ATOM     24  C   UNL     1      35.065 -16.935 -24.424  0.00  0.00    +0.037 C 
ATOM     25  C   UNL     1      34.257 -18.180 -24.201  0.00  0.00    +0.006 C 
ATOM     26  C   UNL     1      35.037 -17.578 -23.069  0.00  0.00    +0.006 C 
ENDBRANCH  21  24
ENDBRANCH  12  20
ENDBRANCH   3  15
BRANCH   6  30
ATOM     27  N   UNL     1      30.827  -2.780 -26.747  0.00  0.00    -0.252 N 
ATOM     28  N   UNL     1      30.440  -3.182 -24.632  0.00  0.00    -0.129 NA
ATOM     29  N   UNL     1      29.487  -2.294 -25.088  0.00  0.00    -0.128 NA
ATOM     30  C   UNL     1      31.234  -3.461 -25.641  0.00  0.00    +0.188 C 
ATOM     31  C   UNL     1      29.734  -2.066 -26.357  0.00  0.00    +0.192 C 
BRANCH  27  32
ATOM     32  C   UNL     1      31.409  -2.795 -28.068  0.00  0.00    +0.080 C 
ATOM     33  C   UNL     1      30.354  -2.558 -29.151  0.00  0.00    +0.022 C 
ATOM     34  C   UNL     1      32.553  -1.786 -28.190  0.00  0.00    +0.022 C 
ENDBRANCH  27  32
ENDBRANCH   6  30
TORSDOF 5
ENDMDL
MODEL 7
REMARK VINA RESULT:     -10.0      5.149      9.126
REMARK  Name = 71245288
REMARK  5 active torsions:
REMARK  status: ('A' for Active; 'I' for Inactive)
REMARK    1  A    between atoms: C_3  and  C_9
REMARK    2  A    between atoms: C_6  and  N_14
REMARK    3  A    between atoms: C_15  and  C_18
REMARK    4  A    between atoms: C_22  and  C_30
REMARK    5  A    between atoms: N_27  and  C_32
REMARK                            x       y       z     vdW  Elec       q    Type
REMARK                         _______ _______ _______ _____ _____    ______ ____
ROOT
ATOM      1  O   UNL     1      33.177 -15.630 -26.311  0.00  0.00    -0.270 OA
ATOM      2  N   UNL     1      34.378 -15.602 -24.295  0.00  0.00    -0.259 N 
ATOM      3  C   UNL     1      33.713 -15.011 -25.379  0.00  0.00    +0.253 C 
ATOM      4  H   UNL     1      34.754 -14.979 -23.632  0.00  0.00    +0.157 HD
ATOM      5  N   UNL     1      35.257 -17.328 -22.914  0.00  0.00    -0.388 NA
ATOM      6  C   UNL     1      35.426 -18.652 -22.704  0.00  0.00    +0.166 C 
ATOM      7  C   UNL     1      34.581 -16.978 -24.030  0.00  0.00    +0.167 C 
ATOM      8  C   UNL     1      34.950 -19.639 -23.553  0.00  0.00    +0.031 C 
ATOM      9  C   UNL     1      34.066 -17.887 -24.942  0.00  0.00    +0.101 C 
ATOM     10  C   UNL     1      34.259 -19.241 -24.691  0.00  0.00    -0.015 C 
ENDROOT
BRANCH   3  15
ATOM     11  F   UNL     1      34.572 -13.446 -27.547  0.00  0.00    -0.204 F 
ATOM     12  C   UNL     1      33.066 -11.505 -24.227  0.00  0.00    +0.046 C 
ATOM     13  C   UNL     1      33.506 -10.771 -25.329  0.00  0.00    -0.006 C 
ATOM     14  C   UNL     1      33.135 -12.898 -24.244  0.00  0.00    +0.021 C 
ATOM     15  C   UNL     1      33.643 -13.558 -25.364  0.00  0.00    +0.082 C 
ATOM     16  C   UNL     1      34.014 -11.430 -26.448  0.00  0.00    +0.027 C 
ATOM     17  C   UNL     1      33.447  -9.277 -25.343  0.00  0.00    +0.032 C 
ATOM     18  C   UNL     1      34.082 -12.823 -26.465  0.00  0.00    +0.144 C 
BRANCH  12  20
ATOM     19  N   UNL     1      31.557 -10.600 -21.142  0.00  0.00    -0.255 NA
ATOM     20  N   UNL     1      32.559 -10.870 -23.106  0.00  0.00    -0.282 N 
ATOM     21  C   UNL     1      31.979  -9.388 -21.627  0.00  0.00    +0.053 C 
ATOM     22  C   UNL     1      32.603  -9.530 -22.844  0.00  0.00    +0.134 C 
ATOM     23  C   UNL     1      31.922 -11.472 -22.056  0.00  0.00    +0.219 C 
BRANCH  21  24
ATOM     24  C   UNL     1      31.778  -8.060 -20.903  0.00  0.00    +0.037 C 
ATOM     25  C   UNL     1      32.178  -6.792 -21.599  0.00  0.00    +0.006 C 
ATOM     26  C   UNL     1      32.986  -7.301 -20.441  0.00  0.00    +0.006 C 
ENDBRANCH  21  24
ENDBRANCH  12  20
ENDBRANCH   3  15
BRANCH   6  30
ATOM     27  N   UNL     1      35.824 -20.012 -20.676  0.00  0.00    -0.252 N 
ATOM     28  N   UNL     1      37.210 -18.360 -21.042  0.00  0.00    -0.129 NA
ATOM     29  N   UNL     1      37.589 -18.997 -19.877  0.00  0.00    -0.128 NA
ATOM     30  C   UNL     1      36.151 -18.983 -21.505  0.00  0.00    +0.188 C 
ATOM     31  C   UNL     1      36.747 -19.984 -19.675  0.00  0.00    +0.192 C 
BRANCH  27  32
ATOM     32  C   UNL     1      34.737 -20.952 -20.808  0.00  0.00    +0.080 C 
ATOM     33  C   UNL     1      34.888 -22.128 -19.840  0.00  0.00    +0.022 C 
ATOM     34  C   UNL     1      33.379 -20.269 -20.629  0.00  0.00    +0.022 C 
ENDBRANCH  27  32
ENDBRANCH   6  30
TORSDOF 5
ENDMDL
MODEL 8
REMARK VINA RESULT:      -9.8      3.109      5.461
REMARK  Name = 71245288
REMARK  5 active torsions:
REMARK  status: ('A' for Active; 'I' for Inactive)
REMARK    1  A    between atoms: C_3  and  C_9
REMARK    2  A    between atoms: C_6  and  N_14
REMARK    3  A    between atoms: C_15  and  C_18
REMARK    4  A    between atoms: C_22  and  C_30
REMARK    5  A    between atoms: N_27  and  C_32
REMARK                            x       y       z     vdW  Elec       q    Type
REMARK                         _______ _______ _______ _____ _____    ______ ____
ROOT
ATOM      1  O   UNL     1      36.873 -18.295 -22.258  0.00  0.00    -0.270 OA
ATOM      2  N   UNL     1      34.794 -19.021 -21.445  0.00  0.00    -0.259 N 
ATOM      3  C   UNL     1      35.635 -18.214 -22.226  0.00  0.00    +0.253 C 
ATOM      4  H   UNL     1      33.831 -18.837 -21.525  0.00  0.00    +0.157 HD
ATOM      5  N   UNL     1      34.167 -20.716 -19.899  0.00  0.00    -0.388 NA
ATOM      6  C   UNL     1      34.556 -21.703 -19.061  0.00  0.00    +0.166 C 
ATOM      7  C   UNL     1      35.151 -20.063 -20.556  0.00  0.00    +0.167 C 
ATOM      8  C   UNL     1      35.877 -22.067 -18.852  0.00  0.00    +0.031 C 
ATOM      9  C   UNL     1      36.500 -20.350 -20.416  0.00  0.00    +0.101 C 
ATOM     10  C   UNL     1      36.861 -21.373 -19.546  0.00  0.00    -0.015 C 
ENDROOT
BRANCH   3  15
ATOM     11  F   UNL     1      35.292 -18.600 -24.986  0.00  0.00    -0.204 F 
ATOM     12  C   UNL     1      33.836 -15.114 -23.318  0.00  0.00    +0.046 C 
ATOM     13  C   UNL     1      33.690 -15.352 -24.685  0.00  0.00    -0.006 C 
ATOM     14  C   UNL     1      34.476 -16.055 -22.511  0.00  0.00    +0.021 C 
ATOM     15  C   UNL     1      34.969 -17.234 -23.070  0.00  0.00    +0.082 C 
ATOM     16  C   UNL     1      34.184 -16.529 -25.244  0.00  0.00    +0.027 C 
ATOM     17  C   UNL     1      33.011 -14.363 -25.578  0.00  0.00    +0.032 C 
ATOM     18  C   UNL     1      34.823 -17.471 -24.437  0.00  0.00    +0.144 C 
BRANCH  12  20
ATOM     19  N   UNL     1      32.940 -11.787 -22.456  0.00  0.00    -0.255 NA
ATOM     20  N   UNL     1      33.355 -13.951 -22.742  0.00  0.00    -0.282 N 
ATOM     21  C   UNL     1      32.388 -12.513 -21.431  0.00  0.00    +0.053 C 
ATOM     22  C   UNL     1      32.631 -13.857 -21.586  0.00  0.00    +0.134 C 
ATOM     23  C   UNL     1      33.515 -12.682 -23.228  0.00  0.00    +0.219 C 
BRANCH  21  24
ATOM     24  C   UNL     1      31.606 -11.900 -20.273  0.00  0.00    +0.037 C 
ATOM     25  C   UNL     1      30.664 -10.767 -20.561  0.00  0.00    +0.006 C 
ATOM     26  C   UNL     1      31.949 -10.508 -19.830  0.00  0.00    +0.006 C 
ENDBRANCH  21  24
ENDBRANCH  12  20
ENDBRANCH   3  15
BRANCH   6  30
ATOM     27  N   UNL     1      33.636 -23.115 -17.251  0.00  0.00    -0.252 N 
ATOM     28  N   UNL     1      32.214 -22.369 -18.737  0.00  0.00    -0.129 NA
ATOM     29  N   UNL     1      31.523 -23.130 -17.815  0.00  0.00    -0.128 NA
ATOM     30  C   UNL     1      33.479 -22.373 -18.381  0.00  0.00    +0.188 C 
ATOM     31  C   UNL     1      32.391 -23.567 -16.933  0.00  0.00    +0.192 C 
BRANCH  27  32
ATOM     32  C   UNL     1      34.852 -23.380 -16.521  0.00  0.00    +0.080 C 
ATOM     33  C   UNL     1      35.062 -22.371 -15.390  0.00  0.00    +0.022 C 
ATOM     34  C   UNL     1      34.886 -24.813 -15.985  0.00  0.00    +0.022 C 
ENDBRANCH  27  32
ENDBRANCH   6  30
TORSDOF 5
ENDMDL
MODEL 9
REMARK VINA RESULT:      -9.7      2.087      9.997
REMARK  Name = 71245288
REMARK  5 active torsions:
REMARK  status: ('A' for Active; 'I' for Inactive)
REMARK    1  A    between atoms: C_3  and  C_9
REMARK    2  A    between atoms: C_6  and  N_14
REMARK    3  A    between atoms: C_15  and  C_18
REMARK    4  A    between atoms: C_22  and  C_30
REMARK    5  A    between atoms: N_27  and  C_32
REMARK                            x       y       z     vdW  Elec       q    Type
REMARK                         _______ _______ _______ _____ _____    ______ ____
ROOT
ATOM      1  O   UNL     1      31.509 -22.882 -17.795  0.00  0.00    -0.270 OA
ATOM      2  N   UNL     1      33.678 -22.040 -18.099  0.00  0.00    -0.259 N 
ATOM      3  C   UNL     1      32.679 -22.742 -17.409  0.00  0.00    +0.253 C 
ATOM      4  H   UNL     1      34.561 -22.015 -17.666  0.00  0.00    +0.157 HD
ATOM      5  N   UNL     1      34.680 -20.744 -19.824  0.00  0.00    -0.388 NA
ATOM      6  C   UNL     1      34.539 -20.109 -21.009  0.00  0.00    +0.166 C 
ATOM      7  C   UNL     1      33.581 -21.360 -19.338  0.00  0.00    +0.167 C 
ATOM      8  C   UNL     1      33.355 -20.062 -21.727  0.00  0.00    +0.031 C 
ATOM      9  C   UNL     1      32.352 -21.372 -19.978  0.00  0.00    +0.101 C 
ATOM     10  C   UNL     1      32.245 -20.708 -21.195  0.00  0.00    -0.015 C 
ENDROOT
BRANCH   3  15
ATOM     11  F   UNL     1      31.071 -22.687 -15.107  0.00  0.00    -0.204 F 
ATOM     12  C   UNL     1      34.718 -24.612 -14.883  0.00  0.00    +0.046 C 
ATOM     13  C   UNL     1      33.883 -24.558 -13.766  0.00  0.00    -0.006 C 
ATOM     14  C   UNL     1      34.321 -24.014 -16.079  0.00  0.00    +0.021 C 
ATOM     15  C   UNL     1      33.090 -23.364 -16.159  0.00  0.00    +0.082 C 
ATOM     16  C   UNL     1      32.653 -23.907 -13.845  0.00  0.00    +0.027 C 
ATOM     17  C   UNL     1      34.279 -25.187 -12.468  0.00  0.00    +0.032 C 
ATOM     18  C   UNL     1      32.257 -23.310 -15.042  0.00  0.00    +0.144 C 
BRANCH  12  20
ATOM     19  N   UNL     1      37.489 -26.821 -15.123  0.00  0.00    -0.255 NA
ATOM     20  N   UNL     1      35.944 -25.253 -14.824  0.00  0.00    -0.282 N 
ATOM     21  C   UNL     1      38.023 -25.756 -14.443  0.00  0.00    +0.053 C 
ATOM     22  C   UNL     1      37.084 -24.771 -14.245  0.00  0.00    +0.134 C 
ATOM     23  C   UNL     1      36.236 -26.486 -15.338  0.00  0.00    +0.219 C 
BRANCH  21  24
ATOM     24  C   UNL     1      39.472 -25.683 -13.970  0.00  0.00    +0.037 C 
ATOM     25  C   UNL     1      40.505 -25.115 -14.899  0.00  0.00    +0.006 C 
ATOM     26  C   UNL     1      40.484 -26.587 -14.608  0.00  0.00    +0.006 C 
ENDBRANCH  21  24
ENDBRANCH  12  20
ENDBRANCH   3  15
BRANCH   6  30
ATOM     27  N   UNL     1      35.807 -18.777 -22.664  0.00  0.00    -0.252 N 
ATOM     28  N   UNL     1      36.901 -19.443 -20.889  0.00  0.00    -0.129 NA
ATOM     29  N   UNL     1      37.764 -18.721 -21.689  0.00  0.00    -0.128 NA
ATOM     30  C   UNL     1      35.733 -19.465 -21.491  0.00  0.00    +0.188 C 
ATOM     31  C   UNL     1      37.091 -18.331 -22.747  0.00  0.00    +0.192 C 
BRANCH  27  32
ATOM     32  C   UNL     1      34.761 -18.552 -23.632  0.00  0.00    +0.080 C 
ATOM     33  C   UNL     1      34.863 -17.158 -24.257  0.00  0.00    +0.022 C 
ATOM     34  C   UNL     1      34.751 -19.635 -24.713  0.00  0.00    +0.022 C 
ENDBRANCH  27  32
ENDBRANCH   6  30
TORSDOF 5
ENDMDL
