MODEL 1
REMARK VINA RESULT:     -12.4      0.000      0.000
REMARK  Name = 24808489
REMARK  4 active torsions:
REMARK  status: ('A' for Active; 'I' for Inactive)
REMARK    1  A    between atoms: N_1  and  C_10
REMARK    2  A    between atoms: N_1  and  C_21
REMARK    3  A    between atoms: C_18  and  C_24
REMARK    4  A    between atoms: C_24  and  N_25
REMARK                            x       y       z     vdW  Elec       q    Type
REMARK                         _______ _______ _______ _____ _____    ______ ____
ROOT
ATOM      1  N   UNL     1      34.365 -22.776 -18.879  0.00  0.00    -0.311 N 
ATOM      2  H   UNL     1      34.992 -23.534 -18.877  0.00  0.00    +0.152 HD
ENDROOT
BRANCH   1  10
ATOM      3 BR   UNL     1      27.835 -23.054 -16.589  0.00  0.00    -0.049 Br
ATOM      4  O   UNL     1      35.610 -23.429 -16.765  0.00  0.00    -0.270 OA
ATOM      5  O   UNL     1      33.410 -24.384 -12.853  0.00  0.00    -0.270 OA
ATOM      6  N   UNL     1      34.472 -23.898 -14.831  0.00  0.00    -0.248 N 
ATOM      7  C   UNL     1      33.215 -23.283 -16.812  0.00  0.00    +0.068 C 
ATOM      8  C   UNL     1      31.965 -23.430 -16.035  0.00  0.00    +0.010 C 
ATOM      9  C   UNL     1      32.038 -23.806 -14.683  0.00  0.00    +0.054 C 
ATOM     10  C   UNL     1      33.266 -22.928 -18.109  0.00  0.00    +0.066 C 
ATOM     11  C   UNL     1      34.542 -23.534 -16.168  0.00  0.00    +0.253 C 
ATOM     12  C   UNL     1      30.689 -23.209 -16.583  0.00  0.00    +0.007 C 
ATOM     13  C   UNL     1      33.345 -24.056 -14.034  0.00  0.00    +0.252 C 
ATOM     14  C   UNL     1      30.875 -23.956 -13.911  0.00  0.00    +0.005 C 
ATOM     15  C   UNL     1      29.531 -23.359 -15.813  0.00  0.00    +0.035 C 
ATOM     16  C   UNL     1      29.624 -23.732 -14.478  0.00  0.00    +0.007 C 
ATOM     17  H   UNL     1      35.335 -24.069 -14.389  0.00  0.00    +0.158 HD
ENDBRANCH   1  10
BRANCH   1  21
ATOM     18  C   UNL     1      35.467 -19.510 -21.275  0.00  0.00    -0.043 C 
ATOM     19  C   UNL     1      36.449 -20.273 -20.641  0.00  0.00    -0.005 C 
ATOM     20  C   UNL     1      34.120 -19.832 -21.113  0.00  0.00    -0.005 C 
ATOM     21  C   UNL     1      34.735 -21.680 -19.682  0.00  0.00    +0.048 C 
ATOM     22  C   UNL     1      36.082 -21.358 -19.845  0.00  0.00    +0.014 C 
ATOM     23  C   UNL     1      33.754 -20.917 -20.316  0.00  0.00    +0.014 C 
BRANCH  18  24
ATOM     24  C   UNL     1      35.860 -18.350 -22.126  0.00  0.00    -0.050 C 
BRANCH  24  25
ATOM     25  N   UNL     1      34.791 -17.931 -23.021  0.00  0.00    +0.390 N 
ATOM     26  C   UNL     1      35.043 -16.619 -23.616  0.00  0.00    -0.077 C 
ATOM     27  C   UNL     1      34.626 -18.838 -24.156  0.00  0.00    -0.077 C 
ATOM     28  C   UNL     1      34.046 -16.568 -24.764  0.00  0.00    -0.025 C 
ATOM     29  C   UNL     1      33.771 -18.026 -25.118  0.00  0.00    -0.025 C 
ATOM     30  H   UNL     1      33.962 -17.920 -22.426  0.00  0.00    -0.079 HD
ENDBRANCH  24  25
ENDBRANCH  18  24
ENDBRANCH   1  21
TORSDOF 4
ENDMDL
MODEL 2
REMARK VINA RESULT:     -12.0      0.858      1.287
REMARK  Name = 24808489
REMARK  4 active torsions:
REMARK  status: ('A' for Active; 'I' for Inactive)
REMARK    1  A    between atoms: N_1  and  C_10
REMARK    2  A    between atoms: N_1  and  C_21
REMARK    3  A    between atoms: C_18  and  C_24
REMARK    4  A    between atoms: C_24  and  N_25
REMARK                            x       y       z     vdW  Elec       q    Type
REMARK                         _______ _______ _______ _____ _____    ______ ____
ROOT
ATOM      1  N   UNL     1      34.573 -22.506 -18.940  0.00  0.00    -0.311 N 
ATOM      2  H   UNL     1      35.294 -23.161 -18.803  0.00  0.00    +0.152 HD
ENDROOT
BRANCH   1  10
ATOM      3 BR   UNL     1      27.953 -23.074 -16.986  0.00  0.00    -0.049 Br
ATOM      4  O   UNL     1      35.736 -23.228 -16.802  0.00  0.00    -0.270 OA
ATOM      5  O   UNL     1      33.382 -24.435 -13.052  0.00  0.00    -0.270 OA
ATOM      6  N   UNL     1      34.522 -23.824 -14.951  0.00  0.00    -0.248 N 
ATOM      7  C   UNL     1      33.342 -23.146 -16.959  0.00  0.00    +0.068 C 
ATOM      8  C   UNL     1      32.062 -23.365 -16.251  0.00  0.00    +0.010 C 
ATOM      9  C   UNL     1      32.082 -23.805 -14.916  0.00  0.00    +0.054 C 
ATOM     10  C   UNL     1      33.443 -22.726 -18.232  0.00  0.00    +0.066 C 
ATOM     11  C   UNL     1      34.644 -23.392 -16.263  0.00  0.00    +0.253 C 
ATOM     12  C   UNL     1      30.807 -23.152 -16.849  0.00  0.00    +0.007 C 
ATOM     13  C   UNL     1      33.363 -24.051 -14.217  0.00  0.00    +0.252 C 
ATOM     14  C   UNL     1      30.888 -24.025 -14.210  0.00  0.00    +0.005 C 
ATOM     15  C   UNL     1      29.619 -23.371 -16.144  0.00  0.00    +0.035 C 
ATOM     16  C   UNL     1      29.660 -23.807 -14.826  0.00  0.00    +0.007 C 
ATOM     17  H   UNL     1      35.368 -23.993 -14.476  0.00  0.00    +0.158 HD
ENDBRANCH   1  10
BRANCH   1  21
ATOM     18  C   UNL     1      35.423 -19.407 -21.642  0.00  0.00    -0.043 C 
ATOM     19  C   UNL     1      36.457 -20.010 -20.924  0.00  0.00    -0.005 C 
ATOM     20  C   UNL     1      34.108 -19.834 -21.462  0.00  0.00    -0.005 C 
ATOM     21  C   UNL     1      34.858 -21.466 -19.846  0.00  0.00    +0.048 C 
ATOM     22  C   UNL     1      36.173 -21.039 -20.026  0.00  0.00    +0.014 C 
ATOM     23  C   UNL     1      33.825 -20.863 -20.564  0.00  0.00    +0.014 C 
BRANCH  18  24
ATOM     24  C   UNL     1      35.726 -18.307 -22.601  0.00  0.00    -0.050 C 
BRANCH  24  25
ATOM     25  N   UNL     1      34.814 -17.182 -22.462  0.00  0.00    +0.390 N 
ATOM     26  C   UNL     1      34.958 -16.502 -21.175  0.00  0.00    -0.077 C 
ATOM     27  C   UNL     1      35.046 -16.146 -23.467  0.00  0.00    -0.077 C 
ATOM     28  C   UNL     1      34.230 -15.185 -21.401  0.00  0.00    -0.025 C 
ATOM     29  C   UNL     1      34.286 -14.953 -22.908  0.00  0.00    -0.025 C 
ATOM     30  H   UNL     1      33.889 -17.601 -22.562  0.00  0.00    -0.079 HD
ENDBRANCH  24  25
ENDBRANCH  18  24
ENDBRANCH   1  21
TORSDOF 4
ENDMDL
MODEL 3
REMARK VINA RESULT:     -11.8      2.505      3.222
REMARK  Name = 24808489
REMARK  4 active torsions:
REMARK  status: ('A' for Active; 'I' for Inactive)
REMARK    1  A    between atoms: N_1  and  C_10
REMARK    2  A    between atoms: N_1  and  C_21
REMARK    3  A    between atoms: C_18  and  C_24
REMARK    4  A    between atoms: C_24  and  N_25
REMARK                            x       y       z     vdW  Elec       q    Type
REMARK                         _______ _______ _______ _____ _____    ______ ____
ROOT
ATOM      1  N   UNL     1      33.554 -22.771 -18.692  0.00  0.00    -0.311 N 
ATOM      2  H   UNL     1      32.732 -23.211 -19.006  0.00  0.00    +0.152 HD
ENDROOT
BRANCH   1  10
ATOM      3 BR   UNL     1      37.648 -24.987 -13.565  0.00  0.00    -0.049 Br
ATOM      4  O   UNL     1      31.322 -22.700 -17.486  0.00  0.00    -0.270 OA
ATOM      5  O   UNL     1      30.914 -23.888 -13.072  0.00  0.00    -0.270 OA
ATOM      6  N   UNL     1      31.162 -23.302 -15.279  0.00  0.00    -0.248 N 
ATOM      7  C   UNL     1      33.329 -23.392 -16.366  0.00  0.00    +0.068 C 
ATOM      8  C   UNL     1      33.919 -23.864 -15.094  0.00  0.00    +0.010 C 
ATOM      9  C   UNL     1      33.089 -24.031 -13.973  0.00  0.00    +0.054 C 
ATOM     10  C   UNL     1      34.024 -23.198 -17.500  0.00  0.00    +0.066 C 
ATOM     11  C   UNL     1      31.865 -23.095 -16.457  0.00  0.00    +0.253 C 
ATOM     12  C   UNL     1      35.285 -24.159 -14.944  0.00  0.00    +0.007 C 
ATOM     13  C   UNL     1      31.640 -23.741 -14.050  0.00  0.00    +0.252 C 
ATOM     14  C   UNL     1      33.611 -24.477 -12.747  0.00  0.00    +0.005 C 
ATOM     15  C   UNL     1      35.804 -24.602 -13.723  0.00  0.00    +0.035 C 
ATOM     16  C   UNL     1      34.968 -24.761 -12.626  0.00  0.00    +0.007 C 
ATOM     17  H   UNL     1      30.196 -23.111 -15.319  0.00  0.00    +0.158 HD
ENDBRANCH   1  10
BRANCH   1  21
ATOM     18  C   UNL     1      35.126 -19.826 -21.238  0.00  0.00    -0.043 C 
ATOM     19  C   UNL     1      35.985 -20.673 -20.536  0.00  0.00    -0.005 C 
ATOM     20  C   UNL     1      33.745 -19.957 -21.093  0.00  0.00    -0.005 C 
ATOM     21  C   UNL     1      34.081 -21.782 -19.546  0.00  0.00    +0.048 C 
ATOM     22  C   UNL     1      35.462 -21.651 -19.691  0.00  0.00    +0.014 C 
ATOM     23  C   UNL     1      33.223 -20.935 -20.247  0.00  0.00    +0.014 C 
BRANCH  18  24
ATOM     24  C   UNL     1      35.685 -18.780 -22.142  0.00  0.00    -0.050 C 
BRANCH  24  25
ATOM     25  N   UNL     1      34.677 -18.212 -23.024  0.00  0.00    +0.390 N 
ATOM     26  C   UNL     1      35.075 -16.912 -23.563  0.00  0.00    -0.077 C 
ATOM     27  C   UNL     1      34.426 -19.049 -24.197  0.00  0.00    -0.077 C 
ATOM     28  C   UNL     1      34.101 -16.707 -24.714  0.00  0.00    -0.025 C 
ATOM     29  C   UNL     1      33.672 -18.112 -25.129  0.00  0.00    -0.025 C 
ATOM     30  H   UNL     1      33.848 -18.135 -22.434  0.00  0.00    -0.079 HD
ENDBRANCH  24  25
ENDBRANCH  18  24
ENDBRANCH   1  21
TORSDOF 4
ENDMDL
MODEL 4
REMARK VINA RESULT:     -11.7      2.522      3.387
REMARK  Name = 24808489
REMARK  4 active torsions:
REMARK  status: ('A' for Active; 'I' for Inactive)
REMARK    1  A    between atoms: N_1  and  C_10
REMARK    2  A    between atoms: N_1  and  C_21
REMARK    3  A    between atoms: C_18  and  C_24
REMARK    4  A    between atoms: C_24  and  N_25
REMARK                            x       y       z     vdW  Elec       q    Type
REMARK                         _______ _______ _______ _____ _____    ______ ____
ROOT
ATOM      1  N   UNL     1      33.398 -22.395 -18.851  0.00  0.00    -0.311 N 
ATOM      2  H   UNL     1      32.489 -22.705 -19.064  0.00  0.00    +0.152 HD
ENDROOT
BRANCH   1  10
ATOM      3 BR   UNL     1      37.777 -24.768 -14.038  0.00  0.00    -0.049 Br
ATOM      4  O   UNL     1      31.203 -22.574 -17.588  0.00  0.00    -0.270 OA
ATOM      5  O   UNL     1      31.005 -24.156 -13.284  0.00  0.00    -0.270 OA
ATOM      6  N   UNL     1      31.148 -23.370 -15.438  0.00  0.00    -0.248 N 
ATOM      7  C   UNL     1      33.283 -23.226 -16.582  0.00  0.00    +0.068 C 
ATOM      8  C   UNL     1      33.940 -23.764 -15.371  0.00  0.00    +0.010 C 
ATOM      9  C   UNL     1      33.156 -24.080 -14.248  0.00  0.00    +0.054 C 
ATOM     10  C   UNL     1      33.930 -22.891 -17.712  0.00  0.00    +0.066 C 
ATOM     11  C   UNL     1      31.801 -23.018 -16.611  0.00  0.00    +0.253 C 
ATOM     12  C   UNL     1      35.326 -23.981 -15.281  0.00  0.00    +0.007 C 
ATOM     13  C   UNL     1      31.690 -23.880 -14.264  0.00  0.00    +0.252 C 
ATOM     14  C   UNL     1      33.742 -24.592 -13.079  0.00  0.00    +0.005 C 
ATOM     15  C   UNL     1      35.908 -24.491 -14.117  0.00  0.00    +0.035 C 
ATOM     16  C   UNL     1      35.117 -24.797 -13.017  0.00  0.00    +0.007 C 
ATOM     17  H   UNL     1      30.172 -23.239 -15.437  0.00  0.00    +0.158 HD
ENDBRANCH   1  10
BRANCH   1  21
ATOM     18  C   UNL     1      35.097 -19.716 -21.600  0.00  0.00    -0.043 C 
ATOM     19  C   UNL     1      33.709 -19.808 -21.481  0.00  0.00    -0.005 C 
ATOM     20  C   UNL     1      35.919 -20.515 -20.806  0.00  0.00    -0.005 C 
ATOM     21  C   UNL     1      33.968 -21.497 -19.773  0.00  0.00    +0.048 C 
ATOM     22  C   UNL     1      33.146 -20.698 -20.567  0.00  0.00    +0.014 C 
ATOM     23  C   UNL     1      35.355 -21.406 -19.893  0.00  0.00    +0.014 C 
BRANCH  18  24
ATOM     24  C   UNL     1      35.699 -18.764 -22.577  0.00  0.00    -0.050 C 
BRANCH  24  25
ATOM     25  N   UNL     1      34.736 -17.792 -23.071  0.00  0.00    +0.390 N 
ATOM     26  C   UNL     1      35.095 -16.420 -22.716  0.00  0.00    -0.077 C 
ATOM     27  C   UNL     1      34.640 -17.794 -24.531  0.00  0.00    -0.077 C 
ATOM     28  C   UNL     1      34.211 -15.587 -23.634  0.00  0.00    -0.025 C 
ATOM     29  C   UNL     1      33.910 -16.492 -24.825  0.00  0.00    -0.025 C 
ATOM     30  H   UNL     1      33.856 -18.074 -22.637  0.00  0.00    -0.079 HD
ENDBRANCH  24  25
ENDBRANCH  18  24
ENDBRANCH   1  21
TORSDOF 4
ENDMDL
MODEL 5
REMARK VINA RESULT:     -11.0      7.026     12.110
REMARK  Name = 24808489
REMARK  4 active torsions:
REMARK  status: ('A' for Active; 'I' for Inactive)
REMARK    1  A    between atoms: N_1  and  C_10
REMARK    2  A    between atoms: N_1  and  C_21
REMARK    3  A    between atoms: C_18  and  C_24
REMARK    4  A    between atoms: C_24  and  N_25
REMARK                            x       y       z     vdW  Elec       q    Type
REMARK                         _______ _______ _______ _____ _____    ______ ____
ROOT
ATOM      1  N   UNL     1      33.781 -13.965 -24.177  0.00  0.00    -0.311 N 
ATOM      2  H   UNL     1      33.827 -13.846 -25.153  0.00  0.00    +0.152 HD
ENDROOT
BRANCH   1  10
ATOM      3 BR   UNL     1      30.788 -10.038 -19.320  0.00  0.00    -0.049 Br
ATOM      4  O   UNL     1      34.221 -12.214 -25.962  0.00  0.00    -0.270 OA
ATOM      5  O   UNL     1      33.044  -7.815 -25.384  0.00  0.00    -0.270 OA
ATOM      6  N   UNL     1      33.617 -10.026 -25.632  0.00  0.00    -0.248 N 
ATOM      7  C   UNL     1      33.167 -11.644 -23.882  0.00  0.00    +0.068 C 
ATOM      8  C   UNL     1      32.576 -10.559 -23.067  0.00  0.00    +0.010 C 
ATOM      9  C   UNL     1      32.537  -9.254 -23.585  0.00  0.00    +0.054 C 
ATOM     10  C   UNL     1      33.256 -12.927 -23.489  0.00  0.00    +0.066 C 
ATOM     11  C   UNL     1      33.718 -11.354 -25.243  0.00  0.00    +0.253 C 
ATOM     12  C   UNL     1      32.043 -10.768 -21.782  0.00  0.00    +0.007 C 
ATOM     13  C   UNL     1      33.079  -8.955 -24.930  0.00  0.00    +0.252 C 
ATOM     14  C   UNL     1      31.986  -8.198 -22.842  0.00  0.00    +0.005 C 
ATOM     15  C   UNL     1      31.494  -9.715 -21.044  0.00  0.00    +0.035 C 
ATOM     16  C   UNL     1      31.465  -8.431 -21.573  0.00  0.00    +0.007 C 
ATOM     17  H   UNL     1      33.976  -9.815 -26.525  0.00  0.00    +0.158 HD
ENDBRANCH   1  10
BRANCH   1  21
ATOM     18  C   UNL     1      35.232 -17.622 -22.716  0.00  0.00    -0.043 C 
ATOM     19  C   UNL     1      34.998 -16.563 -21.838  0.00  0.00    -0.005 C 
ATOM     20  C   UNL     1      34.984 -17.465 -24.079  0.00  0.00    -0.005 C 
ATOM     21  C   UNL     1      34.268 -15.191 -23.687  0.00  0.00    +0.048 C 
ATOM     22  C   UNL     1      34.516 -15.348 -22.324  0.00  0.00    +0.014 C 
ATOM     23  C   UNL     1      34.502 -16.250 -24.565  0.00  0.00    +0.014 C 
BRANCH  18  24
ATOM     24  C   UNL     1      35.748 -18.921 -22.196  0.00  0.00    -0.050 C 
BRANCH  24  25
ATOM     25  N   UNL     1      34.914 -19.465 -21.134  0.00  0.00    +0.390 N 
ATOM     26  C   UNL     1      33.569 -19.801 -21.598  0.00  0.00    -0.077 C 
ATOM     27  C   UNL     1      35.450 -20.710 -20.586  0.00  0.00    -0.077 C 
ATOM     28  C   UNL     1      33.032 -20.681 -20.479  0.00  0.00    -0.025 C 
ATOM     29  C   UNL     1      34.269 -21.277 -19.812  0.00  0.00    -0.025 C 
ATOM     30  H   UNL     1      34.894 -18.724 -20.432  0.00  0.00    -0.079 HD
ENDBRANCH  24  25
ENDBRANCH  18  24
ENDBRANCH   1  21
TORSDOF 4
ENDMDL
MODEL 6
REMARK VINA RESULT:     -10.5      3.346      4.837
REMARK  Name = 24808489
REMARK  4 active torsions:
REMARK  status: ('A' for Active; 'I' for Inactive)
REMARK    1  A    between atoms: N_1  and  C_10
REMARK    2  A    between atoms: N_1  and  C_21
REMARK    3  A    between atoms: C_18  and  C_24
REMARK    4  A    between atoms: C_24  and  N_25
REMARK                            x       y       z     vdW  Elec       q    Type
REMARK                         _______ _______ _______ _____ _____    ______ ____
ROOT
ATOM      1  N   UNL     1      33.728 -23.755 -17.081  0.00  0.00    -0.311 N 
ATOM      2  H   UNL     1      32.897 -24.223 -16.843  0.00  0.00    +0.152 HD
ENDROOT
BRANCH   1  10
ATOM      3 BR   UNL     1      40.095 -25.693 -15.162  0.00  0.00    -0.049 Br
ATOM      4  O   UNL     1      32.631 -23.501 -14.806  0.00  0.00    -0.270 OA
ATOM      5  O   UNL     1      34.919 -24.303 -10.909  0.00  0.00    -0.270 OA
ATOM      6  N   UNL     1      33.811 -23.911 -12.883  0.00  0.00    -0.248 N 
ATOM      7  C   UNL     1      34.926 -24.173 -15.021  0.00  0.00    +0.068 C 
ATOM      8  C   UNL     1      36.159 -24.560 -14.303  0.00  0.00    +0.010 C 
ATOM      9  C   UNL     1      36.151 -24.602 -12.898  0.00  0.00    +0.054 C 
ATOM     10  C   UNL     1      34.818 -24.099 -16.360  0.00  0.00    +0.066 C 
ATOM     11  C   UNL     1      33.683 -23.830 -14.262  0.00  0.00    +0.253 C 
ATOM     12  C   UNL     1      37.358 -24.893 -14.958  0.00  0.00    +0.007 C 
ATOM     13  C   UNL     1      34.928 -24.265 -12.136  0.00  0.00    +0.252 C 
ATOM     14  C   UNL     1      37.302 -24.964 -12.179  0.00  0.00    +0.005 C 
ATOM     15  C   UNL     1      38.503 -25.253 -14.241  0.00  0.00    +0.035 C 
ATOM     16  C   UNL     1      38.475 -25.289 -12.853  0.00  0.00    +0.007 C 
ATOM     17  H   UNL     1      33.004 -23.688 -12.365  0.00  0.00    +0.158 HD
ENDBRANCH   1  10
BRANCH   1  21
ATOM     18  C   UNL     1      33.414 -20.961 -20.198  0.00  0.00    -0.043 C 
ATOM     19  C   UNL     1      32.270 -21.374 -19.513  0.00  0.00    -0.005 C 
ATOM     20  C   UNL     1      34.661 -21.476 -19.847  0.00  0.00    -0.005 C 
ATOM     21  C   UNL     1      33.623 -22.818 -18.127  0.00  0.00    +0.048 C 
ATOM     22  C   UNL     1      32.376 -22.303 -18.478  0.00  0.00    +0.014 C 
ATOM     23  C   UNL     1      34.766 -22.405 -18.812  0.00  0.00    +0.014 C 
BRANCH  18  24
ATOM     24  C   UNL     1      33.301 -19.968 -21.305  0.00  0.00    -0.050 C 
BRANCH  24  25
ATOM     25  N   UNL     1      34.583 -19.693 -21.937  0.00  0.00    +0.390 N 
ATOM     26  C   UNL     1      34.447 -19.360 -23.355  0.00  0.00    -0.077 C 
ATOM     27  C   UNL     1      35.265 -18.545 -21.340  0.00  0.00    -0.077 C 
ATOM     28  C   UNL     1      35.798 -18.748 -23.693  0.00  0.00    -0.025 C 
ATOM     29  C   UNL     1      36.337 -18.215 -22.368  0.00  0.00    -0.025 C 
ATOM     30  H   UNL     1      35.113 -20.555 -21.804  0.00  0.00    -0.079 HD
ENDBRANCH  24  25
ENDBRANCH  18  24
ENDBRANCH   1  21
TORSDOF 4
ENDMDL
MODEL 7
REMARK VINA RESULT:     -10.4      3.029      4.174
REMARK  Name = 24808489
REMARK  4 active torsions:
REMARK  status: ('A' for Active; 'I' for Inactive)
REMARK    1  A    between atoms: N_1  and  C_10
REMARK    2  A    between atoms: N_1  and  C_21
REMARK    3  A    between atoms: C_18  and  C_24
REMARK    4  A    between atoms: C_24  and  N_25
REMARK                            x       y       z     vdW  Elec       q    Type
REMARK                         _______ _______ _______ _____ _____    ______ ____
ROOT
ATOM      1  N   UNL     1      34.573 -22.603 -18.158  0.00  0.00    -0.311 N 
ATOM      2  H   UNL     1      33.623 -22.852 -18.103  0.00  0.00    +0.152 HD
ENDROOT
BRANCH   1  10
ATOM      3 BR   UNL     1      40.017 -25.448 -14.956  0.00  0.00    -0.049 Br
ATOM      4  O   UNL     1      32.825 -22.794 -16.327  0.00  0.00    -0.270 OA
ATOM      5  O   UNL     1      33.784 -24.663 -12.246  0.00  0.00    -0.270 OA
ATOM      6  N   UNL     1      33.346 -23.735 -14.301  0.00  0.00    -0.248 N 
ATOM      7  C   UNL     1      35.069 -23.584 -16.003  0.00  0.00    +0.068 C 
ATOM      8  C   UNL     1      36.016 -24.226 -15.065  0.00  0.00    +0.010 C 
ATOM      9  C   UNL     1      35.571 -24.592 -13.784  0.00  0.00    +0.054 C 
ATOM     10  C   UNL     1      35.382 -23.193 -17.251  0.00  0.00    +0.066 C 
ATOM     11  C   UNL     1      33.653 -23.325 -15.591  0.00  0.00    +0.253 C 
ATOM     12  C   UNL     1      37.357 -24.495 -15.392  0.00  0.00    +0.007 C 
ATOM     13  C   UNL     1      34.174 -24.342 -13.365  0.00  0.00    +0.252 C 
ATOM     14  C   UNL     1      36.439 -25.204 -12.865  0.00  0.00    +0.005 C 
ATOM     15  C   UNL     1      38.220 -25.104 -14.476  0.00  0.00    +0.035 C 
ATOM     16  C   UNL     1      37.762 -25.458 -13.214  0.00  0.00    +0.007 C 
ATOM     17  H   UNL     1      32.419 -23.572 -14.011  0.00  0.00    +0.158 HD
ENDBRANCH   1  10
BRANCH   1  21
ATOM     18  C   UNL     1      35.564 -19.855 -21.172  0.00  0.00    -0.043 C 
ATOM     19  C   UNL     1      34.231 -20.204 -20.957  0.00  0.00    -0.005 C 
ATOM     20  C   UNL     1      36.568 -20.419 -20.386  0.00  0.00    -0.005 C 
ATOM     21  C   UNL     1      34.906 -21.682 -19.169  0.00  0.00    +0.048 C 
ATOM     22  C   UNL     1      33.902 -21.117 -19.956  0.00  0.00    +0.014 C 
ATOM     23  C   UNL     1      36.240 -21.333 -19.384  0.00  0.00    +0.014 C 
BRANCH  18  24
ATOM     24  C   UNL     1      35.916 -18.879 -22.243  0.00  0.00    -0.050 C 
BRANCH  24  25
ATOM     25  N   UNL     1      34.761 -18.487 -23.038  0.00  0.00    +0.390 N 
ATOM     26  C   UNL     1      34.930 -17.175 -23.660  0.00  0.00    -0.077 C 
ATOM     27  C   UNL     1      34.511 -19.405 -24.149  0.00  0.00    -0.077 C 
ATOM     28  C   UNL     1      33.831 -17.151 -24.712  0.00  0.00    -0.025 C 
ATOM     29  C   UNL     1      33.554 -18.617 -25.031  0.00  0.00    -0.025 C 
ATOM     30  H   UNL     1      33.990 -18.489 -22.370  0.00  0.00    -0.079 HD
ENDBRANCH  24  25
ENDBRANCH  18  24
ENDBRANCH   1  21
TORSDOF 4
ENDMDL
MODEL 8
REMARK VINA RESULT:     -10.3      7.571     12.731
REMARK  Name = 24808489
REMARK  4 active torsions:
REMARK  status: ('A' for Active; 'I' for Inactive)
REMARK    1  A    between atoms: N_1  and  C_10
REMARK    2  A    between atoms: N_1  and  C_21
REMARK    3  A    between atoms: C_18  and  C_24
REMARK    4  A    between atoms: C_24  and  N_25
REMARK                            x       y       z     vdW  Elec       q    Type
REMARK                         _______ _______ _______ _____ _____    ______ ____
ROOT
ATOM      1  N   UNL     1      33.772 -12.977 -24.681  0.00  0.00    -0.311 N 
ATOM      2  H   UNL     1      33.998 -12.673 -25.589  0.00  0.00    +0.152 HD
ENDROOT
BRANCH   1  10
ATOM      3 BR   UNL     1      30.992  -9.662 -19.273  0.00  0.00    -0.049 Br
ATOM      4  O   UNL     1      34.096 -11.034 -26.281  0.00  0.00    -0.270 OA
ATOM      5  O   UNL     1      32.897  -6.747 -25.162  0.00  0.00    -0.270 OA
ATOM      6  N   UNL     1      33.483  -8.907 -25.682  0.00  0.00    -0.248 N 
ATOM      7  C   UNL     1      33.146 -10.714 -24.100  0.00  0.00    +0.068 C 
ATOM      8  C   UNL     1      32.586  -9.737 -23.141  0.00  0.00    +0.010 C 
ATOM      9  C   UNL     1      32.504  -8.384 -23.510  0.00  0.00    +0.054 C 
ATOM     10  C   UNL     1      33.272 -12.031 -23.857  0.00  0.00    +0.066 C 
ATOM     11  C   UNL     1      33.621 -10.267 -25.447  0.00  0.00    +0.253 C 
ATOM     12  C   UNL     1      32.124 -10.094 -21.862  0.00  0.00    +0.007 C 
ATOM     13  C   UNL     1      32.970  -7.929 -24.839  0.00  0.00    +0.252 C 
ATOM     14  C   UNL     1      31.979  -7.425 -22.627  0.00  0.00    +0.005 C 
ATOM     15  C   UNL     1      31.602  -9.139 -20.984  0.00  0.00    +0.035 C 
ATOM     16  C   UNL     1      31.529  -7.806 -21.367  0.00  0.00    +0.007 C 
ATOM     17  H   UNL     1      33.792  -8.593 -26.563  0.00  0.00    +0.158 HD
ENDBRANCH   1  10
BRANCH   1  21
ATOM     18  C   UNL     1      34.487 -17.038 -23.892  0.00  0.00    -0.043 C 
ATOM     19  C   UNL     1      34.758 -16.079 -22.915  0.00  0.00    -0.005 C 
ATOM     20  C   UNL     1      33.980 -16.647 -25.131  0.00  0.00    -0.005 C 
ATOM     21  C   UNL     1      34.013 -14.340 -24.417  0.00  0.00    +0.048 C 
ATOM     22  C   UNL     1      34.520 -14.730 -23.178  0.00  0.00    +0.014 C 
ATOM     23  C   UNL     1      33.743 -15.298 -25.394  0.00  0.00    +0.014 C 
BRANCH  18  24
ATOM     24  C   UNL     1      34.742 -18.480 -23.612  0.00  0.00    -0.050 C 
BRANCH  24  25
ATOM     25  N   UNL     1      35.277 -18.700 -22.276  0.00  0.00    +0.390 N 
ATOM     26  C   UNL     1      34.873 -19.990 -21.718  0.00  0.00    -0.077 C 
ATOM     27  C   UNL     1      36.739 -18.718 -22.256  0.00  0.00    -0.077 C 
ATOM     28  C   UNL     1      35.827 -20.169 -20.547  0.00  0.00    -0.025 C 
ATOM     29  C   UNL     1      37.052 -19.331 -20.899  0.00  0.00    -0.025 C 
ATOM     30  H   UNL     1      34.903 -17.923 -21.730  0.00  0.00    -0.079 HD
ENDBRANCH  24  25
ENDBRANCH  18  24
ENDBRANCH   1  21
TORSDOF 4
ENDMDL
MODEL 9
REMARK VINA RESULT:     -10.2      7.675     12.373
REMARK  Name = 24808489
REMARK  4 active torsions:
REMARK  status: ('A' for Active; 'I' for Inactive)
REMARK    1  A    between atoms: N_1  and  C_10
REMARK    2  A    between atoms: N_1  and  C_21
REMARK    3  A    between atoms: C_18  and  C_24
REMARK    4  A    between atoms: C_24  and  N_25
REMARK                            x       y       z     vdW  Elec       q    Type
REMARK                         _______ _______ _______ _____ _____    ______ ____
ROOT
ATOM      1  N   UNL     1      32.377 -13.063 -23.624  0.00  0.00    -0.311 N 
ATOM      2  H   UNL     1      31.425 -13.270 -23.755  0.00  0.00    +0.152 HD
ENDROOT
BRANCH   1  10
ATOM      3 BR   UNL     1      34.796  -6.726 -25.022  0.00  0.00    -0.049 Br
ATOM      4  O   UNL     1      31.252 -12.631 -21.389  0.00  0.00    -0.270 OA
ATOM      5  O   UNL     1      31.257  -8.478 -19.436  0.00  0.00    -0.270 OA
ATOM      6  N   UNL     1      31.278 -10.540 -20.448  0.00  0.00    -0.248 N 
ATOM      7  C   UNL     1      32.372 -10.878 -22.587  0.00  0.00    +0.068 C 
ATOM      8  C   UNL     1      32.747  -9.447 -22.592  0.00  0.00    +0.010 C 
ATOM      9  C   UNL     1      32.363  -8.633 -21.513  0.00  0.00    +0.054 C 
ATOM     10  C   UNL     1      32.685 -11.749 -23.562  0.00  0.00    +0.066 C 
ATOM     11  C   UNL     1      31.592 -11.452 -21.446  0.00  0.00    +0.253 C 
ATOM     12  C   UNL     1      33.478  -8.849 -23.634  0.00  0.00    +0.007 C 
ATOM     13  C   UNL     1      31.592  -9.188 -20.379  0.00  0.00    +0.252 C 
ATOM     14  C   UNL     1      32.699  -7.269 -21.482  0.00  0.00    +0.005 C 
ATOM     15  C   UNL     1      33.812  -7.491 -23.601  0.00  0.00    +0.035 C 
ATOM     16  C   UNL     1      33.424  -6.702 -22.526  0.00  0.00    +0.007 C 
ATOM     17  H   UNL     1      30.763 -10.899 -19.689  0.00  0.00    +0.158 HD
ENDBRANCH   1  10
BRANCH   1  21
ATOM     18  C   UNL     1      34.932 -16.381 -23.328  0.00  0.00    -0.043 C 
ATOM     19  C   UNL     1      34.696 -15.580 -22.210  0.00  0.00    -0.005 C 
ATOM     20  C   UNL     1      34.320 -16.079 -24.544  0.00  0.00    -0.005 C 
ATOM     21  C   UNL     1      33.235 -14.176 -23.525  0.00  0.00    +0.048 C 
ATOM     22  C   UNL     1      33.847 -14.478 -22.309  0.00  0.00    +0.014 C 
ATOM     23  C   UNL     1      33.471 -14.976 -24.643  0.00  0.00    +0.014 C 
BRANCH  18  24
ATOM     24  C   UNL     1      35.840 -17.559 -23.223  0.00  0.00    -0.050 C 
BRANCH  24  25
ATOM     25  N   UNL     1      35.619 -18.323 -22.004  0.00  0.00    +0.390 N 
ATOM     26  C   UNL     1      34.652 -19.404 -22.190  0.00  0.00    -0.077 C 
ATOM     27  C   UNL     1      36.836 -18.979 -21.528  0.00  0.00    -0.077 C 
ATOM     28  C   UNL     1      34.871 -20.273 -20.961  0.00  0.00    -0.025 C 
ATOM     29  C   UNL     1      36.305 -19.992 -20.524  0.00  0.00    -0.025 C 
ATOM     30  H   UNL     1      35.281 -17.629 -21.336  0.00  0.00    -0.079 HD
ENDBRANCH  24  25
ENDBRANCH  18  24
ENDBRANCH   1  21
TORSDOF 4
ENDMDL
