MODEL 1
REMARK VINA RESULT:     -13.2      0.000      0.000
REMARK  Name = 446399
REMARK  4 active torsions:
REMARK  status: ('A' for Active; 'I' for Inactive)
REMARK    1  A    between atoms: N_3  and  S_21
REMARK    2  A    between atoms: C_4  and  C_10
REMARK    3  A    between atoms: N_9  and  C_16
REMARK    4  A    between atoms: S_21  and  C_25
REMARK                            x       y       z     vdW  Elec       q    Type
REMARK                         _______ _______ _______ _____ _____    ______ ____
ROOT
ATOM      1  O   UNL     1      33.869 -15.757 -25.635  0.00  0.00    -0.275 OA
ATOM      2  N   UNL     1      33.963 -14.450 -23.717  0.00  0.00    -0.277 N 
ATOM      3  N   UNL     1      32.605 -12.483 -22.174  0.00  0.00    -0.152 NA
ATOM      4  C   UNL     1      34.179 -15.616 -24.449  0.00  0.00    +0.225 C 
ATOM      5  C   UNL     1      34.320 -14.250 -22.307  0.00  0.00    +0.113 C 
ATOM      6  C   UNL     1      33.396 -13.270 -24.371  0.00  0.00    +0.113 C 
ATOM      7  C   UNL     1      33.127 -13.719 -21.518  0.00  0.00    +0.117 C 
ATOM      8  C   UNL     1      32.199 -12.738 -23.590  0.00  0.00    +0.117 C 
ENDROOT
BRANCH   4  10
ATOM      9  N   UNL     1      34.686 -19.005 -21.908  0.00  0.00    -0.307 N 
ATOM     10  C   UNL     1      34.833 -16.761 -23.717  0.00  0.00    +0.080 C 
ATOM     11  C   UNL     1      34.170 -18.073 -24.128  0.00  0.00    +0.031 C 
ATOM     12  C   UNL     1      34.706 -16.561 -22.209  0.00  0.00    +0.031 C 
ATOM     13  C   UNL     1      34.744 -19.258 -23.352  0.00  0.00    +0.091 C 
ATOM     14  C   UNL     1      35.284 -17.746 -21.441  0.00  0.00    +0.091 C 
BRANCH   9  16
ATOM     15  N   UNL     1      34.686 -22.266 -19.227  0.00  0.00    -0.242 NA
ATOM     16  C   UNL     1      34.686 -20.087 -21.019  0.00  0.00    +0.051 C 
ATOM     17  C   UNL     1      33.484 -20.646 -20.559  0.00  0.00    +0.035 C 
ATOM     18  C   UNL     1      35.889 -20.646 -20.559  0.00  0.00    +0.035 C 
ATOM     19  C   UNL     1      33.538 -21.716 -19.680  0.00  0.00    +0.100 C 
ATOM     20  C   UNL     1      35.835 -21.716 -19.681  0.00  0.00    +0.100 C 
ENDBRANCH   9  16
ENDBRANCH   4  10
BRANCH   3  21
ATOM     21  S   UNL     1      31.488 -11.575 -21.246  0.00  0.00    +0.063 S 
ATOM     22  O   UNL     1      31.834 -11.690 -19.846  0.00  0.00    -0.153 OA
ATOM     23  O   UNL     1      30.148 -11.864 -21.710  0.00  0.00    -0.153 OA
BRANCH  21  25
ATOM     24 CL   UNL     1      33.270  -4.154 -24.913  0.00  0.00    -0.082 Cl
ATOM     25  C   UNL     1      31.905  -9.943 -21.773  0.00  0.00    +0.122 C 
ATOM     26  C   UNL     1      31.873  -9.638 -23.124  0.00  0.00    +0.020 C 
ATOM     27  C   UNL     1      32.257  -8.996 -20.829  0.00  0.00    +0.020 C 
ATOM     28  C   UNL     1      32.202  -8.344 -23.560  0.00  0.00    +0.001 C 
ATOM     29  C   UNL     1      32.564  -7.363 -22.606  0.00  0.00    +0.001 C 
ATOM     30  C   UNL     1      32.586  -7.706 -21.244  0.00  0.00    +0.001 C 
ATOM     31  C   UNL     1      32.179  -8.002 -24.922  0.00  0.00    +0.001 C 
ATOM     32  C   UNL     1      32.892  -6.069 -23.041  0.00  0.00    +0.011 C 
ATOM     33  C   UNL     1      32.509  -6.710 -25.337  0.00  0.00    +0.011 C 
ATOM     34  C   UNL     1      32.865  -5.746 -24.398  0.00  0.00    +0.058 C 
ENDBRANCH  21  25
ENDBRANCH   3  21
TORSDOF 4
ENDMDL
MODEL 2
REMARK VINA RESULT:     -13.1      4.570     11.482
REMARK  Name = 446399
REMARK  4 active torsions:
REMARK  status: ('A' for Active; 'I' for Inactive)
REMARK    1  A    between atoms: N_3  and  S_21
REMARK    2  A    between atoms: C_4  and  C_10
REMARK    3  A    between atoms: N_9  and  C_16
REMARK    4  A    between atoms: S_21  and  C_25
REMARK                            x       y       z     vdW  Elec       q    Type
REMARK                         _______ _______ _______ _____ _____    ______ ____
ROOT
ATOM      1  O   UNL     1      33.068 -14.105 -26.138  0.00  0.00    -0.275 OA
ATOM      2  N   UNL     1      33.636 -15.260 -24.205  0.00  0.00    -0.277 N 
ATOM      3  N   UNL     1      34.891 -17.597 -23.176  0.00  0.00    -0.152 NA
ATOM      4  C   UNL     1      33.444 -14.106 -24.963  0.00  0.00    +0.225 C 
ATOM      5  C   UNL     1      34.081 -15.296 -22.807  0.00  0.00    +0.113 C 
ATOM      6  C   UNL     1      33.322 -16.571 -24.774  0.00  0.00    +0.113 C 
ATOM      7  C   UNL     1      35.259 -16.252 -22.640  0.00  0.00    +0.117 C 
ATOM      8  C   UNL     1      34.497 -17.528 -24.616  0.00  0.00    +0.117 C 
ENDROOT
BRANCH   4  10
ATOM      9  N   UNL     1      33.157  -9.992 -23.872  0.00  0.00    -0.307 N 
ATOM     10  C   UNL     1      33.724 -12.793 -24.276  0.00  0.00    +0.080 C 
ATOM     11  C   UNL     1      32.474 -12.333 -23.529  0.00  0.00    +0.031 C 
ATOM     12  C   UNL     1      34.136 -11.741 -25.303  0.00  0.00    +0.031 C 
ATOM     13  C   UNL     1      32.681 -10.964 -22.882  0.00  0.00    +0.091 C 
ATOM     14  C   UNL     1      34.344 -10.377 -24.648  0.00  0.00    +0.091 C 
BRANCH   9  16
ATOM     15  N   UNL     1      32.530  -5.871 -23.200  0.00  0.00    -0.242 NA
ATOM     16  C   UNL     1      32.949  -8.625 -23.649  0.00  0.00    +0.051 C 
ATOM     17  C   UNL     1      34.021  -7.720 -23.653  0.00  0.00    +0.035 C 
ATOM     18  C   UNL     1      31.661  -8.118 -23.414  0.00  0.00    +0.035 C 
ATOM     19  C   UNL     1      33.763  -6.377 -23.428  0.00  0.00    +0.100 C 
ATOM     20  C   UNL     1      31.508  -6.758 -23.200  0.00  0.00    +0.100 C 
ENDBRANCH   9  16
ENDBRANCH   4  10
BRANCH   3  21
ATOM     21  S   UNL     1      35.965 -18.868 -22.770  0.00  0.00    +0.063 S 
ATOM     22  O   UNL     1      37.074 -18.326 -22.017  0.00  0.00    -0.153 OA
ATOM     23  O   UNL     1      36.187 -19.685 -23.943  0.00  0.00    -0.153 OA
BRANCH  21  25
ATOM     24 CL   UNL     1      32.146 -23.677 -16.941  0.00  0.00    -0.082 Cl
ATOM     25  C   UNL     1      34.949 -19.783 -21.654  0.00  0.00    +0.122 C 
ATOM     26  C   UNL     1      35.547 -20.595 -20.704  0.00  0.00    +0.020 C 
ATOM     27  C   UNL     1      33.574 -19.673 -21.746  0.00  0.00    +0.020 C 
ATOM     28  C   UNL     1      34.753 -21.330 -19.808  0.00  0.00    +0.001 C 
ATOM     29  C   UNL     1      33.344 -21.229 -19.889  0.00  0.00    +0.001 C 
ATOM     30  C   UNL     1      32.770 -20.396 -20.864  0.00  0.00    +0.001 C 
ATOM     31  C   UNL     1      35.327 -22.162 -18.834  0.00  0.00    +0.001 C 
ATOM     32  C   UNL     1      32.549 -21.963 -18.993  0.00  0.00    +0.011 C 
ATOM     33  C   UNL     1      34.522 -22.885 -17.952  0.00  0.00    +0.011 C 
ATOM     34  C   UNL     1      33.136 -22.786 -18.032  0.00  0.00    +0.058 C 
ENDBRANCH  21  25
ENDBRANCH   3  21
TORSDOF 4
ENDMDL
MODEL 3
REMARK VINA RESULT:     -12.0      4.120     11.431
REMARK  Name = 446399
REMARK  4 active torsions:
REMARK  status: ('A' for Active; 'I' for Inactive)
REMARK    1  A    between atoms: N_3  and  S_21
REMARK    2  A    between atoms: C_4  and  C_10
REMARK    3  A    between atoms: N_9  and  C_16
REMARK    4  A    between atoms: S_21  and  C_25
REMARK                            x       y       z     vdW  Elec       q    Type
REMARK                         _______ _______ _______ _____ _____    ______ ____
ROOT
ATOM      1  O   UNL     1      32.299 -12.174 -20.881  0.00  0.00    -0.275 OA
ATOM      2  N   UNL     1      33.443 -13.081 -22.688  0.00  0.00    -0.277 N 
ATOM      3  N   UNL     1      34.210 -15.498 -23.978  0.00  0.00    -0.152 NA
ATOM      4  C   UNL     1      32.632 -12.131 -22.069  0.00  0.00    +0.225 C 
ATOM      5  C   UNL     1      33.857 -13.060 -24.096  0.00  0.00    +0.113 C 
ATOM      6  C   UNL     1      34.011 -14.180 -21.907  0.00  0.00    +0.113 C 
ATOM      7  C   UNL     1      33.569 -14.401 -24.764  0.00  0.00    +0.117 C 
ATOM      8  C   UNL     1      33.721 -15.523 -22.566  0.00  0.00    +0.117 C 
ENDROOT
BRANCH   4  10
ATOM      9  N   UNL     1      32.183  -8.205 -23.674  0.00  0.00    -0.307 N 
ATOM     10  C   UNL     1      32.147 -10.993 -22.931  0.00  0.00    +0.080 C 
ATOM     11  C   UNL     1      33.328 -10.385 -23.683  0.00  0.00    +0.031 C 
ATOM     12  C   UNL     1      31.474  -9.930 -22.066  0.00  0.00    +0.031 C 
ATOM     13  C   UNL     1      32.901  -9.173 -24.510  0.00  0.00    +0.091 C 
ATOM     14  C   UNL     1      31.046  -8.725 -22.901  0.00  0.00    +0.091 C 
BRANCH   9  16
ATOM     15  N   UNL     1      32.038  -4.152 -24.850  0.00  0.00    -0.242 NA
ATOM     16  C   UNL     1      32.135  -6.860 -24.064  0.00  0.00    +0.051 C 
ATOM     17  C   UNL     1      33.306  -6.158 -24.387  0.00  0.00    +0.035 C 
ATOM     18  C   UNL     1      30.913  -6.173 -24.143  0.00  0.00    +0.035 C 
ATOM     19  C   UNL     1      33.205  -4.829 -24.768  0.00  0.00    +0.100 C 
ATOM     20  C   UNL     1      30.919  -4.844 -24.535  0.00  0.00    +0.100 C 
ENDBRANCH   9  16
ENDBRANCH   4  10
BRANCH   3  21
ATOM     21  S   UNL     1      34.271 -17.021 -24.759  0.00  0.00    +0.063 S 
ATOM     22  O   UNL     1      35.307 -16.994 -25.768  0.00  0.00    -0.153 OA
ATOM     23  O   UNL     1      32.923 -17.435 -25.085  0.00  0.00    -0.153 OA
BRANCH  21  25
ATOM     24 CL   UNL     1      35.848 -22.252 -18.291  0.00  0.00    -0.082 Cl
ATOM     25  C   UNL     1      34.841 -18.027 -23.426  0.00  0.00    +0.122 C 
ATOM     26  C   UNL     1      33.946 -18.859 -22.774  0.00  0.00    +0.020 C 
ATOM     27  C   UNL     1      36.172 -17.969 -23.056  0.00  0.00    +0.020 C 
ATOM     28  C   UNL     1      34.384 -19.667 -21.710  0.00  0.00    +0.001 C 
ATOM     29  C   UNL     1      35.743 -19.618 -21.319  0.00  0.00    +0.001 C 
ATOM     30  C   UNL     1      36.623 -18.764 -22.002  0.00  0.00    +0.001 C 
ATOM     31  C   UNL     1      33.502 -20.521 -21.029  0.00  0.00    +0.001 C 
ATOM     32  C   UNL     1      36.181 -20.426 -20.257  0.00  0.00    +0.011 C 
ATOM     33  C   UNL     1      33.955 -21.316 -19.974  0.00  0.00    +0.011 C 
ATOM     34  C   UNL     1      35.292 -21.268 -19.589  0.00  0.00    +0.058 C 
ENDBRANCH  21  25
ENDBRANCH   3  21
TORSDOF 4
ENDMDL
MODEL 4
REMARK VINA RESULT:     -11.7      3.763      6.404
REMARK  Name = 446399
REMARK  4 active torsions:
REMARK  status: ('A' for Active; 'I' for Inactive)
REMARK    1  A    between atoms: N_3  and  S_21
REMARK    2  A    between atoms: C_4  and  C_10
REMARK    3  A    between atoms: N_9  and  C_16
REMARK    4  A    between atoms: S_21  and  C_25
REMARK                            x       y       z     vdW  Elec       q    Type
REMARK                         _______ _______ _______ _____ _____    ______ ____
ROOT
ATOM      1  O   UNL     1      37.172 -20.803 -20.086  0.00  0.00    -0.275 OA
ATOM      2  N   UNL     1      35.364 -19.709 -21.049  0.00  0.00    -0.277 N 
ATOM      3  N   UNL     1      34.476 -18.234 -23.314  0.00  0.00    -0.152 NA
ATOM      4  C   UNL     1      35.960 -20.724 -20.303  0.00  0.00    +0.225 C 
ATOM      5  C   UNL     1      33.927 -19.586 -21.325  0.00  0.00    +0.113 C 
ATOM      6  C   UNL     1      36.177 -18.611 -21.573  0.00  0.00    +0.113 C 
ATOM      7  C   UNL     1      33.679 -19.397 -22.819  0.00  0.00    +0.117 C 
ATOM      8  C   UNL     1      35.938 -18.422 -23.066  0.00  0.00    +0.117 C 
ENDROOT
BRANCH   4  10
ATOM      9  N   UNL     1      33.143 -22.664 -17.753  0.00  0.00    -0.307 N 
ATOM     10  C   UNL     1      35.040 -21.778 -19.740  0.00  0.00    +0.080 C 
ATOM     11  C   UNL     1      33.611 -21.241 -19.708  0.00  0.00    +0.031 C 
ATOM     12  C   UNL     1      35.484 -22.165 -18.332  0.00  0.00    +0.031 C 
ATOM     13  C   UNL     1      32.650 -22.243 -19.070  0.00  0.00    +0.091 C 
ATOM     14  C   UNL     1      34.521 -23.170 -17.703  0.00  0.00    +0.091 C 
BRANCH   9  16
ATOM     15  N   UNL     1      30.417 -24.164 -14.900  0.00  0.00    -0.242 NA
ATOM     16  C   UNL     1      32.238 -23.162 -16.807  0.00  0.00    +0.051 C 
ATOM     17  C   UNL     1      30.859 -22.938 -16.936  0.00  0.00    +0.035 C 
ATOM     18  C   UNL     1      32.684 -23.899 -15.699  0.00  0.00    +0.035 C 
ATOM     19  C   UNL     1      30.006 -23.452 -15.973  0.00  0.00    +0.100 C 
ATOM     20  C   UNL     1      31.749 -24.370 -14.791  0.00  0.00    +0.100 C 
ENDBRANCH   9  16
ENDBRANCH   4  10
BRANCH   3  21
ATOM     21  S   UNL     1      34.065 -17.677 -24.881  0.00  0.00    +0.063 S 
ATOM     22  O   UNL     1      32.718 -18.102 -25.195  0.00  0.00    -0.153 OA
ATOM     23  O   UNL     1      35.164 -17.955 -25.780  0.00  0.00    -0.153 OA
BRANCH  21  25
ATOM     24 CL   UNL     1      33.641  -9.223 -24.673  0.00  0.00    -0.082 Cl
ATOM     25  C   UNL     1      34.028 -15.937 -24.588  0.00  0.00    +0.122 C 
ATOM     26  C   UNL     1      33.771 -15.077 -25.643  0.00  0.00    +0.020 C 
ATOM     27  C   UNL     1      34.257 -15.462 -23.310  0.00  0.00    +0.020 C 
ATOM     28  C   UNL     1      33.738 -13.689 -25.426  0.00  0.00    +0.001 C 
ATOM     29  C   UNL     1      33.970 -13.187 -24.124  0.00  0.00    +0.001 C 
ATOM     30  C   UNL     1      34.228 -14.086 -23.077  0.00  0.00    +0.001 C 
ATOM     31  C   UNL     1      33.480 -12.790 -26.474  0.00  0.00    +0.001 C 
ATOM     32  C   UNL     1      33.936 -11.799 -23.907  0.00  0.00    +0.011 C 
ATOM     33  C   UNL     1      33.451 -11.415 -26.240  0.00  0.00    +0.011 C 
ATOM     34  C   UNL     1      33.680 -10.920 -24.959  0.00  0.00    +0.058 C 
ENDBRANCH  21  25
ENDBRANCH   3  21
TORSDOF 4
ENDMDL
MODEL 5
REMARK VINA RESULT:     -11.6      4.393     11.487
REMARK  Name = 446399
REMARK  4 active torsions:
REMARK  status: ('A' for Active; 'I' for Inactive)
REMARK    1  A    between atoms: N_3  and  S_21
REMARK    2  A    between atoms: C_4  and  C_10
REMARK    3  A    between atoms: N_9  and  C_16
REMARK    4  A    between atoms: S_21  and  C_25
REMARK                            x       y       z     vdW  Elec       q    Type
REMARK                         _______ _______ _______ _____ _____    ______ ____
ROOT
ATOM      1  O   UNL     1      32.266 -13.754 -20.061  0.00  0.00    -0.275 OA
ATOM      2  N   UNL     1      33.818 -14.560 -21.590  0.00  0.00    -0.277 N 
ATOM      3  N   UNL     1      35.148 -16.887 -22.546  0.00  0.00    -0.152 NA
ATOM      4  C   UNL     1      32.781 -13.723 -21.182  0.00  0.00    +0.225 C 
ATOM      5  C   UNL     1      34.452 -14.549 -22.913  0.00  0.00    +0.113 C 
ATOM      6  C   UNL     1      34.410 -15.507 -20.643  0.00  0.00    +0.113 C 
ATOM      7  C   UNL     1      34.487 -15.954 -23.507  0.00  0.00    +0.117 C 
ATOM      8  C   UNL     1      34.442 -16.914 -21.229  0.00  0.00    +0.117 C 
ENDROOT
BRANCH   4  10
ATOM      9  N   UNL     1      32.106 -10.031 -23.210  0.00  0.00    -0.307 N 
ATOM     10  C   UNL     1      32.278 -12.729 -22.198  0.00  0.00    +0.080 C 
ATOM     11  C   UNL     1      33.465 -12.059 -22.886  0.00  0.00    +0.031 C 
ATOM     12  C   UNL     1      31.407 -11.677 -21.516  0.00  0.00    +0.031 C 
ATOM     13  C   UNL     1      33.008 -10.982 -23.869  0.00  0.00    +0.091 C 
ATOM     14  C   UNL     1      30.952 -10.607 -22.505  0.00  0.00    +0.091 C 
BRANCH   9  16
ATOM     15  N   UNL     1      31.672  -6.143 -24.795  0.00  0.00    -0.242 NA
ATOM     16  C   UNL     1      31.962  -8.741 -23.736  0.00  0.00    +0.051 C 
ATOM     17  C   UNL     1      32.764  -8.300 -24.800  0.00  0.00    +0.035 C 
ATOM     18  C   UNL     1      31.011  -7.849 -23.215  0.00  0.00    +0.035 C 
ATOM     19  C   UNL     1      32.582  -7.014 -25.285  0.00  0.00    +0.100 C 
ATOM     20  C   UNL     1      30.908  -6.584 -23.771  0.00  0.00    +0.100 C 
ENDBRANCH   9  16
ENDBRANCH   4  10
BRANCH   3  21
ATOM     21  S   UNL     1      35.569 -18.420 -23.182  0.00  0.00    +0.063 S 
ATOM     22  O   UNL     1      37.000 -18.601 -23.071  0.00  0.00    -0.153 OA
ATOM     23  O   UNL     1      34.889 -18.605 -24.446  0.00  0.00    -0.153 OA
BRANCH  21  25
ATOM     24 CL   UNL     1      33.005 -23.687 -17.069  0.00  0.00    -0.082 Cl
ATOM     25  C   UNL     1      34.798 -19.469 -21.991  0.00  0.00    +0.122 C 
ATOM     26  C   UNL     1      35.585 -20.159 -21.084  0.00  0.00    +0.020 C 
ATOM     27  C   UNL     1      33.420 -19.584 -21.983  0.00  0.00    +0.020 C 
ATOM     28  C   UNL     1      34.986 -20.998 -20.129  0.00  0.00    +0.001 C 
ATOM     29  C   UNL     1      33.577 -21.126 -20.108  0.00  0.00    +0.001 C 
ATOM     30  C   UNL     1      32.809 -20.413 -21.042  0.00  0.00    +0.001 C 
ATOM     31  C   UNL     1      35.755 -21.711 -19.195  0.00  0.00    +0.001 C 
ATOM     32  C   UNL     1      32.978 -21.964 -19.153  0.00  0.00    +0.011 C 
ATOM     33  C   UNL     1      35.143 -22.539 -18.254  0.00  0.00    +0.011 C 
ATOM     34  C   UNL     1      33.757 -22.666 -18.233  0.00  0.00    +0.058 C 
ENDBRANCH  21  25
ENDBRANCH   3  21
TORSDOF 4
ENDMDL
MODEL 6
REMARK VINA RESULT:     -11.6      2.914      4.626
REMARK  Name = 446399
REMARK  4 active torsions:
REMARK  status: ('A' for Active; 'I' for Inactive)
REMARK    1  A    between atoms: N_3  and  S_21
REMARK    2  A    between atoms: C_4  and  C_10
REMARK    3  A    between atoms: N_9  and  C_16
REMARK    4  A    between atoms: S_21  and  C_25
REMARK                            x       y       z     vdW  Elec       q    Type
REMARK                         _______ _______ _______ _____ _____    ______ ____
ROOT
ATOM      1  O   UNL     1      33.582 -12.203 -27.073  0.00  0.00    -0.275 OA
ATOM      2  N   UNL     1      33.648 -10.923 -25.137  0.00  0.00    -0.277 N 
ATOM      3  N   UNL     1      32.938  -8.424 -23.976  0.00  0.00    -0.152 NA
ATOM      4  C   UNL     1      33.523 -12.118 -25.844  0.00  0.00    +0.225 C 
ATOM      5  C   UNL     1      33.583 -10.786 -23.677  0.00  0.00    +0.113 C 
ATOM      6  C   UNL     1      33.934  -9.677 -25.849  0.00  0.00    +0.113 C 
ATOM      7  C   UNL     1      32.588  -9.699 -23.280  0.00  0.00    +0.117 C 
ATOM      8  C   UNL     1      32.939  -8.589 -25.461  0.00  0.00    +0.117 C 
ENDROOT
BRANCH   4  10
ATOM      9  N   UNL     1      34.270 -15.830 -23.880  0.00  0.00    -0.307 N 
ATOM     10  C   UNL     1      33.301 -13.365 -25.027  0.00  0.00    +0.080 C 
ATOM     11  C   UNL     1      34.253 -13.368 -23.833  0.00  0.00    +0.031 C 
ATOM     12  C   UNL     1      33.536 -14.604 -25.886  0.00  0.00    +0.031 C 
ATOM     13  C   UNL     1      34.123 -14.653 -23.017  0.00  0.00    +0.091 C 
ATOM     14  C   UNL     1      33.401 -15.884 -25.065  0.00  0.00    +0.091 C 
BRANCH   9  16
ATOM     15  N   UNL     1      35.479 -19.505 -22.191  0.00  0.00    -0.242 NA
ATOM     16  C   UNL     1      34.671 -17.049 -23.320  0.00  0.00    +0.051 C 
ATOM     17  C   UNL     1      34.450 -18.262 -23.991  0.00  0.00    +0.035 C 
ATOM     18  C   UNL     1      35.307 -17.096 -22.069  0.00  0.00    +0.035 C 
ATOM     19  C   UNL     1      34.866 -19.441 -23.394  0.00  0.00    +0.100 C 
ATOM     20  C   UNL     1      35.685 -18.328 -21.559  0.00  0.00    +0.100 C 
ENDBRANCH   9  16
ENDBRANCH   4  10
BRANCH   3  21
ATOM     21  S   UNL     1      32.136  -7.027 -23.395  0.00  0.00    +0.063 S 
ATOM     22  O   UNL     1      32.638  -6.708 -22.076  0.00  0.00    -0.153 OA
ATOM     23  O   UNL     1      30.717  -7.166 -23.639  0.00  0.00    -0.153 OA
BRANCH  21  25
ATOM     24 CL   UNL     1      36.160  -1.949 -28.845  0.00  0.00    -0.082 Cl
ATOM     25  C   UNL     1      32.766  -5.821 -24.519  0.00  0.00    +0.122 C 
ATOM     26  C   UNL     1      34.030  -5.992 -25.059  0.00  0.00    +0.020 C 
ATOM     27  C   UNL     1      31.986  -4.726 -24.843  0.00  0.00    +0.020 C 
ATOM     28  C   UNL     1      34.546  -5.042 -25.956  0.00  0.00    +0.001 C 
ATOM     29  C   UNL     1      33.760  -3.916 -26.298  0.00  0.00    +0.001 C 
ATOM     30  C   UNL     1      32.483  -3.773 -25.733  0.00  0.00    +0.001 C 
ATOM     31  C   UNL     1      35.823  -5.186 -26.521  0.00  0.00    +0.001 C 
ATOM     32  C   UNL     1      34.275  -2.965 -27.195  0.00  0.00    +0.011 C 
ATOM     33  C   UNL     1      36.319  -4.231 -27.410  0.00  0.00    +0.011 C 
ATOM     34  C   UNL     1      35.547  -3.123 -27.746  0.00  0.00    +0.058 C 
ENDBRANCH  21  25
ENDBRANCH   3  21
TORSDOF 4
ENDMDL
MODEL 7
REMARK VINA RESULT:     -11.4      2.388      3.480
REMARK  Name = 446399
REMARK  4 active torsions:
REMARK  status: ('A' for Active; 'I' for Inactive)
REMARK    1  A    between atoms: N_3  and  S_21
REMARK    2  A    between atoms: C_4  and  C_10
REMARK    3  A    between atoms: N_9  and  C_16
REMARK    4  A    between atoms: S_21  and  C_25
REMARK                            x       y       z     vdW  Elec       q    Type
REMARK                         _______ _______ _______ _____ _____    ______ ____
ROOT
ATOM      1  O   UNL     1      33.817 -13.861 -26.560  0.00  0.00    -0.275 OA
ATOM      2  N   UNL     1      33.885 -12.414 -24.745  0.00  0.00    -0.277 N 
ATOM      3  N   UNL     1      33.099  -9.855 -23.780  0.00  0.00    -0.152 NA
ATOM      4  C   UNL     1      33.793 -13.670 -25.341  0.00  0.00    +0.225 C 
ATOM      5  C   UNL     1      33.860 -12.152 -23.301  0.00  0.00    +0.113 C 
ATOM      6  C   UNL     1      34.091 -11.224 -25.572  0.00  0.00    +0.113 C 
ATOM      7  C   UNL     1      32.830 -11.078 -22.964  0.00  0.00    +0.117 C 
ATOM      8  C   UNL     1      33.060 -10.150 -25.245  0.00  0.00    +0.117 C 
ENDROOT
BRANCH   4  10
ATOM      9  N   UNL     1      34.819 -17.007 -22.889  0.00  0.00    -0.307 N 
ATOM     10  C   UNL     1      33.654 -14.849 -24.411  0.00  0.00    +0.080 C 
ATOM     11  C   UNL     1      34.443 -14.585 -23.132  0.00  0.00    +0.031 C 
ATOM     12  C   UNL     1      34.167 -16.116 -25.091  0.00  0.00    +0.031 C 
ATOM     13  C   UNL     1      34.401 -15.787 -22.189  0.00  0.00    +0.091 C 
ATOM     14  C   UNL     1      34.118 -17.313 -24.143  0.00  0.00    +0.091 C 
BRANCH   9  16
ATOM     15  N   UNL     1      36.329 -20.262 -20.664  0.00  0.00    -0.242 NA
ATOM     16  C   UNL     1      35.320 -18.086 -22.150  0.00  0.00    +0.051 C 
ATOM     17  C   UNL     1      36.685 -18.177 -21.837  0.00  0.00    +0.035 C 
ATOM     18  C   UNL     1      34.472 -19.112 -21.703  0.00  0.00    +0.035 C 
ATOM     19  C   UNL     1      37.130 -19.266 -21.104  0.00  0.00    +0.100 C 
ATOM     20  C   UNL     1      35.017 -20.158 -20.976  0.00  0.00    +0.100 C 
ENDBRANCH   9  16
ENDBRANCH   4  10
BRANCH   3  21
ATOM     21  S   UNL     1      32.252  -8.448 -23.294  0.00  0.00    +0.063 S 
ATOM     22  O   UNL     1      32.559  -8.168 -21.908  0.00  0.00    -0.153 OA
ATOM     23  O   UNL     1      30.883  -8.544 -23.751  0.00  0.00    -0.153 OA
BRANCH  21  25
ATOM     24 CL   UNL     1      35.063  -2.262 -28.346  0.00  0.00    -0.082 Cl
ATOM     25  C   UNL     1      33.073  -7.239 -24.284  0.00  0.00    +0.122 C 
ATOM     26  C   UNL     1      32.319  -6.337 -25.015  0.00  0.00    +0.020 C 
ATOM     27  C   UNL     1      34.455  -7.212 -24.311  0.00  0.00    +0.020 C 
ATOM     28  C   UNL     1      32.957  -5.368 -25.808  0.00  0.00    +0.001 C 
ATOM     29  C   UNL     1      34.371  -5.327 -25.847  0.00  0.00    +0.001 C 
ATOM     30  C   UNL     1      35.105  -6.256 -25.093  0.00  0.00    +0.001 C 
ATOM     31  C   UNL     1      32.221  -4.439 -26.562  0.00  0.00    +0.001 C 
ATOM     32  C   UNL     1      35.009  -4.358 -26.639  0.00  0.00    +0.011 C 
ATOM     33  C   UNL     1      32.872  -3.483 -27.344  0.00  0.00    +0.011 C 
ATOM     34  C   UNL     1      34.263  -3.444 -27.383  0.00  0.00    +0.058 C 
ENDBRANCH  21  25
ENDBRANCH   3  21
TORSDOF 4
ENDMDL
MODEL 8
REMARK VINA RESULT:     -11.1      6.194     12.643
REMARK  Name = 446399
REMARK  4 active torsions:
REMARK  status: ('A' for Active; 'I' for Inactive)
REMARK    1  A    between atoms: N_3  and  S_21
REMARK    2  A    between atoms: C_4  and  C_10
REMARK    3  A    between atoms: N_9  and  C_16
REMARK    4  A    between atoms: S_21  and  C_25
REMARK                            x       y       z     vdW  Elec       q    Type
REMARK                         _______ _______ _______ _____ _____    ______ ____
ROOT
ATOM      1  O   UNL     1      36.823 -18.397 -21.058  0.00  0.00    -0.275 OA
ATOM      2  N   UNL     1      35.140 -19.998 -21.071  0.00  0.00    -0.277 N 
ATOM      3  N   UNL     1      33.959 -22.142 -19.620  0.00  0.00    -0.152 NA
ATOM      4  C   UNL     1      35.670 -18.737 -21.338  0.00  0.00    +0.225 C 
ATOM      5  C   UNL     1      33.776 -20.434 -21.391  0.00  0.00    +0.113 C 
ATOM      6  C   UNL     1      35.986 -21.038 -20.482  0.00  0.00    +0.113 C 
ATOM      7  C   UNL     1      33.103 -21.045 -20.165  0.00  0.00    +0.117 C 
ATOM      8  C   UNL     1      35.321 -21.647 -19.253  0.00  0.00    +0.117 C 
ENDROOT
BRANCH   4  10
ATOM      9  N   UNL     1      34.337 -15.359 -23.577  0.00  0.00    -0.307 N 
ATOM     10  C   UNL     1      34.752 -17.748 -22.011  0.00  0.00    +0.080 C 
ATOM     11  C   UNL     1      35.049 -17.716 -23.508  0.00  0.00    +0.031 C 
ATOM     12  C   UNL     1      34.946 -16.359 -21.410  0.00  0.00    +0.031 C 
ATOM     13  C   UNL     1      34.198 -16.668 -24.225  0.00  0.00    +0.091 C 
ATOM     14  C   UNL     1      34.090 -15.318 -22.128  0.00  0.00    +0.091 C 
BRANCH   9  16
ATOM     15  N   UNL     1      33.527 -11.853 -25.784  0.00  0.00    -0.242 NA
ATOM     16  C   UNL     1      34.069 -14.196 -24.309  0.00  0.00    +0.051 C 
ATOM     17  C   UNL     1      34.176 -12.928 -23.718  0.00  0.00    +0.035 C 
ATOM     18  C   UNL     1      33.683 -14.263 -25.657  0.00  0.00    +0.035 C 
ATOM     19  C   UNL     1      33.900 -11.807 -24.485  0.00  0.00    +0.100 C 
ATOM     20  C   UNL     1      33.429 -13.083 -26.337  0.00  0.00    +0.100 C 
ENDBRANCH   9  16
ENDBRANCH   4  10
BRANCH   3  21
ATOM     21  S   UNL     1      33.208 -23.149 -18.456  0.00  0.00    +0.063 S 
ATOM     22  O   UNL     1      33.144 -24.499 -18.972  0.00  0.00    -0.153 OA
ATOM     23  O   UNL     1      32.024 -22.485 -17.956  0.00  0.00    -0.153 OA
BRANCH  21  25
ATOM     24 CL   UNL     1      38.327 -23.734 -11.738  0.00  0.00    -0.082 Cl
ATOM     25  C   UNL     1      34.431 -23.114 -17.184  0.00  0.00    +0.122 C 
ATOM     26  C   UNL     1      34.223 -23.841 -16.024  0.00  0.00    +0.020 C 
ATOM     27  C   UNL     1      35.575 -22.361 -17.368  0.00  0.00    +0.020 C 
ATOM     28  C   UNL     1      35.187 -23.823 -15.002  0.00  0.00    +0.001 C 
ATOM     29  C   UNL     1      36.364 -23.057 -15.174  0.00  0.00    +0.001 C 
ATOM     30  C   UNL     1      36.543 -22.332 -16.363  0.00  0.00    +0.001 C 
ATOM     31  C   UNL     1      35.007 -24.549 -13.813  0.00  0.00    +0.001 C 
ATOM     32  C   UNL     1      37.329 -23.040 -14.153  0.00  0.00    +0.011 C 
ATOM     33  C   UNL     1      35.976 -24.520 -12.808  0.00  0.00    +0.011 C 
ATOM     34  C   UNL     1      37.134 -23.766 -12.978  0.00  0.00    +0.058 C 
ENDBRANCH  21  25
ENDBRANCH   3  21
TORSDOF 4
ENDMDL
MODEL 9
REMARK VINA RESULT:     -10.7      5.166     11.788
REMARK  Name = 446399
REMARK  4 active torsions:
REMARK  status: ('A' for Active; 'I' for Inactive)
REMARK    1  A    between atoms: N_3  and  S_21
REMARK    2  A    between atoms: C_4  and  C_10
REMARK    3  A    between atoms: N_9  and  C_16
REMARK    4  A    between atoms: S_21  and  C_25
REMARK                            x       y       z     vdW  Elec       q    Type
REMARK                         _______ _______ _______ _____ _____    ______ ____
ROOT
ATOM      1  O   UNL     1      34.219 -17.614 -25.508  0.00  0.00    -0.275 OA
ATOM      2  N   UNL     1      34.426 -17.975 -23.223  0.00  0.00    -0.277 N 
ATOM      3  N   UNL     1      35.433 -19.737 -21.230  0.00  0.00    -0.152 NA
ATOM      4  C   UNL     1      34.392 -17.178 -24.367  0.00  0.00    +0.225 C 
ATOM      5  C   UNL     1      34.630 -17.490 -21.853  0.00  0.00    +0.113 C 
ATOM      6  C   UNL     1      34.180 -19.414 -23.326  0.00  0.00    +0.113 C 
ATOM      7  C   UNL     1      35.739 -18.277 -21.161  0.00  0.00    +0.117 C 
ATOM      8  C   UNL     1      35.289 -20.205 -22.642  0.00  0.00    +0.117 C 
ENDROOT
BRANCH   4  10
ATOM      9  N   UNL     1      33.520 -13.072 -23.612  0.00  0.00    -0.307 N 
ATOM     10  C   UNL     1      34.585 -15.697 -24.163  0.00  0.00    +0.080 C 
ATOM     11  C   UNL     1      34.106 -15.309 -22.766  0.00  0.00    +0.031 C 
ATOM     12  C   UNL     1      33.806 -14.916 -25.218  0.00  0.00    +0.031 C 
ATOM     13  C   UNL     1      34.205 -13.801 -22.539  0.00  0.00    +0.091 C 
ATOM     14  C   UNL     1      33.913 -13.411 -24.987  0.00  0.00    +0.091 C 
BRANCH   9  16
ATOM     15  N   UNL     1      32.139  -9.146 -22.901  0.00  0.00    -0.242 NA
ATOM     16  C   UNL     1      33.062 -11.769 -23.376  0.00  0.00    +0.051 C 
ATOM     17  C   UNL     1      32.061 -11.515 -22.425  0.00  0.00    +0.035 C 
ATOM     18  C   UNL     1      33.589 -10.678 -24.084  0.00  0.00    +0.035 C 
ATOM     19  C   UNL     1      31.643 -10.209 -22.229  0.00  0.00    +0.100 C 
ATOM     20  C   UNL     1      33.102  -9.409 -23.813  0.00  0.00    +0.100 C 
ENDBRANCH   9  16
ENDBRANCH   4  10
BRANCH   3  21
ATOM     21  S   UNL     1      36.393 -20.736 -20.222  0.00  0.00    +0.063 S 
ATOM     22  O   UNL     1      37.161 -19.902 -19.324  0.00  0.00    -0.153 OA
ATOM     23  O   UNL     1      37.035 -21.745 -21.037  0.00  0.00    -0.153 OA
BRANCH  21  25
ATOM     24 CL   UNL     1      31.210 -24.774 -14.881  0.00  0.00    -0.082 Cl
ATOM     25  C   UNL     1      35.127 -21.526 -19.278  0.00  0.00    +0.122 C 
ATOM     26  C   UNL     1      35.454 -22.120 -18.070  0.00  0.00    +0.020 C 
ATOM     27  C   UNL     1      33.832 -21.536 -19.759  0.00  0.00    +0.020 C 
ATOM     28  C   UNL     1      34.458 -22.752 -17.306  0.00  0.00    +0.001 C 
ATOM     29  C   UNL     1      33.127 -22.771 -17.785  0.00  0.00    +0.001 C 
ATOM     30  C   UNL     1      32.830 -22.159 -19.013  0.00  0.00    +0.001 C 
ATOM     31  C   UNL     1      34.756 -23.364 -16.078  0.00  0.00    +0.001 C 
ATOM     32  C   UNL     1      32.131 -23.402 -17.021  0.00  0.00    +0.011 C 
ATOM     33  C   UNL     1      33.754 -23.987 -15.333  0.00  0.00    +0.011 C 
ATOM     34  C   UNL     1      32.444 -24.007 -15.804  0.00  0.00    +0.058 C 
ENDBRANCH  21  25
ENDBRANCH   3  21
TORSDOF 4
ENDMDL
