MODEL 1
REMARK VINA RESULT:     -12.0      0.000      0.000
REMARK  Name = 118598754
REMARK  1 active torsions:
REMARK  status: ('A' for Active; 'I' for Inactive)
REMARK    1  A    between atoms: C_15  and  N_19
REMARK                            x       y       z     vdW  Elec       q    Type
REMARK                         _______ _______ _______ _____ _____    ______ ____
ROOT
ATOM      1  O   UNL     1      31.753 -24.738 -13.232  0.00  0.00    -0.269 OA
ATOM      2  O   UNL     1      36.361 -23.356 -16.538  0.00  0.00    -0.268 OA
ATOM      3  N   UNL     1      34.527 -23.907 -15.224  0.00  0.00    -0.238 N 
ATOM      4  N   UNL     1      34.090 -24.722 -13.120  0.00  0.00    -0.288 N 
ATOM      5  C   UNL     1      35.208 -24.363 -13.986  0.00  0.00    +0.124 C 
ATOM      6  C   UNL     1      36.083 -25.604 -14.251  0.00  0.00    +0.038 C 
ATOM      7  C   UNL     1      36.023 -23.225 -13.341  0.00  0.00    +0.038 C 
ATOM      8  C   UNL     1      36.806 -23.687 -12.111  0.00  0.00    +0.003 C 
ATOM      9  C   UNL     1      36.865 -26.046 -13.013  0.00  0.00    +0.003 C 
ATOM     10  C   UNL     1      37.678 -24.899 -12.421  0.00  0.00    +0.000 C 
ATOM     11  C   UNL     1      33.153 -23.999 -15.072  0.00  0.00    +0.105 C 
ATOM     12  C   UNL     1      32.851 -24.525 -13.715  0.00  0.00    +0.260 C 
ATOM     13  C   UNL     1      35.146 -23.449 -16.380  0.00  0.00    +0.267 C 
ATOM     14  C   UNL     1      32.308 -23.648 -16.051  0.00  0.00    -0.002 C 
ATOM     15  C   UNL     1      34.212 -23.049 -17.493  0.00  0.00    +0.104 C 
ATOM     16  C   UNL     1      32.887 -23.159 -17.291  0.00  0.00    +0.016 C 
ATOM     17  C   UNL     1      30.810 -23.698 -16.017  0.00  0.00    +0.033 C 
ATOM     18  H   UNL     1      34.202 -25.069 -12.206  0.00  0.00    +0.151 HD
ENDROOT
BRANCH  15  19
ATOM     19  N   UNL     1      34.794 -22.596 -18.641  0.00  0.00    -0.298 N 
ATOM     20  N   UNL     1      32.961 -21.558 -19.720  0.00  0.00    -0.233 NA
ATOM     21  N   UNL     1      33.361 -19.833 -21.354  0.00  0.00    -0.234 NA
ATOM     22  C   UNL     1      34.297 -21.663 -19.558  0.00  0.00    +0.113 C 
ATOM     23  C   UNL     1      35.215 -20.899 -20.248  0.00  0.00    +0.121 C 
ATOM     24  C   UNL     1      34.684 -19.991 -21.143  0.00  0.00    +0.107 C 
ATOM     25  C   UNL     1      32.568 -20.637 -20.620  0.00  0.00    +0.252 C 
ATOM     26  H   UNL     1      35.678 -22.974 -18.851  0.00  0.00    +0.153 HD
ATOM     27  N   UNL     1      35.595 -19.189 -21.873  0.00  0.00    -0.346 N 
ATOM     28  H   UNL     1      35.259 -18.528 -22.522  0.00  0.00    +0.143 HD
ATOM     29  H   UNL     1      36.564 -19.290 -21.733  0.00  0.00    +0.143 HD
ENDBRANCH  15  19
TORSDOF 1
ENDMDL
MODEL 2
REMARK VINA RESULT:     -10.7     10.474     14.946
REMARK  Name = 118598754
REMARK  1 active torsions:
REMARK  status: ('A' for Active; 'I' for Inactive)
REMARK    1  A    between atoms: C_15  and  N_19
REMARK                            x       y       z     vdW  Elec       q    Type
REMARK                         _______ _______ _______ _____ _____    ______ ____
ROOT
ATOM      1  O   UNL     1      31.306  -8.608 -20.896  0.00  0.00    -0.269 OA
ATOM      2  O   UNL     1      34.262 -11.032 -25.306  0.00  0.00    -0.268 OA
ATOM      3  N   UNL     1      33.086 -10.068 -23.550  0.00  0.00    -0.238 N 
ATOM      4  N   UNL     1      32.605  -7.974 -22.736  0.00  0.00    -0.288 N 
ATOM      5  C   UNL     1      33.330  -8.628 -23.819  0.00  0.00    +0.124 C 
ATOM      6  C   UNL     1      34.829  -8.285 -23.727  0.00  0.00    +0.038 C 
ATOM      7  C   UNL     1      32.736  -8.203 -25.177  0.00  0.00    +0.038 C 
ATOM      8  C   UNL     1      33.045  -6.745 -25.521  0.00  0.00    +0.003 C 
ATOM      9  C   UNL     1      35.121  -6.827 -24.084  0.00  0.00    +0.003 C 
ATOM     10  C   UNL     1      34.540  -6.453 -25.444  0.00  0.00    +0.000 C 
ATOM     11  C   UNL     1      32.298 -10.214 -22.420  0.00  0.00    +0.105 C 
ATOM     12  C   UNL     1      31.976  -8.868 -21.878  0.00  0.00    +0.260 C 
ATOM     13  C   UNL     1      33.564 -11.136 -24.300  0.00  0.00    +0.267 C 
ATOM     14  C   UNL     1      31.935 -11.420 -21.962  0.00  0.00    -0.002 C 
ATOM     15  C   UNL     1      33.165 -12.500 -23.800  0.00  0.00    +0.104 C 
ATOM     16  C   UNL     1      32.400 -12.583 -22.698  0.00  0.00    +0.016 C 
ATOM     17  C   UNL     1      31.090 -11.715 -20.759  0.00  0.00    +0.033 C 
ATOM     18  H   UNL     1      32.565  -6.997 -22.623  0.00  0.00    +0.151 HD
ENDROOT
BRANCH  15  19
ATOM     19  N   UNL     1      33.622 -13.567 -24.519  0.00  0.00    -0.298 N 
ATOM     20  N   UNL     1      34.612 -14.887 -22.823  0.00  0.00    -0.233 NA
ATOM     21  N   UNL     1      34.873 -17.260 -23.158  0.00  0.00    -0.234 NA
ATOM     22  C   UNL     1      34.049 -14.814 -24.047  0.00  0.00    +0.113 C 
ATOM     23  C   UNL     1      33.867 -15.903 -24.874  0.00  0.00    +0.121 C 
ATOM     24  C   UNL     1      34.302 -17.113 -24.372  0.00  0.00    +0.107 C 
ATOM     25  C   UNL     1      34.995 -16.123 -22.447  0.00  0.00    +0.252 C 
ATOM     26  H   UNL     1      33.653 -13.444 -25.495  0.00  0.00    +0.153 HD
ATOM     27  N   UNL     1      34.136 -18.256 -25.193  0.00  0.00    -0.346 N 
ATOM     28  H   UNL     1      34.432 -19.139 -24.874  0.00  0.00    +0.143 HD
ATOM     29  H   UNL     1      33.722 -18.168 -26.082  0.00  0.00    +0.143 HD
ENDBRANCH  15  19
TORSDOF 1
ENDMDL
MODEL 3
REMARK VINA RESULT:      -9.6      2.753      6.572
REMARK  Name = 118598754
REMARK  1 active torsions:
REMARK  status: ('A' for Active; 'I' for Inactive)
REMARK    1  A    between atoms: C_15  and  N_19
REMARK                            x       y       z     vdW  Elec       q    Type
REMARK                         _______ _______ _______ _____ _____    ______ ____
ROOT
ATOM      1  O   UNL     1      32.082 -21.866 -19.601  0.00  0.00    -0.269 OA
ATOM      2  O   UNL     1      33.987 -24.076 -14.546  0.00  0.00    -0.268 OA
ATOM      3  N   UNL     1      33.230 -23.197 -16.559  0.00  0.00    -0.238 N 
ATOM      4  N   UNL     1      31.237 -22.810 -17.634  0.00  0.00    -0.288 N 
ATOM      5  C   UNL     1      31.763 -23.352 -16.387  0.00  0.00    +0.124 C 
ATOM      6  C   UNL     1      31.367 -24.836 -16.255  0.00  0.00    +0.038 C 
ATOM      7  C   UNL     1      31.246 -22.521 -15.197  0.00  0.00    +0.038 C 
ATOM      8  C   UNL     1      29.752 -22.728 -14.942  0.00  0.00    +0.003 C 
ATOM      9  C   UNL     1      29.872 -25.023 -15.990  0.00  0.00    +0.003 C 
ATOM     10  C   UNL     1      29.406 -24.205 -14.790  0.00  0.00    +0.000 C 
ATOM     11  C   UNL     1      33.506 -22.621 -17.788  0.00  0.00    +0.105 C 
ATOM     12  C   UNL     1      32.227 -22.362 -18.499  0.00  0.00    +0.260 C 
ATOM     13  C   UNL     1      34.207 -23.565 -15.643  0.00  0.00    +0.267 C 
ATOM     14  C   UNL     1      34.762 -22.375 -18.187  0.00  0.00    -0.002 C 
ATOM     15  C   UNL     1      35.626 -23.296 -16.074  0.00  0.00    +0.104 C 
ATOM     16  C   UNL     1      35.836 -22.735 -17.277  0.00  0.00    +0.016 C 
ATOM     17  C   UNL     1      35.196 -21.759 -19.484  0.00  0.00    +0.033 C 
ATOM     18  H   UNL     1      30.276 -22.764 -17.843  0.00  0.00    +0.151 HD
ENDROOT
BRANCH  15  19
ATOM     19  N   UNL     1      36.606 -23.648 -15.192  0.00  0.00    -0.298 N 
ATOM     20  N   UNL     1      36.568 -26.008 -15.366  0.00  0.00    -0.233 NA
ATOM     21  N   UNL     1      38.530 -27.278 -14.776  0.00  0.00    -0.234 NA
ATOM     22  C   UNL     1      37.248 -24.884 -15.055  0.00  0.00    +0.113 C 
ATOM     23  C   UNL     1      38.552 -24.877 -14.604  0.00  0.00    +0.121 C 
ATOM     24  C   UNL     1      39.149 -26.115 -14.482  0.00  0.00    +0.107 C 
ATOM     25  C   UNL     1      37.260 -27.153 -15.206  0.00  0.00    +0.252 C 
ATOM     26  H   UNL     1      36.900 -22.941 -14.574  0.00  0.00    +0.153 HD
ATOM     27  N   UNL     1      40.487 -26.150 -14.019  0.00  0.00    -0.346 N 
ATOM     28  H   UNL     1      40.951 -27.013 -13.918  0.00  0.00    +0.143 HD
ATOM     29  H   UNL     1      40.955 -25.312 -13.800  0.00  0.00    +0.143 HD
ENDBRANCH  15  19
TORSDOF 1
ENDMDL
MODEL 4
REMARK VINA RESULT:      -9.4      2.766      4.951
REMARK  Name = 118598754
REMARK  1 active torsions:
REMARK  status: ('A' for Active; 'I' for Inactive)
REMARK    1  A    between atoms: C_15  and  N_19
REMARK                            x       y       z     vdW  Elec       q    Type
REMARK                         _______ _______ _______ _____ _____    ______ ____
ROOT
ATOM      1  O   UNL     1      38.156 -22.230 -16.630  0.00  0.00    -0.269 OA
ATOM      2  O   UNL     1      33.300 -24.852 -14.730  0.00  0.00    -0.268 OA
ATOM      3  N   UNL     1      35.231 -23.807 -15.487  0.00  0.00    -0.238 N 
ATOM      4  N   UNL     1      37.416 -23.530 -14.831  0.00  0.00    -0.288 N 
ATOM      5  C   UNL     1      36.177 -24.166 -14.400  0.00  0.00    +0.124 C 
ATOM      6  C   UNL     1      35.730 -23.576 -13.048  0.00  0.00    +0.038 C 
ATOM      7  C   UNL     1      36.377 -25.692 -14.311  0.00  0.00    +0.038 C 
ATOM      8  C   UNL     1      37.279 -26.099 -13.145  0.00  0.00    +0.003 C 
ATOM      9  C   UNL     1      36.637 -24.001 -11.893  0.00  0.00    +0.003 C 
ATOM     10  C   UNL     1      36.788 -25.518 -11.823  0.00  0.00    +0.000 C 
ATOM     11  C   UNL     1      35.876 -23.039 -16.442  0.00  0.00    +0.105 C 
ATOM     12  C   UNL     1      37.293 -22.849 -16.035  0.00  0.00    +0.260 C 
ATOM     13  C   UNL     1      33.893 -24.170 -15.564  0.00  0.00    +0.267 C 
ATOM     14  C   UNL     1      35.240 -22.583 -17.531  0.00  0.00    -0.002 C 
ATOM     15  C   UNL     1      33.160 -23.667 -16.780  0.00  0.00    +0.104 C 
ATOM     16  C   UNL     1      33.835 -22.925 -17.676  0.00  0.00    +0.016 C 
ATOM     17  C   UNL     1      35.816 -21.748 -18.634  0.00  0.00    +0.033 C 
ATOM     18  H   UNL     1      38.257 -23.578 -14.320  0.00  0.00    +0.151 HD
ENDROOT
BRANCH  15  19
ATOM     19  N   UNL     1      31.843 -24.009 -16.881  0.00  0.00    -0.298 N 
ATOM     20  N   UNL     1      30.888 -22.721 -15.141  0.00  0.00    -0.233 NA
ATOM     21  N   UNL     1      28.550 -22.143 -15.231  0.00  0.00    -0.234 NA
ATOM     22  C   UNL     1      30.734 -23.373 -16.313  0.00  0.00    +0.113 C 
ATOM     23  C   UNL     1      29.536 -23.453 -16.994  0.00  0.00    +0.121 C 
ATOM     24  C   UNL     1      28.467 -22.813 -16.400  0.00  0.00    +0.107 C 
ATOM     25  C   UNL     1      29.771 -22.137 -14.664  0.00  0.00    +0.252 C 
ATOM     26  H   UNL     1      31.648 -24.806 -17.425  0.00  0.00    +0.153 HD
ATOM     27  N   UNL     1      27.219 -22.874 -17.066  0.00  0.00    -0.346 N 
ATOM     28  H   UNL     1      26.430 -22.431 -16.678  0.00  0.00    +0.143 HD
ATOM     29  H   UNL     1      27.140 -23.359 -17.920  0.00  0.00    +0.143 HD
ENDBRANCH  15  19
TORSDOF 1
ENDMDL
