MODEL 1
REMARK VINA RESULT:     -11.1      0.000      0.000
REMARK  Name = 9887812
REMARK  11 active torsions:
REMARK  status: ('A' for Active; 'I' for Inactive)
REMARK    1  A    between atoms: N_1  and  C_3
REMARK    2  A    between atoms: N_1  and  C_19
REMARK    3  A    between atoms: C_4  and  C_9
REMARK    4  A    between atoms: C_12  and  C_16
REMARK    5  A    between atoms: C_16  and  O_17
REMARK    6  A    between atoms: C_19  and  C_20
REMARK    7  A    between atoms: C_20  and  N_21
REMARK    8  A    between atoms: N_21  and  C_24
REMARK    9  A    between atoms: C_24  and  C_25
REMARK   10  A    between atoms: C_25  and  C_27
REMARK   11  A    between atoms: C_25  and  O_33
REMARK                            x       y       z     vdW  Elec       q    Type
REMARK                         _______ _______ _______ _____ _____    ______ ____
ROOT
ATOM      1  N   UNL     1      32.751 -22.989 -18.800  0.00  0.00    -0.335 N 
ATOM      2  H   UNL     1      32.400 -23.664 -19.425  0.00  0.00    +0.147 HD
ENDROOT
BRANCH   1   3
ATOM      3  C   UNL     1      32.584 -23.202 -17.416  0.00  0.00    +0.045 C 
ATOM      4  C   UNL     1      33.474 -23.909 -15.284  0.00  0.00    +0.001 C 
ATOM      5  C   UNL     1      33.640 -23.699 -16.654  0.00  0.00    +0.014 C 
ATOM      6  C   UNL     1      31.361 -22.915 -16.809  0.00  0.00    +0.014 C 
ATOM      7  C   UNL     1      32.251 -23.623 -14.678  0.00  0.00    +0.000 C 
ATOM      8  C   UNL     1      31.194 -23.126 -15.441  0.00  0.00    +0.001 C 
BRANCH   4   9
ATOM      9  C   UNL     1      34.570 -24.426 -14.494  0.00  0.00    +0.000 C 
ATOM     10  C   UNL     1      34.704 -24.049 -13.157  0.00  0.00    +0.006 C 
ATOM     11  C   UNL     1      35.492 -25.300 -15.069  0.00  0.00    +0.000 C 
ATOM     12  C   UNL     1      35.762 -24.547 -12.396  0.00  0.00    +0.075 C 
ATOM     13  C   UNL     1      36.550 -25.798 -14.307  0.00  0.00    +0.000 C 
ATOM     14  C   UNL     1      36.684 -25.422 -12.970  0.00  0.00    +0.006 C 
BRANCH  12  16
ATOM     15  O   UNL     1      35.241 -24.609 -10.061  0.00  0.00    -0.245 OA
ATOM     16  C   UNL     1      35.902 -24.157 -11.002  0.00  0.00    +0.338 C 
BRANCH  16  17
ATOM     17  O   UNL     1      36.865 -23.210 -10.821  0.00  0.00    -0.477 OA
ATOM     18  H   UNL     1      37.577 -23.373 -10.235  0.00  0.00    +0.295 HD
ENDBRANCH  16  17
ENDBRANCH  12  16
ENDBRANCH   4   9
ENDBRANCH   1   3
BRANCH   1  19
ATOM     19  C   UNL     1      33.411 -21.839 -19.336  0.00  0.00    +0.064 C 
BRANCH  19  20
ATOM     20  C   UNL     1      34.894 -22.137 -19.514  0.00  0.00    -0.060 C 
BRANCH  20  21
ATOM     21  N   UNL     1      35.616 -20.923 -19.878  0.00  0.00    +0.387 N 
ATOM     22  H   UNL     1      35.638 -20.296 -19.074  0.00  0.00    -0.084 HD
ATOM     23  H   UNL     1      36.563 -21.178 -20.157  0.00  0.00    -0.084 HD
BRANCH  21  24
ATOM     24  C   UNL     1      34.967 -20.248 -20.994  0.00  0.00    -0.047 C 
BRANCH  24  25
ATOM     25  C   UNL     1      35.931 -19.267 -21.672  0.00  0.00    +0.112 C 
BRANCH  25  27
ATOM     26 CL   UNL     1      34.554 -14.661 -23.653  0.00  0.00    -0.082 Cl
ATOM     27  C   UNL     1      35.244 -18.484 -22.769  0.00  0.00    +0.003 C 
ATOM     28  C   UNL     1      35.224 -17.102 -22.702  0.00  0.00    +0.009 C 
ATOM     29  C   UNL     1      34.651 -19.167 -23.817  0.00  0.00    -0.002 C 
ATOM     30  C   UNL     1      34.591 -16.380 -23.715  0.00  0.00    +0.057 C 
ATOM     31  C   UNL     1      34.018 -18.446 -24.828  0.00  0.00    +0.001 C 
ATOM     32  C   UNL     1      33.988 -17.053 -24.778  0.00  0.00    +0.011 C 
ENDBRANCH  25  27
BRANCH  25  33
ATOM     33  O   UNL     1      36.445 -18.339 -20.717  0.00  0.00    -0.382 OA
ATOM     34  H   UNL     1      37.410 -18.287 -20.803  0.00  0.00    +0.211 HD
ENDBRANCH  25  33
ENDBRANCH  24  25
ENDBRANCH  21  24
ENDBRANCH  20  21
ENDBRANCH  19  20
ENDBRANCH   1  19
TORSDOF 11
ENDMDL
MODEL 2
REMARK VINA RESULT:     -11.0      3.342     10.107
REMARK  Name = 9887812
REMARK  11 active torsions:
REMARK  status: ('A' for Active; 'I' for Inactive)
REMARK    1  A    between atoms: N_1  and  C_3
REMARK    2  A    between atoms: N_1  and  C_19
REMARK    3  A    between atoms: C_4  and  C_9
REMARK    4  A    between atoms: C_12  and  C_16
REMARK    5  A    between atoms: C_16  and  O_17
REMARK    6  A    between atoms: C_19  and  C_20
REMARK    7  A    between atoms: C_20  and  N_21
REMARK    8  A    between atoms: N_21  and  C_24
REMARK    9  A    between atoms: C_24  and  C_25
REMARK   10  A    between atoms: C_25  and  C_27
REMARK   11  A    between atoms: C_25  and  O_33
REMARK                            x       y       z     vdW  Elec       q    Type
REMARK                         _______ _______ _______ _____ _____    ______ ____
ROOT
ATOM      1  N   UNL     1      32.691 -22.325 -19.039  0.00  0.00    -0.335 N 
ATOM      2  H   UNL     1      31.826 -22.141 -19.472  0.00  0.00    +0.147 HD
ENDROOT
BRANCH   1   3
ATOM      3  C   UNL     1      33.847 -21.702 -19.553  0.00  0.00    +0.045 C 
ATOM      4  C   UNL     1      34.881 -20.147 -21.087  0.00  0.00    +0.001 C 
ATOM      5  C   UNL     1      33.737 -20.763 -20.578  0.00  0.00    +0.014 C 
ATOM      6  C   UNL     1      35.102 -22.025 -19.036  0.00  0.00    +0.014 C 
ATOM      7  C   UNL     1      36.136 -20.471 -20.570  0.00  0.00    +0.000 C 
ATOM      8  C   UNL     1      36.246 -21.411 -19.545  0.00  0.00    +0.001 C 
BRANCH   4   9
ATOM      9  C   UNL     1      34.766 -19.174 -22.150  0.00  0.00    +0.000 C 
ATOM     10  C   UNL     1      34.782 -17.810 -21.854  0.00  0.00    +0.006 C 
ATOM     11  C   UNL     1      34.639 -19.599 -23.473  0.00  0.00    +0.000 C 
ATOM     12  C   UNL     1      34.671 -16.873 -22.880  0.00  0.00    +0.075 C 
ATOM     13  C   UNL     1      34.528 -18.661 -24.499  0.00  0.00    +0.000 C 
ATOM     14  C   UNL     1      34.544 -17.297 -24.203  0.00  0.00    +0.006 C 
BRANCH  12  16
ATOM     15  O   UNL     1      34.864 -14.543 -23.392  0.00  0.00    -0.245 OA
ATOM     16  C   UNL     1      34.689 -15.452 -22.573  0.00  0.00    +0.338 C 
BRANCH  16  17
ATOM     17  O   UNL     1      34.488 -15.203 -21.249  0.00  0.00    -0.477 OA
ATOM     18  H   UNL     1      35.187 -15.326 -20.638  0.00  0.00    +0.295 HD
ENDBRANCH  16  17
ENDBRANCH  12  16
ENDBRANCH   4   9
ENDBRANCH   1   3
BRANCH   1  19
ATOM     19  C   UNL     1      32.719 -23.210 -17.915  0.00  0.00    +0.064 C 
BRANCH  19  20
ATOM     20  C   UNL     1      31.532 -22.920 -17.007  0.00  0.00    -0.060 C 
BRANCH  20  21
ATOM     21  N   UNL     1      31.535 -23.826 -15.864  0.00  0.00    +0.387 N 
ATOM     22  H   UNL     1      30.609 -23.825 -15.436  0.00  0.00    -0.084 HD
ATOM     23  H   UNL     1      31.774 -24.762 -16.191  0.00  0.00    -0.084 HD
BRANCH  21  24
ATOM     24  C   UNL     1      32.519 -23.411 -14.874  0.00  0.00    -0.047 C 
BRANCH  24  25
ATOM     25  C   UNL     1      33.459 -24.571 -14.522  0.00  0.00    +0.112 C 
BRANCH  25  27
ATOM     26 CL   UNL     1      38.426 -26.088 -14.779  0.00  0.00    -0.082 Cl
ATOM     27  C   UNL     1      34.896 -24.242 -14.860  0.00  0.00    +0.003 C 
ATOM     28  C   UNL     1      35.871 -25.207 -14.681  0.00  0.00    +0.009 C 
ATOM     29  C   UNL     1      35.204 -22.982 -15.344  0.00  0.00    -0.002 C 
ATOM     30  C   UNL     1      37.197 -24.902 -14.994  0.00  0.00    +0.057 C 
ATOM     31  C   UNL     1      36.529 -22.678 -15.657  0.00  0.00    +0.001 C 
ATOM     32  C   UNL     1      37.525 -23.638 -15.482  0.00  0.00    +0.011 C 
ENDBRANCH  25  27
BRANCH  25  33
ATOM     33  O   UNL     1      33.384 -24.861 -13.127  0.00  0.00    -0.382 OA
ATOM     34  H   UNL     1      32.970 -24.117 -12.663  0.00  0.00    +0.211 HD
ENDBRANCH  25  33
ENDBRANCH  24  25
ENDBRANCH  21  24
ENDBRANCH  20  21
ENDBRANCH  19  20
ENDBRANCH   1  19
TORSDOF 11
ENDMDL
MODEL 3
REMARK VINA RESULT:     -11.0      1.677      2.149
REMARK  Name = 9887812
REMARK  11 active torsions:
REMARK  status: ('A' for Active; 'I' for Inactive)
REMARK    1  A    between atoms: N_1  and  C_3
REMARK    2  A    between atoms: N_1  and  C_19
REMARK    3  A    between atoms: C_4  and  C_9
REMARK    4  A    between atoms: C_12  and  C_16
REMARK    5  A    between atoms: C_16  and  O_17
REMARK    6  A    between atoms: C_19  and  C_20
REMARK    7  A    between atoms: C_20  and  N_21
REMARK    8  A    between atoms: N_21  and  C_24
REMARK    9  A    between atoms: C_24  and  C_25
REMARK   10  A    between atoms: C_25  and  C_27
REMARK   11  A    between atoms: C_25  and  O_33
REMARK                            x       y       z     vdW  Elec       q    Type
REMARK                         _______ _______ _______ _____ _____    ______ ____
ROOT
ATOM      1  N   UNL     1      32.549 -22.854 -18.904  0.00  0.00    -0.335 N 
ATOM      2  H   UNL     1      32.128 -23.470 -19.545  0.00  0.00    +0.147 HD
ENDROOT
BRANCH   1   3
ATOM      3  C   UNL     1      32.380 -23.097 -17.525  0.00  0.00    +0.045 C 
ATOM      4  C   UNL     1      33.258 -23.884 -15.416  0.00  0.00    +0.001 C 
ATOM      5  C   UNL     1      33.425 -23.642 -16.780  0.00  0.00    +0.014 C 
ATOM      6  C   UNL     1      31.167 -22.795 -16.907  0.00  0.00    +0.014 C 
ATOM      7  C   UNL     1      32.044 -23.581 -14.798  0.00  0.00    +0.000 C 
ATOM      8  C   UNL     1      30.999 -23.037 -15.544  0.00  0.00    +0.001 C 
BRANCH   4   9
ATOM      9  C   UNL     1      34.342 -24.449 -14.643  0.00  0.00    +0.000 C 
ATOM     10  C   UNL     1      35.260 -25.305 -15.252  0.00  0.00    +0.006 C 
ATOM     11  C   UNL     1      34.469 -24.137 -13.290  0.00  0.00    +0.000 C 
ATOM     12  C   UNL     1      36.305 -25.850 -14.505  0.00  0.00    +0.075 C 
ATOM     13  C   UNL     1      35.514 -24.683 -12.544  0.00  0.00    +0.000 C 
ATOM     14  C   UNL     1      36.433 -25.539 -13.152  0.00  0.00    +0.006 C 
BRANCH  12  16
ATOM     15  O   UNL     1      38.397 -26.992 -14.716  0.00  0.00    -0.245 OA
ATOM     16  C   UNL     1      37.263 -26.742 -15.139  0.00  0.00    +0.338 C 
BRANCH  16  17
ATOM     17  O   UNL     1      36.780 -27.298 -16.284  0.00  0.00    -0.477 OA
ATOM     18  H   UNL     1      37.359 -27.744 -16.869  0.00  0.00    +0.295 HD
ENDBRANCH  16  17
ENDBRANCH  12  16
ENDBRANCH   4   9
ENDBRANCH   1   3
BRANCH   1  19
ATOM     19  C   UNL     1      33.308 -21.752 -19.411  0.00  0.00    +0.064 C 
BRANCH  19  20
ATOM     20  C   UNL     1      34.784 -22.124 -19.455  0.00  0.00    -0.060 C 
BRANCH  20  21
ATOM     21  N   UNL     1      35.584 -20.980 -19.875  0.00  0.00    +0.387 N 
ATOM     22  H   UNL     1      35.719 -20.358 -19.078  0.00  0.00    -0.084 HD
ATOM     23  H   UNL     1      36.482 -21.319 -20.218  0.00  0.00    -0.084 HD
BRANCH  21  24
ATOM     24  C   UNL     1      34.921 -20.249 -20.946  0.00  0.00    -0.047 C 
BRANCH  24  25
ATOM     25  C   UNL     1      35.905 -19.309 -21.654  0.00  0.00    +0.112 C 
BRANCH  25  27
ATOM     26 CL   UNL     1      34.574 -14.704 -23.670  0.00  0.00    -0.082 Cl
ATOM     27  C   UNL     1      35.228 -18.528 -22.758  0.00  0.00    +0.003 C 
ATOM     28  C   UNL     1      35.220 -17.145 -22.701  0.00  0.00    +0.009 C 
ATOM     29  C   UNL     1      34.633 -19.213 -23.803  0.00  0.00    -0.002 C 
ATOM     30  C   UNL     1      34.596 -16.425 -23.720  0.00  0.00    +0.057 C 
ATOM     31  C   UNL     1      34.009 -18.493 -24.822  0.00  0.00    +0.001 C 
ATOM     32  C   UNL     1      33.991 -17.099 -24.781  0.00  0.00    +0.011 C 
ENDBRANCH  25  27
BRANCH  25  33
ATOM     33  O   UNL     1      36.456 -18.379 -20.723  0.00  0.00    -0.382 OA
ATOM     34  H   UNL     1      37.239 -17.957 -21.111  0.00  0.00    +0.211 HD
ENDBRANCH  25  33
ENDBRANCH  24  25
ENDBRANCH  21  24
ENDBRANCH  20  21
ENDBRANCH  19  20
ENDBRANCH   1  19
TORSDOF 11
ENDMDL
MODEL 4
REMARK VINA RESULT:     -11.0      5.481      9.119
REMARK  Name = 9887812
REMARK  11 active torsions:
REMARK  status: ('A' for Active; 'I' for Inactive)
REMARK    1  A    between atoms: N_1  and  C_3
REMARK    2  A    between atoms: N_1  and  C_19
REMARK    3  A    between atoms: C_4  and  C_9
REMARK    4  A    between atoms: C_12  and  C_16
REMARK    5  A    between atoms: C_16  and  O_17
REMARK    6  A    between atoms: C_19  and  C_20
REMARK    7  A    between atoms: C_20  and  N_21
REMARK    8  A    between atoms: N_21  and  C_24
REMARK    9  A    between atoms: C_24  and  C_25
REMARK   10  A    between atoms: C_25  and  C_27
REMARK   11  A    between atoms: C_25  and  O_33
REMARK                            x       y       z     vdW  Elec       q    Type
REMARK                         _______ _______ _______ _____ _____    ______ ____
ROOT
ATOM      1  N   UNL     1      34.788 -15.083 -22.885  0.00  0.00    -0.335 N 
ATOM      2  H   UNL     1      35.665 -14.701 -22.653  0.00  0.00    +0.147 HD
ENDROOT
BRANCH   1   3
ATOM      3  C   UNL     1      34.707 -16.462 -23.168  0.00  0.00    +0.045 C 
ATOM      4  C   UNL     1      34.881 -18.760 -22.444  0.00  0.00    +0.001 C 
ATOM      5  C   UNL     1      34.962 -17.396 -22.164  0.00  0.00    +0.014 C 
ATOM      6  C   UNL     1      34.373 -16.892 -24.452  0.00  0.00    +0.014 C 
ATOM      7  C   UNL     1      34.547 -19.191 -23.728  0.00  0.00    +0.000 C 
ATOM      8  C   UNL     1      34.294 -18.256 -24.732  0.00  0.00    +0.001 C 
BRANCH   4   9
ATOM      9  C   UNL     1      35.146 -19.729 -21.402  0.00  0.00    +0.000 C 
ATOM     10  C   UNL     1      34.113 -20.531 -20.916  0.00  0.00    +0.006 C 
ATOM     11  C   UNL     1      36.434 -19.860 -20.884  0.00  0.00    +0.000 C 
ATOM     12  C   UNL     1      34.369 -21.464 -19.912  0.00  0.00    +0.075 C 
ATOM     13  C   UNL     1      36.690 -20.793 -19.879  0.00  0.00    +0.000 C 
ATOM     14  C   UNL     1      35.657 -21.596 -19.393  0.00  0.00    +0.006 C 
BRANCH  12  16
ATOM     15  O   UNL     1      32.203 -21.893 -18.990  0.00  0.00    -0.245 OA
ATOM     16  C   UNL     1      33.293 -22.301 -19.405  0.00  0.00    +0.338 C 
BRANCH  16  17
ATOM     17  O   UNL     1      33.608 -23.626 -19.429  0.00  0.00    -0.477 OA
ATOM     18  H   UNL     1      34.177 -23.959 -20.094  0.00  0.00    +0.295 HD
ENDBRANCH  16  17
ENDBRANCH  12  16
ENDBRANCH   4   9
ENDBRANCH   1   3
BRANCH   1  19
ATOM     19  C   UNL     1      33.652 -14.214 -22.919  0.00  0.00    +0.064 C 
BRANCH  19  20
ATOM     20  C   UNL     1      33.157 -13.964 -21.501  0.00  0.00    -0.060 C 
BRANCH  20  21
ATOM     21  N   UNL     1      31.912 -13.205 -21.524  0.00  0.00    +0.387 N 
ATOM     22  H   UNL     1      31.800 -12.778 -22.444  0.00  0.00    -0.084 HD
ATOM     23  H   UNL     1      31.139 -13.841 -21.330  0.00  0.00    -0.084 HD
BRANCH  21  24
ATOM     24  C   UNL     1      31.922 -12.160 -20.510  0.00  0.00    -0.047 C 
BRANCH  24  25
ATOM     25  C   UNL     1      30.933 -11.044 -20.868  0.00  0.00    +0.112 C 
BRANCH  25  27
ATOM     26 CL   UNL     1      32.945  -8.099 -24.653  0.00  0.00    -0.082 Cl
ATOM     27  C   UNL     1      31.651  -9.777 -21.278  0.00  0.00    +0.003 C 
ATOM     28  C   UNL     1      31.928  -9.560 -22.617  0.00  0.00    +0.009 C 
ATOM     29  C   UNL     1      32.015  -8.862 -20.305  0.00  0.00    -0.002 C 
ATOM     30  C   UNL     1      32.590  -8.391 -22.994  0.00  0.00    +0.057 C 
ATOM     31  C   UNL     1      32.677  -7.694 -20.682  0.00  0.00    +0.001 C 
ATOM     32  C   UNL     1      32.964  -7.458 -22.026  0.00  0.00    +0.011 C 
ENDBRANCH  25  27
BRANCH  25  33
ATOM     33  O   UNL     1      30.097 -11.452 -21.950  0.00  0.00    -0.382 OA
ATOM     34  H   UNL     1      29.183 -11.541 -21.637  0.00  0.00    +0.211 HD
ENDBRANCH  25  33
ENDBRANCH  24  25
ENDBRANCH  21  24
ENDBRANCH  20  21
ENDBRANCH  19  20
ENDBRANCH   1  19
TORSDOF 11
ENDMDL
MODEL 5
REMARK VINA RESULT:     -10.9      5.417      9.260
REMARK  Name = 9887812
REMARK  11 active torsions:
REMARK  status: ('A' for Active; 'I' for Inactive)
REMARK    1  A    between atoms: N_1  and  C_3
REMARK    2  A    between atoms: N_1  and  C_19
REMARK    3  A    between atoms: C_4  and  C_9
REMARK    4  A    between atoms: C_12  and  C_16
REMARK    5  A    between atoms: C_16  and  O_17
REMARK    6  A    between atoms: C_19  and  C_20
REMARK    7  A    between atoms: C_20  and  N_21
REMARK    8  A    between atoms: N_21  and  C_24
REMARK    9  A    between atoms: C_24  and  C_25
REMARK   10  A    between atoms: C_25  and  C_27
REMARK   11  A    between atoms: C_25  and  O_33
REMARK                            x       y       z     vdW  Elec       q    Type
REMARK                         _______ _______ _______ _____ _____    ______ ____
ROOT
ATOM      1  N   UNL     1      34.979 -15.189 -23.472  0.00  0.00    -0.335 N 
ATOM      2  H   UNL     1      35.753 -14.820 -23.955  0.00  0.00    +0.147 HD
ENDROOT
BRANCH   1   3
ATOM      3  C   UNL     1      34.702 -16.566 -23.594  0.00  0.00    +0.045 C 
ATOM      4  C   UNL     1      34.726 -18.797 -22.667  0.00  0.00    +0.001 C 
ATOM      5  C   UNL     1      35.001 -17.434 -22.545  0.00  0.00    +0.014 C 
ATOM      6  C   UNL     1      34.130 -17.061 -24.767  0.00  0.00    +0.014 C 
ATOM      7  C   UNL     1      34.154 -19.292 -23.839  0.00  0.00    +0.000 C 
ATOM      8  C   UNL     1      33.857 -18.423 -24.890  0.00  0.00    +0.001 C 
BRANCH   4   9
ATOM      9  C   UNL     1      35.037 -19.697 -21.578  0.00  0.00    +0.000 C 
ATOM     10  C   UNL     1      34.044 -20.523 -21.050  0.00  0.00    +0.006 C 
ATOM     11  C   UNL     1      36.330 -19.739 -21.056  0.00  0.00    +0.000 C 
ATOM     12  C   UNL     1      34.344 -21.390 -20.000  0.00  0.00    +0.075 C 
ATOM     13  C   UNL     1      36.629 -20.607 -20.005  0.00  0.00    +0.000 C 
ATOM     14  C   UNL     1      35.636 -21.433 -19.477  0.00  0.00    +0.006 C 
BRANCH  12  16
ATOM     15  O   UNL     1      32.235 -21.869 -18.975  0.00  0.00    -0.245 OA
ATOM     16  C   UNL     1      33.310 -22.252 -19.450  0.00  0.00    +0.338 C 
BRANCH  16  17
ATOM     17  O   UNL     1      33.646 -23.571 -19.507  0.00  0.00    -0.477 OA
ATOM     18  H   UNL     1      32.977 -24.221 -19.585  0.00  0.00    +0.295 HD
ENDBRANCH  16  17
ENDBRANCH  12  16
ENDBRANCH   4   9
ENDBRANCH   1   3
BRANCH   1  19
ATOM     19  C   UNL     1      34.186 -14.305 -22.673  0.00  0.00    +0.064 C 
BRANCH  19  20
ATOM     20  C   UNL     1      33.411 -13.356 -23.578  0.00  0.00    -0.060 C 
BRANCH  20  21
ATOM     21  N   UNL     1      34.315 -12.395 -24.198  0.00  0.00    +0.387 N 
ATOM     22  H   UNL     1      34.657 -11.751 -23.485  0.00  0.00    -0.084 HD
ATOM     23  H   UNL     1      35.091 -12.903 -24.621  0.00  0.00    -0.084 HD
BRANCH  21  24
ATOM     24  C   UNL     1      33.632 -11.637 -25.238  0.00  0.00    -0.047 C 
BRANCH  24  25
ATOM     25  C   UNL     1      34.411 -10.361 -25.582  0.00  0.00    +0.112 C 
BRANCH  25  27
ATOM     26 CL   UNL     1      31.378  -8.302 -21.895  0.00  0.00    -0.082 Cl
ATOM     27  C   UNL     1      34.183  -9.278 -24.551  0.00  0.00    +0.003 C 
ATOM     28  C   UNL     1      33.023  -9.297 -23.796  0.00  0.00    +0.009 C 
ATOM     29  C   UNL     1      35.140  -8.292 -24.383  0.00  0.00    -0.002 C 
ATOM     30  C   UNL     1      32.813  -8.298 -22.845  0.00  0.00    +0.057 C 
ATOM     31  C   UNL     1      34.930  -7.293 -23.433  0.00  0.00    +0.001 C 
ATOM     32  C   UNL     1      33.767  -7.296 -22.663  0.00  0.00    +0.011 C 
ENDBRANCH  25  27
BRANCH  25  33
ATOM     33  O   UNL     1      35.810 -10.636 -25.638  0.00  0.00    -0.382 OA
ATOM     34  H   UNL     1      36.307  -9.829 -25.427  0.00  0.00    +0.211 HD
ENDBRANCH  25  33
ENDBRANCH  24  25
ENDBRANCH  21  24
ENDBRANCH  20  21
ENDBRANCH  19  20
ENDBRANCH   1  19
TORSDOF 11
ENDMDL
MODEL 6
REMARK VINA RESULT:     -10.8      3.540      4.890
REMARK  Name = 9887812
REMARK  11 active torsions:
REMARK  status: ('A' for Active; 'I' for Inactive)
REMARK    1  A    between atoms: N_1  and  C_3
REMARK    2  A    between atoms: N_1  and  C_19
REMARK    3  A    between atoms: C_4  and  C_9
REMARK    4  A    between atoms: C_12  and  C_16
REMARK    5  A    between atoms: C_16  and  O_17
REMARK    6  A    between atoms: C_19  and  C_20
REMARK    7  A    between atoms: C_20  and  N_21
REMARK    8  A    between atoms: N_21  and  C_24
REMARK    9  A    between atoms: C_24  and  C_25
REMARK   10  A    between atoms: C_25  and  C_27
REMARK   11  A    between atoms: C_25  and  O_33
REMARK                            x       y       z     vdW  Elec       q    Type
REMARK                         _______ _______ _______ _____ _____    ______ ____
ROOT
ATOM      1  N   UNL     1      34.452 -22.607 -19.367  0.00  0.00    -0.335 N 
ATOM      2  H   UNL     1      34.631 -23.375 -19.955  0.00  0.00    +0.147 HD
ENDROOT
BRANCH   1   3
ATOM      3  C   UNL     1      34.134 -22.853 -18.015  0.00  0.00    +0.045 C 
ATOM      4  C   UNL     1      32.520 -23.458 -16.322  0.00  0.00    +0.001 C 
ATOM      5  C   UNL     1      32.835 -23.215 -17.659  0.00  0.00    +0.014 C 
ATOM      6  C   UNL     1      35.118 -22.733 -17.034  0.00  0.00    +0.014 C 
ATOM      7  C   UNL     1      33.504 -23.338 -15.340  0.00  0.00    +0.000 C 
ATOM      8  C   UNL     1      34.804 -22.975 -15.697  0.00  0.00    +0.001 C 
BRANCH   4   9
ATOM      9  C   UNL     1      31.173 -23.833 -15.953  0.00  0.00    +0.000 C 
ATOM     10  C   UNL     1      30.083 -23.231 -16.584  0.00  0.00    +0.006 C 
ATOM     11  C   UNL     1      30.963 -24.797 -14.967  0.00  0.00    +0.000 C 
ATOM     12  C   UNL     1      28.785 -23.593 -16.227  0.00  0.00    +0.075 C 
ATOM     13  C   UNL     1      29.664 -25.159 -14.610  0.00  0.00    +0.000 C 
ATOM     14  C   UNL     1      28.574 -24.557 -15.241  0.00  0.00    +0.006 C 
BRANCH  12  16
ATOM     15  O   UNL     1      26.983 -22.031 -16.428  0.00  0.00    -0.245 OA
ATOM     16  C   UNL     1      27.648 -22.967 -16.884  0.00  0.00    +0.338 C 
BRANCH  16  17
ATOM     17  O   UNL     1      27.372 -23.528 -18.094  0.00  0.00    -0.477 OA
ATOM     18  H   UNL     1      26.738 -23.134 -18.659  0.00  0.00    +0.295 HD
ENDBRANCH  16  17
ENDBRANCH  12  16
ENDBRANCH   4   9
ENDBRANCH   1   3
BRANCH   1  19
ATOM     19  C   UNL     1      34.530 -21.289 -19.920  0.00  0.00    +0.064 C 
BRANCH  19  20
ATOM     20  C   UNL     1      35.972 -20.976 -20.294  0.00  0.00    -0.060 C 
BRANCH  20  21
ATOM     21  N   UNL     1      36.103 -19.577 -20.683  0.00  0.00    +0.387 N 
ATOM     22  H   UNL     1      36.015 -18.991 -19.853  0.00  0.00    -0.084 HD
ATOM     23  H   UNL     1      37.016 -19.443 -21.118  0.00  0.00    -0.084 HD
BRANCH  21  24
ATOM     24  C   UNL     1      35.071 -19.205 -21.641  0.00  0.00    -0.047 C 
BRANCH  24  25
ATOM     25  C   UNL     1      35.697 -18.685 -22.941  0.00  0.00    +0.112 C 
BRANCH  25  27
ATOM     26 CL   UNL     1      34.172 -13.843 -21.813  0.00  0.00    -0.082 Cl
ATOM     27  C   UNL     1      35.045 -17.396 -23.391  0.00  0.00    +0.003 C 
ATOM     28  C   UNL     1      34.928 -16.348 -22.495  0.00  0.00    +0.009 C 
ATOM     29  C   UNL     1      34.582 -17.291 -24.692  0.00  0.00    -0.002 C 
ATOM     30  C   UNL     1      34.328 -15.159 -22.911  0.00  0.00    +0.057 C 
ATOM     31  C   UNL     1      33.982 -16.103 -25.108  0.00  0.00    +0.001 C 
ATOM     32  C   UNL     1      33.855 -15.037 -24.218  0.00  0.00    +0.011 C 
ENDBRANCH  25  27
BRANCH  25  33
ATOM     33  O   UNL     1      37.089 -18.440 -22.756  0.00  0.00    -0.382 OA
ATOM     34  H   UNL     1      37.258 -17.485 -22.792  0.00  0.00    +0.211 HD
ENDBRANCH  25  33
ENDBRANCH  24  25
ENDBRANCH  21  24
ENDBRANCH  20  21
ENDBRANCH  19  20
ENDBRANCH   1  19
TORSDOF 11
ENDMDL
MODEL 7
REMARK VINA RESULT:     -10.7      3.679     10.136
REMARK  Name = 9887812
REMARK  11 active torsions:
REMARK  status: ('A' for Active; 'I' for Inactive)
REMARK    1  A    between atoms: N_1  and  C_3
REMARK    2  A    between atoms: N_1  and  C_19
REMARK    3  A    between atoms: C_4  and  C_9
REMARK    4  A    between atoms: C_12  and  C_16
REMARK    5  A    between atoms: C_16  and  O_17
REMARK    6  A    between atoms: C_19  and  C_20
REMARK    7  A    between atoms: C_20  and  N_21
REMARK    8  A    between atoms: N_21  and  C_24
REMARK    9  A    between atoms: C_24  and  C_25
REMARK   10  A    between atoms: C_25  and  C_27
REMARK   11  A    between atoms: C_25  and  O_33
REMARK                            x       y       z     vdW  Elec       q    Type
REMARK                         _______ _______ _______ _____ _____    ______ ____
ROOT
ATOM      1  N   UNL     1      36.767 -22.314 -18.047  0.00  0.00    -0.335 N 
ATOM      2  H   UNL     1      37.466 -22.865 -18.467  0.00  0.00    +0.147 HD
ENDROOT
BRANCH   1   3
ATOM      3  C   UNL     1      35.680 -21.887 -18.837  0.00  0.00    +0.045 C 
ATOM      4  C   UNL     1      34.802 -20.520 -20.625  0.00  0.00    +0.001 C 
ATOM      5  C   UNL     1      35.878 -20.943 -19.844  0.00  0.00    +0.014 C 
ATOM      6  C   UNL     1      34.406 -22.407 -18.610  0.00  0.00    +0.014 C 
ATOM      7  C   UNL     1      33.528 -21.041 -20.399  0.00  0.00    +0.000 C 
ATOM      8  C   UNL     1      33.330 -21.985 -19.390  0.00  0.00    +0.001 C 
BRANCH   4   9
ATOM      9  C   UNL     1      35.008 -19.540 -21.670  0.00  0.00    +0.000 C 
ATOM     10  C   UNL     1      34.106 -19.451 -22.731  0.00  0.00    +0.006 C 
ATOM     11  C   UNL     1      36.108 -18.685 -21.615  0.00  0.00    +0.000 C 
ATOM     12  C   UNL     1      34.305 -18.507 -23.737  0.00  0.00    +0.075 C 
ATOM     13  C   UNL     1      36.307 -17.740 -22.623  0.00  0.00    +0.000 C 
ATOM     14  C   UNL     1      35.405 -17.651 -23.684  0.00  0.00    +0.006 C 
BRANCH  12  16
ATOM     15  O   UNL     1      32.532 -19.271 -25.150  0.00  0.00    -0.245 OA
ATOM     16  C   UNL     1      33.365 -18.412 -24.843  0.00  0.00    +0.338 C 
BRANCH  16  17
ATOM     17  O   UNL     1      33.492 -17.247 -25.537  0.00  0.00    -0.477 OA
ATOM     18  H   UNL     1      33.352 -17.236 -26.462  0.00  0.00    +0.295 HD
ENDBRANCH  16  17
ENDBRANCH  12  16
ENDBRANCH   4   9
ENDBRANCH   1   3
BRANCH   1  19
ATOM     19  C   UNL     1      36.898 -21.984 -16.661  0.00  0.00    +0.064 C 
BRANCH  19  20
ATOM     20  C   UNL     1      36.761 -23.246 -15.820  0.00  0.00    -0.060 C 
BRANCH  20  21
ATOM     21  N   UNL     1      35.694 -23.088 -14.838  0.00  0.00    +0.387 N 
ATOM     22  H   UNL     1      36.108 -22.921 -13.921  0.00  0.00    -0.084 HD
ATOM     23  H   UNL     1      35.111 -22.298 -15.115  0.00  0.00    -0.084 HD
BRANCH  21  24
ATOM     24  C   UNL     1      34.863 -24.282 -14.777  0.00  0.00    -0.047 C 
BRANCH  24  25
ATOM     25  C   UNL     1      33.639 -24.049 -13.883  0.00  0.00    +0.112 C 
BRANCH  25  27
ATOM     26 CL   UNL     1      28.750 -25.671 -14.596  0.00  0.00    -0.082 Cl
ATOM     27  C   UNL     1      32.364 -23.995 -14.694  0.00  0.00    +0.003 C 
ATOM     28  C   UNL     1      31.283 -24.769 -14.309  0.00  0.00    +0.009 C 
ATOM     29  C   UNL     1      32.304 -23.169 -15.804  0.00  0.00    -0.002 C 
ATOM     30  C   UNL     1      30.107 -24.717 -15.057  0.00  0.00    +0.057 C 
ATOM     31  C   UNL     1      31.128 -23.118 -16.552  0.00  0.00    +0.001 C 
ATOM     32  C   UNL     1      30.029 -23.891 -16.179  0.00  0.00    +0.011 C 
ENDBRANCH  25  27
BRANCH  25  33
ATOM     33  O   UNL     1      33.516 -25.102 -12.929  0.00  0.00    -0.382 OA
ATOM     34  H   UNL     1      32.771 -24.916 -12.335  0.00  0.00    +0.211 HD
ENDBRANCH  25  33
ENDBRANCH  24  25
ENDBRANCH  21  24
ENDBRANCH  20  21
ENDBRANCH  19  20
ENDBRANCH   1  19
TORSDOF 11
ENDMDL
MODEL 8
REMARK VINA RESULT:     -10.6      6.288     13.686
REMARK  Name = 9887812
REMARK  11 active torsions:
REMARK  status: ('A' for Active; 'I' for Inactive)
REMARK    1  A    between atoms: N_1  and  C_3
REMARK    2  A    between atoms: N_1  and  C_19
REMARK    3  A    between atoms: C_4  and  C_9
REMARK    4  A    between atoms: C_12  and  C_16
REMARK    5  A    between atoms: C_16  and  O_17
REMARK    6  A    between atoms: C_19  and  C_20
REMARK    7  A    between atoms: C_20  and  N_21
REMARK    8  A    between atoms: N_21  and  C_24
REMARK    9  A    between atoms: C_24  and  C_25
REMARK   10  A    between atoms: C_25  and  C_27
REMARK   11  A    between atoms: C_25  and  O_33
REMARK                            x       y       z     vdW  Elec       q    Type
REMARK                         _______ _______ _______ _____ _____    ______ ____
ROOT
ATOM      1  N   UNL     1      33.013 -14.140 -24.810  0.00  0.00    -0.335 N 
ATOM      2  H   UNL     1      32.065 -14.388 -24.892  0.00  0.00    +0.147 HD
ENDROOT
BRANCH   1   3
ATOM      3  C   UNL     1      33.452 -12.944 -25.415  0.00  0.00    +0.045 C 
ATOM      4  C   UNL     1      34.019 -10.601 -25.253  0.00  0.00    +0.001 C 
ATOM      5  C   UNL     1      33.585 -11.784 -24.653  0.00  0.00    +0.014 C 
ATOM      6  C   UNL     1      33.752 -12.922 -26.777  0.00  0.00    +0.014 C 
ATOM      7  C   UNL     1      34.319 -10.579 -26.616  0.00  0.00    +0.000 C 
ATOM      8  C   UNL     1      34.184 -11.740 -27.378  0.00  0.00    +0.001 C 
BRANCH   4   9
ATOM      9  C   UNL     1      34.157  -9.398 -24.462  0.00  0.00    +0.000 C 
ATOM     10  C   UNL     1      33.290  -9.160 -23.395  0.00  0.00    +0.006 C 
ATOM     11  C   UNL     1      35.157  -8.475 -24.767  0.00  0.00    +0.000 C 
ATOM     12  C   UNL     1      33.423  -8.000 -22.634  0.00  0.00    +0.075 C 
ATOM     13  C   UNL     1      35.290  -7.314 -24.005  0.00  0.00    +0.000 C 
ATOM     14  C   UNL     1      34.423  -7.076 -22.938  0.00  0.00    +0.006 C 
BRANCH  12  16
ATOM     15  O   UNL     1      31.287  -7.707 -21.595  0.00  0.00    -0.245 OA
ATOM     16  C   UNL     1      32.520  -7.752 -21.521  0.00  0.00    +0.338 C 
BRANCH  16  17
ATOM     17  O   UNL     1      33.182  -7.566 -20.345  0.00  0.00    -0.477 OA
ATOM     18  H   UNL     1      33.460  -8.306 -19.843  0.00  0.00    +0.295 HD
ENDBRANCH  16  17
ENDBRANCH  12  16
ENDBRANCH   4   9
ENDBRANCH   1   3
BRANCH   1  19
ATOM     19  C   UNL     1      33.886 -15.006 -24.078  0.00  0.00    +0.064 C 
BRANCH  19  20
ATOM     20  C   UNL     1      34.132 -16.278 -24.879  0.00  0.00    -0.060 C 
BRANCH  20  21
ATOM     21  N   UNL     1      35.312 -16.973 -24.378  0.00  0.00    +0.387 N 
ATOM     22  H   UNL     1      35.911 -17.222 -25.165  0.00  0.00    -0.084 HD
ATOM     23  H   UNL     1      35.807 -16.354 -23.736  0.00  0.00    -0.084 HD
BRANCH  21  24
ATOM     24  C   UNL     1      34.937 -18.184 -23.661  0.00  0.00    -0.047 C 
BRANCH  24  25
ATOM     25  C   UNL     1      35.708 -18.296 -22.340  0.00  0.00    +0.112 C 
BRANCH  25  27
ATOM     26 CL   UNL     1      36.516 -21.986 -18.767  0.00  0.00    -0.082 Cl
ATOM     27  C   UNL     1      35.145 -19.391 -21.462  0.00  0.00    +0.003 C 
ATOM     28  C   UNL     1      35.996 -20.092 -20.625  0.00  0.00    +0.009 C 
ATOM     29  C   UNL     1      33.789 -19.668 -21.512  0.00  0.00    -0.002 C 
ATOM     30  C   UNL     1      35.476 -21.102 -19.815  0.00  0.00    +0.057 C 
ATOM     31  C   UNL     1      33.269 -20.678 -20.702  0.00  0.00    +0.001 C 
ATOM     32  C   UNL     1      34.112 -21.394 -19.853  0.00  0.00    +0.011 C 
ENDBRANCH  25  27
BRANCH  25  33
ATOM     33  O   UNL     1      37.081 -18.588 -22.592  0.00  0.00    -0.382 OA
ATOM     34  H   UNL     1      37.588 -18.493 -21.771  0.00  0.00    +0.211 HD
ENDBRANCH  25  33
ENDBRANCH  24  25
ENDBRANCH  21  24
ENDBRANCH  20  21
ENDBRANCH  19  20
ENDBRANCH   1  19
TORSDOF 11
ENDMDL
MODEL 9
REMARK VINA RESULT:     -10.6      3.163     10.053
REMARK  Name = 9887812
REMARK  11 active torsions:
REMARK  status: ('A' for Active; 'I' for Inactive)
REMARK    1  A    between atoms: N_1  and  C_3
REMARK    2  A    between atoms: N_1  and  C_19
REMARK    3  A    between atoms: C_4  and  C_9
REMARK    4  A    between atoms: C_12  and  C_16
REMARK    5  A    between atoms: C_16  and  O_17
REMARK    6  A    between atoms: C_19  and  C_20
REMARK    7  A    between atoms: C_20  and  N_21
REMARK    8  A    between atoms: N_21  and  C_24
REMARK    9  A    between atoms: C_24  and  C_25
REMARK   10  A    between atoms: C_25  and  C_27
REMARK   11  A    between atoms: C_25  and  O_33
REMARK                            x       y       z     vdW  Elec       q    Type
REMARK                         _______ _______ _______ _____ _____    ______ ____
ROOT
ATOM      1  N   UNL     1      36.546 -21.995 -18.729  0.00  0.00    -0.335 N 
ATOM      2  H   UNL     1      37.121 -22.655 -19.180  0.00  0.00    +0.147 HD
ENDROOT
BRANCH   1   3
ATOM      3  C   UNL     1      35.412 -21.511 -19.413  0.00  0.00    +0.045 C 
ATOM      4  C   UNL     1      34.437 -20.086 -21.103  0.00  0.00    +0.001 C 
ATOM      5  C   UNL     1      35.560 -20.565 -20.426  0.00  0.00    +0.014 C 
ATOM      6  C   UNL     1      34.142 -21.978 -19.075  0.00  0.00    +0.014 C 
ATOM      7  C   UNL     1      33.167 -20.553 -20.765  0.00  0.00    +0.000 C 
ATOM      8  C   UNL     1      33.019 -21.499 -19.750  0.00  0.00    +0.001 C 
BRANCH   4   9
ATOM      9  C   UNL     1      34.591 -19.104 -22.154  0.00  0.00    +0.000 C 
ATOM     10  C   UNL     1      34.562 -17.743 -21.848  0.00  0.00    +0.006 C 
ATOM     11  C   UNL     1      34.768 -19.518 -23.474  0.00  0.00    +0.000 C 
ATOM     12  C   UNL     1      34.710 -16.797 -22.862  0.00  0.00    +0.075 C 
ATOM     13  C   UNL     1      34.915 -18.572 -24.488  0.00  0.00    +0.000 C 
ATOM     14  C   UNL     1      34.887 -17.211 -24.182  0.00  0.00    +0.006 C 
BRANCH  12  16
ATOM     15  O   UNL     1      34.566 -14.901 -21.410  0.00  0.00    -0.245 OA
ATOM     16  C   UNL     1      34.682 -15.378 -22.544  0.00  0.00    +0.338 C 
BRANCH  16  17
ATOM     17  O   UNL     1      34.798 -14.594 -23.651  0.00  0.00    -0.477 OA
ATOM     18  H   UNL     1      35.527 -14.012 -23.737  0.00  0.00    +0.295 HD
ENDBRANCH  16  17
ENDBRANCH  12  16
ENDBRANCH   4   9
ENDBRANCH   1   3
BRANCH   1  19
ATOM     19  C   UNL     1      36.896 -21.572 -17.408  0.00  0.00    +0.064 C 
BRANCH  19  20
ATOM     20  C   UNL     1      36.801 -22.753 -16.451  0.00  0.00    -0.060 C 
BRANCH  20  21
ATOM     21  N   UNL     1      35.759 -22.519 -15.458  0.00  0.00    +0.387 N 
ATOM     22  H   UNL     1      36.081 -22.857 -14.551  0.00  0.00    -0.084 HD
ATOM     23  H   UNL     1      35.567 -21.518 -15.417  0.00  0.00    -0.084 HD
BRANCH  21  24
ATOM     24  C   UNL     1      34.532 -23.214 -15.819  0.00  0.00    -0.047 C 
BRANCH  24  25
ATOM     25  C   UNL     1      34.014 -24.051 -14.642  0.00  0.00    +0.112 C 
BRANCH  25  27
ATOM     26 CL   UNL     1      29.471 -22.717 -16.793  0.00  0.00    -0.082 Cl
ATOM     27  C   UNL     1      32.512 -24.221 -14.702  0.00  0.00    +0.003 C 
ATOM     28  C   UNL     1      31.783 -23.476 -15.612  0.00  0.00    +0.009 C 
ATOM     29  C   UNL     1      31.899 -25.120 -13.846  0.00  0.00    -0.002 C 
ATOM     30  C   UNL     1      30.398 -23.633 -15.668  0.00  0.00    +0.057 C 
ATOM     31  C   UNL     1      30.514 -25.277 -13.901  0.00  0.00    +0.001 C 
ATOM     32  C   UNL     1      29.764 -24.535 -14.812  0.00  0.00    +0.011 C 
ENDBRANCH  25  27
BRANCH  25  33
ATOM     33  O   UNL     1      34.610 -25.347 -14.657  0.00  0.00    -0.382 OA
ATOM     34  H   UNL     1      35.576 -25.259 -14.689  0.00  0.00    +0.211 HD
ENDBRANCH  25  33
ENDBRANCH  24  25
ENDBRANCH  21  24
ENDBRANCH  20  21
ENDBRANCH  19  20
ENDBRANCH   1  19
TORSDOF 11
ENDMDL
