MODEL 1
REMARK VINA RESULT:     -11.9      0.000      0.000
REMARK  Name = 17758361
REMARK  5 active torsions:
REMARK  status: ('A' for Active; 'I' for Inactive)
REMARK    1  A    between atoms: N_1  and  C_18
REMARK    2  A    between atoms: C_4  and  C_10
REMARK    3  A    between atoms: C_10  and  C_11
REMARK    4  A    between atoms: C_18  and  C_19
REMARK    5  A    between atoms: C_22  and  C_27
REMARK                            x       y       z     vdW  Elec       q    Type
REMARK                         _______ _______ _______ _____ _____    ______ ____
ROOT
ATOM      1  N   UNL     1      32.302 -22.503 -18.511  0.00  0.00    -0.314 N 
ATOM      2  N   UNL     1      30.369 -22.597 -17.171  0.00  0.00    -0.229 NA
ATOM      3  C   UNL     1      31.684 -22.869 -17.327  0.00  0.00    +0.129 C 
ATOM      4  C   UNL     1      31.858 -23.868 -15.176  0.00  0.00    +0.043 C 
ATOM      5  C   UNL     1      32.466 -23.496 -16.370  0.00  0.00    +0.037 C 
ATOM      6  C   UNL     1      30.507 -23.605 -14.978  0.00  0.00    +0.024 C 
ATOM      7  C   UNL     1      29.813 -22.972 -15.997  0.00  0.00    +0.100 C 
ATOM      8  H   UNL     1      31.758 -22.057 -19.200  0.00  0.00    +0.149 HD
ENDROOT
BRANCH   4  10
ATOM      9  O   UNL     1      32.061 -25.171 -13.245  0.00  0.00    -0.287 OA
ATOM     10  C   UNL     1      32.633 -24.528 -14.137  0.00  0.00    +0.196 C 
BRANCH  10  11
ATOM     11  C   UNL     1      34.125 -24.469 -14.091  0.00  0.00    +0.039 C 
ATOM     12  C   UNL     1      34.765 -23.801 -13.046  0.00  0.00    -0.001 C 
ATOM     13  C   UNL     1      36.157 -23.746 -13.002  0.00  0.00    -0.022 C 
ATOM     14  C   UNL     1      34.878 -25.082 -15.091  0.00  0.00    +0.003 C 
ATOM     15  C   UNL     1      36.911 -24.360 -14.003  0.00  0.00    -0.004 C 
ATOM     16  C   UNL     1      36.272 -25.028 -15.047  0.00  0.00    -0.000 C 
ATOM     17  C   UNL     1      36.842 -23.035 -11.884  0.00  0.00    +0.031 C 
ENDBRANCH  10  11
ENDBRANCH   4  10
BRANCH   1  18
ATOM     18  C   UNL     1      33.701 -22.741 -18.790  0.00  0.00    +0.115 C 
BRANCH  18  19
ATOM     19  C   UNL     1      34.259 -21.673 -19.670  0.00  0.00    -0.003 C 
ATOM     20  C   UNL     1      35.640 -21.502 -19.768  0.00  0.00    -0.003 C 
ATOM     21  C   UNL     1      33.400 -20.844 -20.392  0.00  0.00    -0.003 C 
ATOM     22  C   UNL     1      35.304 -19.675 -21.311  0.00  0.00    +0.031 C 
ATOM     23  C   UNL     1      36.162 -20.503 -20.589  0.00  0.00    +0.002 C 
ATOM     24  C   UNL     1      33.923 -19.845 -21.213  0.00  0.00    +0.002 C 
BRANCH  22  27
ATOM     25  N   UNL     1      37.217 -18.543 -22.418  0.00  0.00    -0.343 N 
ATOM     26  N   UNL     1      35.041 -17.747 -22.721  0.00  0.00    -0.285 NA
ATOM     27  C   UNL     1      35.849 -18.633 -22.167  0.00  0.00    +0.117 C 
ATOM     28  H   UNL     1      37.565 -17.830 -23.000  0.00  0.00    +0.144 HD
ATOM     29  H   UNL     1      37.836 -19.192 -22.011  0.00  0.00    +0.144 HD
ATOM     30  H   UNL     1      35.408 -17.041 -23.301  0.00  0.00    +0.188 HD
ENDBRANCH  22  27
ENDBRANCH  18  19
ENDBRANCH   1  18
TORSDOF 5
ENDMDL
MODEL 2
REMARK VINA RESULT:     -11.6      1.616      4.366
REMARK  Name = 17758361
REMARK  5 active torsions:
REMARK  status: ('A' for Active; 'I' for Inactive)
REMARK    1  A    between atoms: N_1  and  C_18
REMARK    2  A    between atoms: C_4  and  C_10
REMARK    3  A    between atoms: C_10  and  C_11
REMARK    4  A    between atoms: C_18  and  C_19
REMARK    5  A    between atoms: C_22  and  C_27
REMARK                            x       y       z     vdW  Elec       q    Type
REMARK                         _______ _______ _______ _____ _____    ______ ____
ROOT
ATOM      1  N   UNL     1      34.711 -23.014 -17.824  0.00  0.00    -0.314 N 
ATOM      2  N   UNL     1      35.720 -23.767 -15.835  0.00  0.00    -0.229 NA
ATOM      3  C   UNL     1      34.606 -23.369 -16.489  0.00  0.00    +0.129 C 
ATOM      4  C   UNL     1      33.231 -23.646 -14.570  0.00  0.00    +0.043 C 
ATOM      5  C   UNL     1      33.350 -23.291 -15.909  0.00  0.00    +0.037 C 
ATOM      6  C   UNL     1      34.354 -24.061 -13.862  0.00  0.00    +0.024 C 
ATOM      7  C   UNL     1      35.565 -24.104 -14.535  0.00  0.00    +0.100 C 
ATOM      8  H   UNL     1      35.597 -23.064 -18.249  0.00  0.00    +0.149 HD
ENDROOT
BRANCH   4  10
ATOM      9  O   UNL     1      31.844 -23.154 -12.751  0.00  0.00    -0.287 OA
ATOM     10  C   UNL     1      31.936 -23.584 -13.910  0.00  0.00    +0.196 C 
BRANCH  10  11
ATOM     11  C   UNL     1      30.675 -24.026 -14.579  0.00  0.00    +0.039 C 
ATOM     12  C   UNL     1      29.866 -23.093 -15.229  0.00  0.00    -0.001 C 
ATOM     13  C   UNL     1      28.690 -23.506 -15.854  0.00  0.00    -0.022 C 
ATOM     14  C   UNL     1      30.308 -25.371 -14.555  0.00  0.00    +0.003 C 
ATOM     15  C   UNL     1      28.322 -24.852 -15.830  0.00  0.00    -0.004 C 
ATOM     16  C   UNL     1      29.131 -25.784 -15.181  0.00  0.00    -0.000 C 
ATOM     17  C   UNL     1      27.826 -22.510 -16.552  0.00  0.00    +0.031 C 
ENDBRANCH  10  11
ENDBRANCH   4  10
BRANCH   1  18
ATOM     18  C   UNL     1      33.590 -22.575 -18.625  0.00  0.00    +0.115 C 
BRANCH  18  19
ATOM     19  C   UNL     1      34.026 -21.591 -19.659  0.00  0.00    -0.003 C 
ATOM     20  C   UNL     1      33.074 -20.858 -20.367  0.00  0.00    -0.003 C 
ATOM     21  C   UNL     1      35.384 -21.407 -19.918  0.00  0.00    -0.003 C 
ATOM     22  C   UNL     1      34.838 -19.755 -21.594  0.00  0.00    +0.031 C 
ATOM     23  C   UNL     1      33.481 -19.940 -21.335  0.00  0.00    +0.002 C 
ATOM     24  C   UNL     1      35.790 -20.488 -20.886  0.00  0.00    +0.002 C 
BRANCH  22  27
ATOM     25  N   UNL     1      36.583 -18.363 -22.684  0.00  0.00    -0.343 N 
ATOM     26  N   UNL     1      34.381 -18.319 -23.466  0.00  0.00    -0.285 NA
ATOM     27  C   UNL     1      35.261 -18.797 -22.604  0.00  0.00    +0.117 C 
ATOM     28  H   UNL     1      36.848 -17.714 -23.375  0.00  0.00    +0.144 HD
ATOM     29  H   UNL     1      37.253 -18.706 -22.048  0.00  0.00    +0.144 HD
ATOM     30  H   UNL     1      34.665 -17.670 -24.150  0.00  0.00    +0.188 HD
ENDBRANCH  22  27
ENDBRANCH  18  19
ENDBRANCH   1  18
TORSDOF 5
ENDMDL
MODEL 3
REMARK VINA RESULT:     -11.3      5.545     11.465
REMARK  Name = 17758361
REMARK  5 active torsions:
REMARK  status: ('A' for Active; 'I' for Inactive)
REMARK    1  A    between atoms: N_1  and  C_18
REMARK    2  A    between atoms: C_4  and  C_10
REMARK    3  A    between atoms: C_10  and  C_11
REMARK    4  A    between atoms: C_18  and  C_19
REMARK    5  A    between atoms: C_22  and  C_27
REMARK                            x       y       z     vdW  Elec       q    Type
REMARK                         _______ _______ _______ _____ _____    ______ ____
ROOT
ATOM      1  N   UNL     1      35.703 -18.122 -23.377  0.00  0.00    -0.314 N 
ATOM      2  N   UNL     1      34.622 -17.033 -25.162  0.00  0.00    -0.229 NA
ATOM      3  C   UNL     1      34.970 -17.049 -23.856  0.00  0.00    +0.129 C 
ATOM      4  C   UNL     1      33.906 -14.968 -23.419  0.00  0.00    +0.043 C 
ATOM      5  C   UNL     1      34.641 -16.052 -22.952  0.00  0.00    +0.037 C 
ATOM      6  C   UNL     1      33.529 -14.915 -24.756  0.00  0.00    +0.024 C 
ATOM      7  C   UNL     1      33.908 -15.963 -25.580  0.00  0.00    +0.100 C 
ATOM      8  H   UNL     1      35.944 -18.839 -24.008  0.00  0.00    +0.149 HD
ENDROOT
BRANCH   4  10
ATOM      9  O   UNL     1      33.414 -14.110 -21.299  0.00  0.00    -0.287 OA
ATOM     10  C   UNL     1      33.534 -13.893 -22.513  0.00  0.00    +0.196 C 
BRANCH  10  11
ATOM     11  C   UNL     1      33.280 -12.498 -22.987  0.00  0.00    +0.039 C 
ATOM     12  C   UNL     1      34.045 -11.964 -24.025  0.00  0.00    -0.001 C 
ATOM     13  C   UNL     1      33.808 -10.664 -24.468  0.00  0.00    -0.022 C 
ATOM     14  C   UNL     1      32.278 -11.732 -22.394  0.00  0.00    +0.003 C 
ATOM     15  C   UNL     1      32.805  -9.897 -23.875  0.00  0.00    -0.004 C 
ATOM     16  C   UNL     1      32.040 -10.431 -22.838  0.00  0.00    -0.000 C 
ATOM     17  C   UNL     1      34.623 -10.093 -25.579  0.00  0.00    +0.031 C 
ENDBRANCH  10  11
ENDBRANCH   4  10
BRANCH   1  18
ATOM     18  C   UNL     1      36.133 -18.248 -22.002  0.00  0.00    +0.115 C 
BRANCH  18  19
ATOM     19  C   UNL     1      35.404 -19.352 -21.313  0.00  0.00    -0.003 C 
ATOM     20  C   UNL     1      36.110 -20.291 -20.562  0.00  0.00    -0.003 C 
ATOM     21  C   UNL     1      34.016 -19.445 -21.421  0.00  0.00    -0.003 C 
ATOM     22  C   UNL     1      34.041 -21.417 -20.026  0.00  0.00    +0.031 C 
ATOM     23  C   UNL     1      35.428 -21.324 -19.919  0.00  0.00    +0.002 C 
ATOM     24  C   UNL     1      33.335 -20.478 -20.778  0.00  0.00    +0.002 C 
BRANCH  22  27
ATOM     25  N   UNL     1      32.182 -22.250 -18.606  0.00  0.00    -0.343 N 
ATOM     26  N   UNL     1      33.779 -23.734 -19.447  0.00  0.00    -0.285 NA
ATOM     27  C   UNL     1      33.331 -22.495 -19.355  0.00  0.00    +0.117 C 
ATOM     28  H   UNL     1      31.717 -22.995 -18.160  0.00  0.00    +0.144 HD
ATOM     29  H   UNL     1      31.834 -21.332 -18.524  0.00  0.00    +0.144 HD
ATOM     30  H   UNL     1      33.300 -24.466 -18.994  0.00  0.00    +0.188 HD
ENDBRANCH  22  27
ENDBRANCH  18  19
ENDBRANCH   1  18
TORSDOF 5
ENDMDL
MODEL 4
REMARK VINA RESULT:     -11.1      2.903      5.122
REMARK  Name = 17758361
REMARK  5 active torsions:
REMARK  status: ('A' for Active; 'I' for Inactive)
REMARK    1  A    between atoms: N_1  and  C_18
REMARK    2  A    between atoms: C_4  and  C_10
REMARK    3  A    between atoms: C_10  and  C_11
REMARK    4  A    between atoms: C_18  and  C_19
REMARK    5  A    between atoms: C_22  and  C_27
REMARK                            x       y       z     vdW  Elec       q    Type
REMARK                         _______ _______ _______ _____ _____    ______ ____
ROOT
ATOM      1  N   UNL     1      35.924 -20.197 -20.847  0.00  0.00    -0.314 N 
ATOM      2  N   UNL     1      36.864 -20.727 -18.755  0.00  0.00    -0.229 NA
ATOM      3  C   UNL     1      35.883 -20.918 -19.665  0.00  0.00    +0.129 C 
ATOM      4  C   UNL     1      34.774 -22.529 -18.313  0.00  0.00    +0.043 C 
ATOM      5  C   UNL     1      34.827 -21.798 -19.494  0.00  0.00    +0.037 C 
ATOM      6  C   UNL     1      35.766 -22.360 -17.352  0.00  0.00    +0.024 C 
ATOM      7  C   UNL     1      36.780 -21.455 -17.619  0.00  0.00    +0.100 C 
ATOM      8  H   UNL     1      36.669 -19.567 -20.981  0.00  0.00    +0.149 HD
ENDROOT
BRANCH   4  10
ATOM      9  O   UNL     1      33.446 -24.360 -18.907  0.00  0.00    -0.287 OA
ATOM     10  C   UNL     1      33.688 -23.468 -18.082  0.00  0.00    +0.196 C 
BRANCH  10  11
ATOM     11  C   UNL     1      32.823 -23.408 -16.864  0.00  0.00    +0.039 C 
ATOM     12  C   UNL     1      31.462 -23.126 -16.988  0.00  0.00    -0.001 C 
ATOM     13  C   UNL     1      30.656 -23.071 -15.852  0.00  0.00    -0.022 C 
ATOM     14  C   UNL     1      33.377 -23.635 -15.605  0.00  0.00    +0.003 C 
ATOM     15  C   UNL     1      31.210 -23.299 -14.591  0.00  0.00    -0.004 C 
ATOM     16  C   UNL     1      32.570 -23.581 -14.468  0.00  0.00    -0.000 C 
ATOM     17  C   UNL     1      29.200 -22.773 -15.983  0.00  0.00    +0.031 C 
ENDBRANCH  10  11
ENDBRANCH   4  10
BRANCH   1  18
ATOM     18  C   UNL     1      34.932 -20.319 -21.893  0.00  0.00    +0.115 C 
BRANCH  18  19
ATOM     19  C   UNL     1      34.743 -19.020 -22.603  0.00  0.00    -0.003 C 
ATOM     20  C   UNL     1      34.235 -19.005 -23.902  0.00  0.00    -0.003 C 
ATOM     21  C   UNL     1      35.075 -17.823 -21.969  0.00  0.00    -0.003 C 
ATOM     22  C   UNL     1      34.392 -16.594 -23.933  0.00  0.00    +0.031 C 
ATOM     23  C   UNL     1      34.060 -17.791 -24.567  0.00  0.00    +0.002 C 
ATOM     24  C   UNL     1      34.899 -16.610 -22.634  0.00  0.00    +0.002 C 
BRANCH  22  27
ATOM     25  N   UNL     1      34.404 -14.111 -23.980  0.00  0.00    -0.343 N 
ATOM     26  N   UNL     1      33.844 -15.324 -25.897  0.00  0.00    -0.285 NA
ATOM     27  C   UNL     1      34.208 -15.330 -24.627  0.00  0.00    +0.117 C 
ATOM     28  H   UNL     1      34.274 -13.267 -24.469  0.00  0.00    +0.144 HD
ATOM     29  H   UNL     1      34.673 -14.095 -23.032  0.00  0.00    +0.144 HD
ATOM     30  H   UNL     1      33.719 -14.469 -26.370  0.00  0.00    +0.188 HD
ENDBRANCH  22  27
ENDBRANCH  18  19
ENDBRANCH   1  18
TORSDOF 5
ENDMDL
MODEL 5
REMARK VINA RESULT:     -11.0      9.010     13.504
REMARK  Name = 17758361
REMARK  5 active torsions:
REMARK  status: ('A' for Active; 'I' for Inactive)
REMARK    1  A    between atoms: N_1  and  C_18
REMARK    2  A    between atoms: C_4  and  C_10
REMARK    3  A    between atoms: C_10  and  C_11
REMARK    4  A    between atoms: C_18  and  C_19
REMARK    5  A    between atoms: C_22  and  C_27
REMARK                            x       y       z     vdW  Elec       q    Type
REMARK                         _______ _______ _______ _____ _____    ______ ____
ROOT
ATOM      1  N   UNL     1      34.117 -12.426 -26.035  0.00  0.00    -0.314 N 
ATOM      2  N   UNL     1      35.119 -10.295 -26.039  0.00  0.00    -0.229 NA
ATOM      3  C   UNL     1      34.141 -11.114 -25.591  0.00  0.00    +0.129 C 
ATOM      4  C   UNL     1      33.162  -9.413 -24.249  0.00  0.00    +0.043 C 
ATOM      5  C   UNL     1      33.149 -10.727 -24.704  0.00  0.00    +0.037 C 
ATOM      6  C   UNL     1      34.152  -8.540 -24.688  0.00  0.00    +0.024 C 
ATOM      7  C   UNL     1      35.099  -9.026 -25.575  0.00  0.00    +0.100 C 
ATOM      8  H   UNL     1      34.816 -12.715 -26.666  0.00  0.00    +0.149 HD
ENDROOT
BRANCH   4  10
ATOM      9  O   UNL     1      31.450  -7.963 -23.587  0.00  0.00    -0.287 OA
ATOM     10  C   UNL     1      32.145  -8.953 -23.316  0.00  0.00    +0.196 C 
BRANCH  10  11
ATOM     11  C   UNL     1      31.889  -9.634 -22.011  0.00  0.00    +0.039 C 
ATOM     12  C   UNL     1      31.881 -11.027 -21.940  0.00  0.00    -0.001 C 
ATOM     13  C   UNL     1      31.643 -11.662 -20.722  0.00  0.00    -0.022 C 
ATOM     14  C   UNL     1      31.660  -8.876 -20.863  0.00  0.00    +0.003 C 
ATOM     15  C   UNL     1      31.414 -10.904 -19.573  0.00  0.00    -0.004 C 
ATOM     16  C   UNL     1      31.423  -9.512 -19.644  0.00  0.00    -0.000 C 
ATOM     17  C   UNL     1      31.637 -13.152 -20.645  0.00  0.00    +0.031 C 
ENDBRANCH  10  11
ENDBRANCH   4  10
BRANCH   1  18
ATOM     18  C   UNL     1      33.123 -13.392 -25.624  0.00  0.00    +0.115 C 
BRANCH  18  19
ATOM     19  C   UNL     1      33.735 -14.465 -24.786  0.00  0.00    -0.003 C 
ATOM     20  C   UNL     1      34.001 -15.716 -25.342  0.00  0.00    -0.003 C 
ATOM     21  C   UNL     1      34.040 -14.216 -23.447  0.00  0.00    -0.003 C 
ATOM     22  C   UNL     1      34.876 -16.471 -23.221  0.00  0.00    +0.031 C 
ATOM     23  C   UNL     1      34.571 -16.719 -24.559  0.00  0.00    +0.002 C 
ATOM     24  C   UNL     1      34.610 -15.220 -22.665  0.00  0.00    +0.002 C 
BRANCH  22  27
ATOM     25  N   UNL     1      36.364 -18.441 -22.947  0.00  0.00    -0.343 N 
ATOM     26  N   UNL     1      35.163 -17.608 -21.124  0.00  0.00    -0.285 NA
ATOM     27  C   UNL     1      35.471 -17.518 -22.405  0.00  0.00    +0.117 C 
ATOM     28  H   UNL     1      36.755 -19.141 -22.377  0.00  0.00    +0.144 HD
ATOM     29  H   UNL     1      36.604 -18.392 -23.901  0.00  0.00    +0.144 HD
ATOM     30  H   UNL     1      35.565 -18.316 -20.569  0.00  0.00    +0.188 HD
ENDBRANCH  22  27
ENDBRANCH  18  19
ENDBRANCH   1  18
TORSDOF 5
ENDMDL
MODEL 6
REMARK VINA RESULT:     -11.0      3.563      9.150
REMARK  Name = 17758361
REMARK  5 active torsions:
REMARK  status: ('A' for Active; 'I' for Inactive)
REMARK    1  A    between atoms: N_1  and  C_18
REMARK    2  A    between atoms: C_4  and  C_10
REMARK    3  A    between atoms: C_10  and  C_11
REMARK    4  A    between atoms: C_18  and  C_19
REMARK    5  A    between atoms: C_22  and  C_27
REMARK                            x       y       z     vdW  Elec       q    Type
REMARK                         _______ _______ _______ _____ _____    ______ ____
ROOT
ATOM      1  N   UNL     1      34.341 -22.787 -17.779  0.00  0.00    -0.314 N 
ATOM      2  N   UNL     1      32.631 -22.051 -19.220  0.00  0.00    -0.229 NA
ATOM      3  C   UNL     1      33.931 -22.011 -18.851  0.00  0.00    +0.129 C 
ATOM      4  C   UNL     1      34.496 -20.457 -20.559  0.00  0.00    +0.043 C 
ATOM      5  C   UNL     1      34.894 -21.239 -19.480  0.00  0.00    +0.037 C 
ATOM      6  C   UNL     1      33.167 -20.471 -20.969  0.00  0.00    +0.024 C 
ATOM      7  C   UNL     1      32.282 -21.278 -20.272  0.00  0.00    +0.100 C 
ATOM      8  H   UNL     1      33.667 -23.340 -17.322  0.00  0.00    +0.149 HD
ENDROOT
BRANCH   4  10
ATOM      9  O   UNL     1      36.640 -19.572 -20.864  0.00  0.00    -0.287 OA
ATOM     10  C   UNL     1      35.466 -19.627 -21.257  0.00  0.00    +0.196 C 
BRANCH  10  11
ATOM     11  C   UNL     1      35.106 -18.815 -22.459  0.00  0.00    +0.039 C 
ATOM     12  C   UNL     1      35.068 -17.422 -22.374  0.00  0.00    -0.001 C 
ATOM     13  C   UNL     1      34.733 -16.665 -23.495  0.00  0.00    -0.022 C 
ATOM     14  C   UNL     1      34.811 -19.448 -23.665  0.00  0.00    +0.003 C 
ATOM     15  C   UNL     1      34.437 -17.298 -24.703  0.00  0.00    -0.004 C 
ATOM     16  C   UNL     1      34.477 -18.690 -24.787  0.00  0.00    -0.000 C 
ATOM     17  C   UNL     1      34.695 -15.176 -23.406  0.00  0.00    +0.031 C 
ENDBRANCH  10  11
ENDBRANCH   4  10
BRANCH   1  18
ATOM     18  C   UNL     1      35.703 -22.827 -17.296  0.00  0.00    +0.115 C 
BRANCH  18  19
ATOM     19  C   UNL     1      35.747 -23.210 -15.854  0.00  0.00    -0.003 C 
ATOM     20  C   UNL     1      34.595 -23.678 -15.222  0.00  0.00    -0.003 C 
ATOM     21  C   UNL     1      36.940 -23.098 -15.138  0.00  0.00    -0.003 C 
ATOM     22  C   UNL     1      35.827 -23.923 -13.159  0.00  0.00    +0.031 C 
ATOM     23  C   UNL     1      34.636 -24.034 -13.875  0.00  0.00    +0.002 C 
ATOM     24  C   UNL     1      36.979 -23.455 -13.791  0.00  0.00    +0.002 C 
BRANCH  22  27
ATOM     25  N   UNL     1      36.651 -23.592 -10.839  0.00  0.00    -0.343 N 
ATOM     26  N   UNL     1      35.155 -25.322 -11.324  0.00  0.00    -0.285 NA
ATOM     27  C   UNL     1      35.868 -24.295 -11.754  0.00  0.00    +0.117 C 
ATOM     28  H   UNL     1      36.663 -23.861  -9.893  0.00  0.00    +0.144 HD
ATOM     29  H   UNL     1      37.191 -22.826 -11.141  0.00  0.00    +0.144 HD
ATOM     30  H   UNL     1      35.181 -25.575 -10.373  0.00  0.00    +0.188 HD
ENDBRANCH  22  27
ENDBRANCH  18  19
ENDBRANCH   1  18
TORSDOF 5
ENDMDL
MODEL 7
REMARK VINA RESULT:     -11.0      2.284      3.095
REMARK  Name = 17758361
REMARK  5 active torsions:
REMARK  status: ('A' for Active; 'I' for Inactive)
REMARK    1  A    between atoms: N_1  and  C_18
REMARK    2  A    between atoms: C_4  and  C_10
REMARK    3  A    between atoms: C_10  and  C_11
REMARK    4  A    between atoms: C_18  and  C_19
REMARK    5  A    between atoms: C_22  and  C_27
REMARK                            x       y       z     vdW  Elec       q    Type
REMARK                         _______ _______ _______ _____ _____    ______ ____
ROOT
ATOM      1  N   UNL     1      34.581 -21.689 -19.703  0.00  0.00    -0.314 N 
ATOM      2  N   UNL     1      33.248 -22.925 -18.208  0.00  0.00    -0.229 NA
ATOM      3  C   UNL     1      34.435 -22.345 -18.492  0.00  0.00    +0.129 C 
ATOM      4  C   UNL     1      35.397 -23.014 -16.423  0.00  0.00    +0.043 C 
ATOM      5  C   UNL     1      35.530 -22.360 -17.643  0.00  0.00    +0.037 C 
ATOM      6  C   UNL     1      34.191 -23.623 -16.095  0.00  0.00    +0.024 C 
ATOM      7  C   UNL     1      33.156 -23.551 -17.013  0.00  0.00    +0.100 C 
ATOM      8  H   UNL     1      33.811 -21.670 -20.317  0.00  0.00    +0.149 HD
ENDROOT
BRANCH   4  10
ATOM      9  O   UNL     1      37.438 -22.239 -15.583  0.00  0.00    -0.287 OA
ATOM     10  C   UNL     1      36.515 -23.061 -15.493  0.00  0.00    +0.196 C 
BRANCH  10  11
ATOM     11  C   UNL     1      36.608 -24.080 -14.404  0.00  0.00    +0.039 C 
ATOM     12  C   UNL     1      36.109 -23.791 -13.133  0.00  0.00    -0.001 C 
ATOM     13  C   UNL     1      36.195 -24.742 -12.118  0.00  0.00    -0.022 C 
ATOM     14  C   UNL     1      37.191 -25.321 -14.659  0.00  0.00    +0.003 C 
ATOM     15  C   UNL     1      36.779 -25.984 -12.373  0.00  0.00    -0.004 C 
ATOM     16  C   UNL     1      37.276 -26.273 -13.643  0.00  0.00    -0.000 C 
ATOM     17  C   UNL     1      35.660 -24.435 -10.760  0.00  0.00    +0.031 C 
ENDBRANCH  10  11
ENDBRANCH   4  10
BRANCH   1  18
ATOM     18  C   UNL     1      35.801 -21.031 -20.115  0.00  0.00    +0.115 C 
BRANCH  18  19
ATOM     19  C   UNL     1      35.533 -20.031 -21.189  0.00  0.00    -0.003 C 
ATOM     20  C   UNL     1      36.482 -19.052 -21.482  0.00  0.00    -0.003 C 
ATOM     21  C   UNL     1      34.333 -20.075 -21.900  0.00  0.00    -0.003 C 
ATOM     22  C   UNL     1      35.031 -18.160 -23.195  0.00  0.00    +0.031 C 
ATOM     23  C   UNL     1      36.231 -18.116 -22.485  0.00  0.00    +0.002 C 
ATOM     24  C   UNL     1      34.083 -19.139 -22.903  0.00  0.00    +0.002 C 
BRANCH  22  27
ATOM     25  N   UNL     1      35.322 -15.904 -24.194  0.00  0.00    -0.343 N 
ATOM     26  N   UNL     1      33.994 -17.504 -25.261  0.00  0.00    -0.285 NA
ATOM     27  C   UNL     1      34.771 -17.184 -24.241  0.00  0.00    +0.117 C 
ATOM     28  H   UNL     1      35.132 -15.259 -24.913  0.00  0.00    +0.144 HD
ATOM     29  H   UNL     1      35.901 -15.646 -23.440  0.00  0.00    +0.144 HD
ATOM     30  H   UNL     1      33.816 -16.845 -25.971  0.00  0.00    +0.188 HD
ENDBRANCH  22  27
ENDBRANCH  18  19
ENDBRANCH   1  18
TORSDOF 5
ENDMDL
MODEL 8
REMARK VINA RESULT:     -10.9      3.772      6.965
REMARK  Name = 17758361
REMARK  5 active torsions:
REMARK  status: ('A' for Active; 'I' for Inactive)
REMARK    1  A    between atoms: N_1  and  C_18
REMARK    2  A    between atoms: C_4  and  C_10
REMARK    3  A    between atoms: C_10  and  C_11
REMARK    4  A    between atoms: C_18  and  C_19
REMARK    5  A    between atoms: C_22  and  C_27
REMARK                            x       y       z     vdW  Elec       q    Type
REMARK                         _______ _______ _______ _____ _____    ______ ____
ROOT
ATOM      1  N   UNL     1      33.959 -24.131 -13.192  0.00  0.00    -0.314 N 
ATOM      2  N   UNL     1      31.887 -25.205 -13.497  0.00  0.00    -0.229 NA
ATOM      3  C   UNL     1      32.801 -24.309 -13.931  0.00  0.00    +0.129 C 
ATOM      4  C   UNL     1      31.501 -23.718 -15.832  0.00  0.00    +0.043 C 
ATOM      5  C   UNL     1      32.658 -23.548 -15.080  0.00  0.00    +0.037 C 
ATOM      6  C   UNL     1      30.537 -24.631 -15.417  0.00  0.00    +0.024 C 
ATOM      7  C   UNL     1      30.775 -25.344 -14.253  0.00  0.00    +0.100 C 
ATOM      8  H   UNL     1      34.074 -24.664 -12.373  0.00  0.00    +0.149 HD
ENDROOT
BRANCH   4  10
ATOM      9  O   UNL     1      30.160 -22.587 -17.379  0.00  0.00    -0.287 OA
ATOM     10  C   UNL     1      31.299 -22.946 -17.048  0.00  0.00    +0.196 C 
BRANCH  10  11
ATOM     11  C   UNL     1      32.429 -22.553 -17.943  0.00  0.00    +0.039 C 
ATOM     12  C   UNL     1      32.205 -21.678 -19.007  0.00  0.00    -0.001 C 
ATOM     13  C   UNL     1      33.259 -21.311 -19.842  0.00  0.00    -0.022 C 
ATOM     14  C   UNL     1      33.708 -23.058 -17.714  0.00  0.00    +0.003 C 
ATOM     15  C   UNL     1      34.539 -21.817 -19.613  0.00  0.00    -0.004 C 
ATOM     16  C   UNL     1      34.763 -22.690 -18.549  0.00  0.00    -0.000 C 
ATOM     17  C   UNL     1      33.021 -20.374 -20.978  0.00  0.00    +0.031 C 
ENDBRANCH  10  11
ENDBRANCH   4  10
BRANCH   1  18
ATOM     18  C   UNL     1      35.007 -23.204 -13.558  0.00  0.00    +0.115 C 
BRANCH  18  19
ATOM     19  C   UNL     1      36.262 -23.928 -13.911  0.00  0.00    -0.003 C 
ATOM     20  C   UNL     1      36.781 -24.887 -13.040  0.00  0.00    -0.003 C 
ATOM     21  C   UNL     1      36.918 -23.646 -15.109  0.00  0.00    -0.003 C 
ATOM     22  C   UNL     1      38.611 -25.282 -14.567  0.00  0.00    +0.031 C 
ATOM     23  C   UNL     1      37.955 -25.564 -13.369  0.00  0.00    +0.002 C 
ATOM     24  C   UNL     1      38.092 -24.324 -15.437  0.00  0.00    +0.002 C 
BRANCH  22  27
ATOM     25  N   UNL     1      40.596 -26.634 -13.935  0.00  0.00    -0.343 N 
ATOM     26  N   UNL     1      40.247 -26.023 -16.163  0.00  0.00    -0.285 NA
ATOM     27  C   UNL     1      39.835 -25.989 -14.908  0.00  0.00    +0.117 C 
ATOM     28  H   UNL     1      41.422 -27.107 -14.188  0.00  0.00    +0.144 HD
ATOM     29  H   UNL     1      40.307 -26.617 -12.993  0.00  0.00    +0.144 HD
ATOM     30  H   UNL     1      41.075 -26.501 -16.397  0.00  0.00    +0.188 HD
ENDBRANCH  22  27
ENDBRANCH  18  19
ENDBRANCH   1  18
TORSDOF 5
ENDMDL
MODEL 9
REMARK VINA RESULT:     -10.8     10.136     14.717
REMARK  Name = 17758361
REMARK  5 active torsions:
REMARK  status: ('A' for Active; 'I' for Inactive)
REMARK    1  A    between atoms: N_1  and  C_18
REMARK    2  A    between atoms: C_4  and  C_10
REMARK    3  A    between atoms: C_10  and  C_11
REMARK    4  A    between atoms: C_18  and  C_19
REMARK    5  A    between atoms: C_22  and  C_27
REMARK                            x       y       z     vdW  Elec       q    Type
REMARK                         _______ _______ _______ _____ _____    ______ ____
ROOT
ATOM      1  N   UNL     1      31.189 -10.449 -20.532  0.00  0.00    -0.314 N 
ATOM      2  N   UNL     1      32.319  -8.424 -20.130  0.00  0.00    -0.229 NA
ATOM      3  C   UNL     1      31.858  -9.337 -21.014  0.00  0.00    +0.129 C 
ATOM      4  C   UNL     1      32.678  -8.121 -22.885  0.00  0.00    +0.043 C 
ATOM      5  C   UNL     1      32.009  -9.233 -22.388  0.00  0.00    +0.037 C 
ATOM      6  C   UNL     1      33.167  -7.159 -22.007  0.00  0.00    +0.024 C 
ATOM      7  C   UNL     1      32.963  -7.356 -20.651  0.00  0.00    +0.100 C 
ATOM      8  H   UNL     1      31.074 -10.536 -19.558  0.00  0.00    +0.149 HD
ENDROOT
BRANCH   4  10
ATOM      9  O   UNL     1      32.327  -7.019 -24.919  0.00  0.00    -0.287 OA
ATOM     10  C   UNL     1      32.865  -7.961 -24.319  0.00  0.00    +0.196 C 
BRANCH  10  11
ATOM     11  C   UNL     1      33.697  -8.903 -25.128  0.00  0.00    +0.039 C 
ATOM     12  C   UNL     1      33.084  -9.905 -25.881  0.00  0.00    -0.001 C 
ATOM     13  C   UNL     1      33.860 -10.784 -26.636  0.00  0.00    -0.022 C 
ATOM     14  C   UNL     1      35.085  -8.780 -25.130  0.00  0.00    +0.003 C 
ATOM     15  C   UNL     1      35.250 -10.660 -26.639  0.00  0.00    -0.004 C 
ATOM     16  C   UNL     1      35.862  -9.658 -25.887  0.00  0.00    -0.000 C 
ATOM     17  C   UNL     1      33.205 -11.853 -27.443  0.00  0.00    +0.031 C 
ENDBRANCH  10  11
ENDBRANCH   4  10
BRANCH   1  18
ATOM     18  C   UNL     1      30.650 -11.489 -21.381  0.00  0.00    +0.115 C 
BRANCH  18  19
ATOM     19  C   UNL     1      31.680 -12.529 -21.670  0.00  0.00    -0.003 C 
ATOM     20  C   UNL     1      32.066 -13.424 -20.672  0.00  0.00    -0.003 C 
ATOM     21  C   UNL     1      32.259 -12.605 -22.937  0.00  0.00    -0.003 C 
ATOM     22  C   UNL     1      33.608 -14.472 -22.208  0.00  0.00    +0.031 C 
ATOM     23  C   UNL     1      33.030 -14.395 -20.941  0.00  0.00    +0.002 C 
ATOM     24  C   UNL     1      33.222 -13.577 -23.206  0.00  0.00    +0.002 C 
BRANCH  22  27
ATOM     25  N   UNL     1      34.911 -16.486 -21.565  0.00  0.00    -0.343 N 
ATOM     26  N   UNL     1      35.266 -15.464 -23.636  0.00  0.00    -0.285 NA
ATOM     27  C   UNL     1      34.613 -15.485 -22.488  0.00  0.00    +0.117 C 
ATOM     28  H   UNL     1      35.594 -17.162 -21.775  0.00  0.00    +0.144 HD
ATOM     29  H   UNL     1      34.436 -16.517 -20.702  0.00  0.00    +0.144 HD
ATOM     30  H   UNL     1      35.947 -16.149 -23.828  0.00  0.00    +0.188 HD
ENDBRANCH  22  27
ENDBRANCH  18  19
ENDBRANCH   1  18
TORSDOF 5
ENDMDL
