MODEL 1
REMARK VINA RESULT:     -11.3      0.000      0.000
REMARK  Name = 60795
REMARK  7 active torsions:
REMARK  status: ('A' for Active; 'I' for Inactive)
REMARK    1  A    between atoms: C_1  and  N_2
REMARK    2  A    between atoms: C_1  and  C_17
REMARK    3  A    between atoms: N_3  and  C_11
REMARK    4  A    between atoms: C_17  and  C_18
REMARK    5  A    between atoms: C_18  and  C_19
REMARK    6  A    between atoms: C_19  and  O_20
REMARK    7  A    between atoms: O_20  and  C_26
REMARK                            x       y       z     vdW  Elec       q    Type
REMARK                         _______ _______ _______ _____ _____    ______ ____
ROOT
ATOM      1  C   UNL     1      34.847 -17.430 -24.351  0.00  0.00    -0.077 C 
ENDROOT
BRANCH   1   2
ATOM      2  N   UNL     1      34.715 -15.983 -24.183  0.00  0.00    +0.389 N 
ATOM      3  N   UNL     1      33.431 -13.555 -23.398  0.00  0.00    -0.311 N 
ATOM      4  C   UNL     1      33.556 -15.481 -24.930  0.00  0.00    -0.055 C 
ATOM      5  C   UNL     1      34.581 -15.639 -22.762  0.00  0.00    -0.055 C 
ATOM      6  C   UNL     1      33.440 -13.960 -24.810  0.00  0.00    +0.068 C 
ATOM      7  C   UNL     1      34.498 -14.123 -22.568  0.00  0.00    +0.068 C 
ATOM      8  H   UNL     1      35.559 -15.543 -24.549  0.00  0.00    -0.080 HD
BRANCH   3  11
ATOM      9 CL   UNL     1      31.686 -13.461 -20.947  0.00  0.00    -0.080 Cl
ATOM     10 CL   UNL     1      30.508 -10.544 -20.311  0.00  0.00    -0.081 Cl
ATOM     11  C   UNL     1      32.894 -12.304 -23.076  0.00  0.00    +0.059 C 
ATOM     12  C   UNL     1      32.056 -12.099 -21.959  0.00  0.00    +0.081 C 
ATOM     13  C   UNL     1      33.189 -11.190 -23.890  0.00  0.00    +0.015 C 
ATOM     14  C   UNL     1      31.537 -10.836 -21.670  0.00  0.00    +0.069 C 
ATOM     15  C   UNL     1      32.671  -9.928 -23.600  0.00  0.00    +0.002 C 
ATOM     16  C   UNL     1      31.845  -9.751 -22.490  0.00  0.00    +0.012 C 
ENDBRANCH   3  11
ENDBRANCH   1   2
BRANCH   1  17
ATOM     17  C   UNL     1      35.250 -18.083 -23.031  0.00  0.00    -0.019 C 
BRANCH  17  18
ATOM     18  C   UNL     1      34.550 -19.428 -22.842  0.00  0.00    +0.045 C 
BRANCH  18  19
ATOM     19  C   UNL     1      34.375 -19.770 -21.369  0.00  0.00    +0.205 C 
BRANCH  19  20
ATOM     20  O   UNL     1      35.313 -20.776 -20.992  0.00  0.00    -0.475 OA
BRANCH  20  26
ATOM     21  O   UNL     1      37.575 -23.175 -14.700  0.00  0.00    -0.275 OA
ATOM     22  N   UNL     1      36.846 -22.450 -16.754  0.00  0.00    -0.284 N 
ATOM     23  C   UNL     1      34.552 -22.840 -17.460  0.00  0.00    -0.008 C 
ATOM     24  C   UNL     1      34.332 -23.670 -16.228  0.00  0.00    +0.037 C 
ATOM     25  C   UNL     1      35.818 -22.290 -17.700  0.00  0.00    +0.049 C 
ATOM     26  C   UNL     1      35.066 -21.452 -19.835  0.00  0.00    +0.140 C 
ATOM     27  C   UNL     1      35.207 -23.183 -15.083  0.00  0.00    +0.090 C 
ATOM     28  C   UNL     1      36.080 -21.605 -18.890  0.00  0.00    +0.051 C 
ATOM     29  C   UNL     1      33.547 -22.692 -18.422  0.00  0.00    +0.000 C 
ATOM     30  C   UNL     1      33.802 -21.991 -19.602  0.00  0.00    +0.037 C 
ATOM     31  C   UNL     1      36.653 -22.975 -15.491  0.00  0.00    +0.226 C 
ATOM     32  H   UNL     1      37.757 -22.172 -17.007  0.00  0.00    +0.155 HD
ENDBRANCH  20  26
ENDBRANCH  19  20
ENDBRANCH  18  19
ENDBRANCH  17  18
ENDBRANCH   1  17
TORSDOF 7
ENDMDL
MODEL 2
REMARK VINA RESULT:     -11.2      4.791     12.329
REMARK  Name = 60795
REMARK  7 active torsions:
REMARK  status: ('A' for Active; 'I' for Inactive)
REMARK    1  A    between atoms: C_1  and  N_2
REMARK    2  A    between atoms: C_1  and  C_17
REMARK    3  A    between atoms: N_3  and  C_11
REMARK    4  A    between atoms: C_17  and  C_18
REMARK    5  A    between atoms: C_18  and  C_19
REMARK    6  A    between atoms: C_19  and  O_20
REMARK    7  A    between atoms: O_20  and  C_26
REMARK                            x       y       z     vdW  Elec       q    Type
REMARK                         _______ _______ _______ _____ _____    ______ ____
ROOT
ATOM      1  C   UNL     1      34.337 -16.084 -24.888  0.00  0.00    -0.077 C 
ENDROOT
BRANCH   1   2
ATOM      2  N   UNL     1      34.899 -17.145 -24.054  0.00  0.00    +0.389 N 
ATOM      3  N   UNL     1      34.889 -19.127 -21.996  0.00  0.00    -0.311 N 
ATOM      4  C   UNL     1      34.892 -16.748 -22.641  0.00  0.00    -0.055 C 
ATOM      5  C   UNL     1      34.143 -18.391 -24.227  0.00  0.00    -0.055 C 
ATOM      6  C   UNL     1      35.531 -17.827 -21.764  0.00  0.00    +0.068 C 
ATOM      7  C   UNL     1      34.756 -19.526 -23.401  0.00  0.00    +0.068 C 
ATOM      8  H   UNL     1      35.863 -17.302 -24.347  0.00  0.00    -0.080 HD
BRANCH   3  11
ATOM      9 CL   UNL     1      32.308 -20.273 -20.955  0.00  0.00    -0.080 Cl
ATOM     10 CL   UNL     1      32.708 -22.508 -18.686  0.00  0.00    -0.081 Cl
ATOM     11  C   UNL     1      35.010 -20.108 -21.006  0.00  0.00    +0.059 C 
ATOM     12  C   UNL     1      33.892 -20.738 -20.417  0.00  0.00    +0.081 C 
ATOM     13  C   UNL     1      36.292 -20.495 -20.563  0.00  0.00    +0.015 C 
ATOM     14  C   UNL     1      34.051 -21.712 -19.430  0.00  0.00    +0.069 C 
ATOM     15  C   UNL     1      36.450 -21.468 -19.577  0.00  0.00    +0.002 C 
ATOM     16  C   UNL     1      35.330 -22.077 -19.011  0.00  0.00    +0.012 C 
ENDBRANCH   3  11
ENDBRANCH   1   2
BRANCH   1  17
ATOM     17  C   UNL     1      33.963 -14.877 -24.029  0.00  0.00    -0.019 C 
BRANCH  17  18
ATOM     18  C   UNL     1      33.415 -13.736 -24.887  0.00  0.00    +0.045 C 
BRANCH  18  19
ATOM     19  C   UNL     1      33.804 -12.375 -24.327  0.00  0.00    +0.205 C 
BRANCH  19  20
ATOM     20  O   UNL     1      34.133 -11.489 -25.395  0.00  0.00    -0.475 OA
BRANCH  20  26
ATOM     21  O   UNL     1      30.635  -5.348 -24.683  0.00  0.00    -0.275 OA
ATOM     22  N   UNL     1      31.787  -7.315 -24.960  0.00  0.00    -0.284 N 
ATOM     23  C   UNL     1      34.179  -7.419 -24.534  0.00  0.00    -0.008 C 
ATOM     24  C   UNL     1      34.189  -5.931 -24.331  0.00  0.00    +0.037 C 
ATOM     25  C   UNL     1      32.980  -8.055 -24.882  0.00  0.00    +0.049 C 
ATOM     26  C   UNL     1      34.146 -10.157 -25.114  0.00  0.00    +0.140 C 
ATOM     27  C   UNL     1      32.855  -5.449 -23.781  0.00  0.00    +0.090 C 
ATOM     28  C   UNL     1      32.963  -9.420 -25.182  0.00  0.00    +0.051 C 
ATOM     29  C   UNL     1      35.361  -8.164 -24.483  0.00  0.00    +0.000 C 
ATOM     30  C   UNL     1      35.341  -9.532 -24.763  0.00  0.00    +0.037 C 
ATOM     31  C   UNL     1      31.666  -6.005 -24.542  0.00  0.00    +0.226 C 
ATOM     32  H   UNL     1      30.991  -7.758 -25.336  0.00  0.00    +0.155 HD
ENDBRANCH  20  26
ENDBRANCH  19  20
ENDBRANCH  18  19
ENDBRANCH  17  18
ENDBRANCH   1  17
TORSDOF 7
ENDMDL
MODEL 3
REMARK VINA RESULT:     -11.1      3.255      6.029
REMARK  Name = 60795
REMARK  7 active torsions:
REMARK  status: ('A' for Active; 'I' for Inactive)
REMARK    1  A    between atoms: C_1  and  N_2
REMARK    2  A    between atoms: C_1  and  C_17
REMARK    3  A    between atoms: N_3  and  C_11
REMARK    4  A    between atoms: C_17  and  C_18
REMARK    5  A    between atoms: C_18  and  C_19
REMARK    6  A    between atoms: C_19  and  O_20
REMARK    7  A    between atoms: O_20  and  C_26
REMARK                            x       y       z     vdW  Elec       q    Type
REMARK                         _______ _______ _______ _____ _____    ______ ____
ROOT
ATOM      1  C   UNL     1      35.589 -21.875 -19.116  0.00  0.00    -0.077 C 
ENDROOT
BRANCH   1   2
ATOM      2  N   UNL     1      35.521 -21.092 -20.349  0.00  0.00    +0.389 N 
ATOM      3  N   UNL     1      35.082 -18.756 -21.934  0.00  0.00    -0.311 N 
ATOM      4  C   UNL     1      34.160 -20.585 -20.564  0.00  0.00    -0.055 C 
ATOM      5  C   UNL     1      36.469 -19.972 -20.301  0.00  0.00    -0.055 C 
ATOM      6  C   UNL     1      34.063 -19.812 -21.880  0.00  0.00    +0.068 C 
ATOM      7  C   UNL     1      36.449 -19.176 -21.609  0.00  0.00    +0.068 C 
ATOM      8  H   UNL     1      35.772 -21.701 -21.127  0.00  0.00    -0.080 HD
BRANCH   3  11
ATOM      9 CL   UNL     1      34.712 -16.054 -20.659  0.00  0.00    -0.080 Cl
ATOM     10 CL   UNL     1      34.245 -13.682 -22.770  0.00  0.00    -0.081 Cl
ATOM     11  C   UNL     1      34.877 -17.687 -22.813  0.00  0.00    +0.059 C 
ATOM     12  C   UNL     1      34.686 -16.360 -22.368  0.00  0.00    +0.081 C 
ATOM     13  C   UNL     1      34.855 -17.924 -24.203  0.00  0.00    +0.015 C 
ATOM     14  C   UNL     1      34.482 -15.319 -23.275  0.00  0.00    +0.069 C 
ATOM     15  C   UNL     1      34.652 -16.882 -25.109  0.00  0.00    +0.002 C 
ATOM     16  C   UNL     1      34.466 -15.580 -24.644  0.00  0.00    +0.012 C 
ENDBRANCH   3  11
ENDBRANCH   1   2
BRANCH   1  17
ATOM     17  C   UNL     1      36.741 -21.387 -18.240  0.00  0.00    -0.019 C 
BRANCH  17  18
ATOM     18  C   UNL     1      37.033 -22.375 -17.110  0.00  0.00    +0.045 C 
BRANCH  18  19
ATOM     19  C   UNL     1      35.855 -22.500 -16.153  0.00  0.00    +0.205 C 
BRANCH  19  20
ATOM     20  O   UNL     1      35.217 -23.762 -16.334  0.00  0.00    -0.475 OA
BRANCH  20  26
ATOM     21  O   UNL     1      28.316 -22.371 -17.277  0.00  0.00    -0.275 OA
ATOM     22  N   UNL     1      30.548 -22.784 -16.932  0.00  0.00    -0.284 N 
ATOM     23  C   UNL     1      31.283 -24.101 -15.024  0.00  0.00    -0.008 C 
ATOM     24  C   UNL     1      29.870 -24.120 -14.516  0.00  0.00    +0.037 C 
ATOM     25  C   UNL     1      31.580 -23.397 -16.199  0.00  0.00    +0.049 C 
ATOM     26  C   UNL     1      33.929 -23.872 -15.907  0.00  0.00    +0.140 C 
ATOM     27  C   UNL     1      28.878 -24.059 -15.668  0.00  0.00    +0.090 C 
ATOM     28  C   UNL     1      32.902 -23.273 -16.636  0.00  0.00    +0.051 C 
ATOM     29  C   UNL     1      32.322 -24.686 -14.295  0.00  0.00    +0.000 C 
ATOM     30  C   UNL     1      33.641 -24.579 -14.741  0.00  0.00    +0.037 C 
ATOM     31  C   UNL     1      29.205 -22.971 -16.673  0.00  0.00    +0.226 C 
ATOM     32  H   UNL     1      30.800 -22.186 -17.674  0.00  0.00    +0.155 HD
ENDBRANCH  20  26
ENDBRANCH  19  20
ENDBRANCH  18  19
ENDBRANCH  17  18
ENDBRANCH   1  17
TORSDOF 7
ENDMDL
MODEL 4
REMARK VINA RESULT:     -10.9      1.890      2.434
REMARK  Name = 60795
REMARK  7 active torsions:
REMARK  status: ('A' for Active; 'I' for Inactive)
REMARK    1  A    between atoms: C_1  and  N_2
REMARK    2  A    between atoms: C_1  and  C_17
REMARK    3  A    between atoms: N_3  and  C_11
REMARK    4  A    between atoms: C_17  and  C_18
REMARK    5  A    between atoms: C_18  and  C_19
REMARK    6  A    between atoms: C_19  and  O_20
REMARK    7  A    between atoms: O_20  and  C_26
REMARK                            x       y       z     vdW  Elec       q    Type
REMARK                         _______ _______ _______ _____ _____    ______ ____
ROOT
ATOM      1  C   UNL     1      35.020 -16.874 -24.432  0.00  0.00    -0.077 C 
ENDROOT
BRANCH   1   2
ATOM      2  N   UNL     1      34.797 -15.452 -24.177  0.00  0.00    +0.389 N 
ATOM      3  N   UNL     1      33.342 -13.157 -23.295  0.00  0.00    -0.311 N 
ATOM      4  C   UNL     1      33.641 -14.967 -24.941  0.00  0.00    -0.055 C 
ATOM      5  C   UNL     1      34.586 -15.212 -22.745  0.00  0.00    -0.055 C 
ATOM      6  C   UNL     1      33.432 -13.467 -24.728  0.00  0.00    +0.068 C 
ATOM      7  C   UNL     1      34.406 -13.719 -22.457  0.00  0.00    +0.068 C 
ATOM      8  H   UNL     1      35.627 -14.941 -24.477  0.00  0.00    -0.080 HD
BRANCH   3  11
ATOM      9 CL   UNL     1      31.701 -13.267 -20.774  0.00  0.00    -0.080 Cl
ATOM     10 CL   UNL     1      30.319 -10.472 -20.009  0.00  0.00    -0.081 Cl
ATOM     11  C   UNL     1      32.719 -11.963 -22.917  0.00  0.00    +0.059 C 
ATOM     12  C   UNL     1      31.916 -11.855 -21.761  0.00  0.00    +0.081 C 
ATOM     13  C   UNL     1      32.889 -10.809 -23.710  0.00  0.00    +0.015 C 
ATOM     14  C   UNL     1      31.309 -10.646 -21.416  0.00  0.00    +0.069 C 
ATOM     15  C   UNL     1      32.283  -9.601 -23.365  0.00  0.00    +0.002 C 
ATOM     16  C   UNL     1      31.493  -9.520 -22.218  0.00  0.00    +0.012 C 
ENDBRANCH   3  11
ENDBRANCH   1   2
BRANCH   1  17
ATOM     17  C   UNL     1      33.720 -17.545 -24.873  0.00  0.00    -0.019 C 
BRANCH  17  18
ATOM     18  C   UNL     1      33.821 -19.066 -24.773  0.00  0.00    +0.045 C 
BRANCH  18  19
ATOM     19  C   UNL     1      34.579 -19.499 -23.525  0.00  0.00    +0.205 C 
BRANCH  19  20
ATOM     20  O   UNL     1      33.741 -19.365 -22.379  0.00  0.00    -0.475 OA
BRANCH  20  26
ATOM     21  O   UNL     1      31.415 -23.381 -17.001  0.00  0.00    -0.275 OA
ATOM     22  N   UNL     1      32.182 -22.044 -18.704  0.00  0.00    -0.284 N 
ATOM     23  C   UNL     1      34.567 -21.839 -19.137  0.00  0.00    -0.008 C 
ATOM     24  C   UNL     1      34.842 -22.647 -17.901  0.00  0.00    +0.037 C 
ATOM     25  C   UNL     1      33.241 -21.532 -19.474  0.00  0.00    +0.049 C 
ATOM     26  C   UNL     1      34.009 -20.175 -21.317  0.00  0.00    +0.140 C 
ATOM     27  C   UNL     1      33.715 -23.633 -17.635  0.00  0.00    +0.090 C 
ATOM     28  C   UNL     1      32.962 -20.693 -20.556  0.00  0.00    +0.051 C 
ATOM     29  C   UNL     1      35.609 -21.303 -19.899  0.00  0.00    +0.000 C 
ATOM     30  C   UNL     1      35.330 -20.481 -20.992  0.00  0.00    +0.037 C 
ATOM     31  C   UNL     1      32.341 -22.995 -17.715  0.00  0.00    +0.226 C 
ATOM     32  H   UNL     1      31.274 -21.705 -18.881  0.00  0.00    +0.155 HD
ENDBRANCH  20  26
ENDBRANCH  19  20
ENDBRANCH  18  19
ENDBRANCH  17  18
ENDBRANCH   1  17
TORSDOF 7
ENDMDL
MODEL 5
REMARK VINA RESULT:     -10.8      4.211      7.569
REMARK  Name = 60795
REMARK  7 active torsions:
REMARK  status: ('A' for Active; 'I' for Inactive)
REMARK    1  A    between atoms: C_1  and  N_2
REMARK    2  A    between atoms: C_1  and  C_17
REMARK    3  A    between atoms: N_3  and  C_11
REMARK    4  A    between atoms: C_17  and  C_18
REMARK    5  A    between atoms: C_18  and  C_19
REMARK    6  A    between atoms: C_19  and  O_20
REMARK    7  A    between atoms: O_20  and  C_26
REMARK                            x       y       z     vdW  Elec       q    Type
REMARK                         _______ _______ _______ _____ _____    ______ ____
ROOT
ATOM      1  C   UNL     1      31.577 -10.408 -20.214  0.00  0.00    -0.077 C 
ENDROOT
BRANCH   1   2
ATOM      2  N   UNL     1      31.518  -9.169 -20.988  0.00  0.00    +0.389 N 
ATOM      3  N   UNL     1      32.410  -7.243 -22.900  0.00  0.00    -0.311 N 
ATOM      4  C   UNL     1      32.687  -8.328 -20.705  0.00  0.00    -0.055 C 
ATOM      5  C   UNL     1      31.449  -9.461 -22.424  0.00  0.00    -0.055 C 
ATOM      6  C   UNL     1      32.609  -7.003 -21.464  0.00  0.00    +0.068 C 
ATOM      7  C   UNL     1      31.330  -8.173 -23.244  0.00  0.00    +0.068 C 
ATOM      8  H   UNL     1      30.675  -8.664 -20.714  0.00  0.00    -0.080 HD
BRANCH   3  11
ATOM      9 CL   UNL     1      34.993  -7.622 -24.398  0.00  0.00    -0.080 Cl
ATOM     10 CL   UNL     1      35.685  -5.219 -26.410  0.00  0.00    -0.081 Cl
ATOM     11  C   UNL     1      32.756  -6.222 -23.792  0.00  0.00    +0.059 C 
ATOM     12  C   UNL     1      33.937  -6.254 -24.566  0.00  0.00    +0.081 C 
ATOM     13  C   UNL     1      31.905  -5.108 -23.937  0.00  0.00    +0.015 C 
ATOM     14  C   UNL     1      34.250  -5.216 -25.445  0.00  0.00    +0.069 C 
ATOM     15  C   UNL     1      32.217  -4.071 -24.817  0.00  0.00    +0.002 C 
ATOM     16  C   UNL     1      33.390  -4.126 -25.571  0.00  0.00    +0.012 C 
ENDBRANCH   3  11
ENDBRANCH   1   2
BRANCH   1  17
ATOM     17  C   UNL     1      30.973 -11.562 -21.012  0.00  0.00    -0.019 C 
BRANCH  17  18
ATOM     18  C   UNL     1      31.943 -12.739 -21.104  0.00  0.00    +0.045 C 
BRANCH  18  19
ATOM     19  C   UNL     1      32.405 -12.976 -22.535  0.00  0.00    +0.205 C 
BRANCH  19  20
ATOM     20  O   UNL     1      33.788 -13.327 -22.546  0.00  0.00    -0.475 OA
BRANCH  20  26
ATOM     21  O   UNL     1      35.936 -19.802 -20.568  0.00  0.00    -0.275 OA
ATOM     22  N   UNL     1      35.291 -17.699 -21.229  0.00  0.00    -0.284 N 
ATOM     23  C   UNL     1      34.738 -17.249 -23.555  0.00  0.00    -0.008 C 
ATOM     24  C   UNL     1      35.187 -18.637 -23.911  0.00  0.00    +0.037 C 
ATOM     25  C   UNL     1      34.843 -16.815 -22.227  0.00  0.00    +0.049 C 
ATOM     26  C   UNL     1      34.099 -14.611 -22.874  0.00  0.00    +0.140 C 
ATOM     27  C   UNL     1      34.963 -19.595 -22.751  0.00  0.00    +0.090 C 
ATOM     28  C   UNL     1      34.535 -15.495 -21.887  0.00  0.00    +0.051 C 
ATOM     29  C   UNL     1      34.314 -16.351 -24.539  0.00  0.00    +0.000 C 
ATOM     30  C   UNL     1      33.986 -15.038 -24.196  0.00  0.00    +0.037 C 
ATOM     31  C   UNL     1      35.476 -19.053 -21.430  0.00  0.00    +0.226 C 
ATOM     32  H   UNL     1      35.483 -17.332 -20.336  0.00  0.00    +0.155 HD
ENDBRANCH  20  26
ENDBRANCH  19  20
ENDBRANCH  18  19
ENDBRANCH  17  18
ENDBRANCH   1  17
TORSDOF 7
ENDMDL
MODEL 6
REMARK VINA RESULT:     -10.7      2.308      2.962
REMARK  Name = 60795
REMARK  7 active torsions:
REMARK  status: ('A' for Active; 'I' for Inactive)
REMARK    1  A    between atoms: C_1  and  N_2
REMARK    2  A    between atoms: C_1  and  C_17
REMARK    3  A    between atoms: N_3  and  C_11
REMARK    4  A    between atoms: C_17  and  C_18
REMARK    5  A    between atoms: C_18  and  C_19
REMARK    6  A    between atoms: C_19  and  O_20
REMARK    7  A    between atoms: O_20  and  C_26
REMARK                            x       y       z     vdW  Elec       q    Type
REMARK                         _______ _______ _______ _____ _____    ______ ____
ROOT
ATOM      1  C   UNL     1      35.049 -16.779 -23.702  0.00  0.00    -0.077 C 
ENDROOT
BRANCH   1   2
ATOM      2  N   UNL     1      34.065 -15.729 -23.443  0.00  0.00    +0.389 N 
ATOM      3  N   UNL     1      33.138 -13.046 -23.122  0.00  0.00    -0.311 N 
ATOM      4  C   UNL     1      34.443 -14.950 -22.258  0.00  0.00    -0.055 C 
ATOM      5  C   UNL     1      33.942 -14.842 -24.606  0.00  0.00    -0.055 C 
ATOM      6  C   UNL     1      33.392 -13.884 -21.943  0.00  0.00    +0.068 C 
ATOM      7  C   UNL     1      32.874 -13.770 -24.370  0.00  0.00    +0.068 C 
ATOM      8  H   UNL     1      33.163 -16.173 -23.272  0.00  0.00    -0.080 HD
BRANCH   3  11
ATOM      9 CL   UNL     1      34.276 -10.817 -24.795  0.00  0.00    -0.080 Cl
ATOM     10 CL   UNL     1      32.912  -7.964 -24.248  0.00  0.00    -0.081 Cl
ATOM     11  C   UNL     1      32.575 -11.781 -22.922  0.00  0.00    +0.059 C 
ATOM     12  C   UNL     1      33.002 -10.636 -23.629  0.00  0.00    +0.081 C 
ATOM     13  C   UNL     1      31.538 -11.622 -21.979  0.00  0.00    +0.015 C 
ATOM     14  C   UNL     1      32.418  -9.389 -23.402  0.00  0.00    +0.069 C 
ATOM     15  C   UNL     1      30.954 -10.376 -21.753  0.00  0.00    +0.002 C 
ATOM     16  C   UNL     1      31.394  -9.260 -22.464  0.00  0.00    +0.012 C 
ENDBRANCH   3  11
ENDBRANCH   1   2
BRANCH   1  17
ATOM     17  C   UNL     1      34.503 -17.780 -24.718  0.00  0.00    -0.019 C 
BRANCH  17  18
ATOM     18  C   UNL     1      34.650 -19.216 -24.215  0.00  0.00    +0.045 C 
BRANCH  18  19
ATOM     19  C   UNL     1      34.911 -19.263 -22.716  0.00  0.00    +0.205 C 
BRANCH  19  20
ATOM     20  O   UNL     1      33.767 -19.782 -22.042  0.00  0.00    -0.475 OA
BRANCH  20  26
ATOM     21  O   UNL     1      31.229 -23.626 -16.634  0.00  0.00    -0.275 OA
ATOM     22  N   UNL     1      32.062 -22.344 -18.348  0.00  0.00    -0.284 N 
ATOM     23  C   UNL     1      34.462 -22.117 -18.669  0.00  0.00    -0.008 C 
ATOM     24  C   UNL     1      34.687 -22.872 -17.390  0.00  0.00    +0.037 C 
ATOM     25  C   UNL     1      33.152 -21.844 -19.083  0.00  0.00    +0.049 C 
ATOM     26  C   UNL     1      33.992 -20.547 -20.937  0.00  0.00    +0.140 C 
ATOM     27  C   UNL     1      33.561 -23.865 -17.142  0.00  0.00    +0.090 C 
ATOM     28  C   UNL     1      32.915 -21.052 -20.210  0.00  0.00    +0.051 C 
ATOM     29  C   UNL     1      35.535 -21.594 -19.398  0.00  0.00    +0.000 C 
ATOM     30  C   UNL     1      35.299 -20.819 -20.535  0.00  0.00    +0.037 C 
ATOM     31  C   UNL     1      32.184 -23.253 -17.316  0.00  0.00    +0.226 C 
ATOM     32  H   UNL     1      31.160 -22.026 -18.583  0.00  0.00    +0.155 HD
ENDBRANCH  20  26
ENDBRANCH  19  20
ENDBRANCH  18  19
ENDBRANCH  17  18
ENDBRANCH   1  17
TORSDOF 7
ENDMDL
MODEL 7
REMARK VINA RESULT:     -10.7      4.134     11.111
REMARK  Name = 60795
REMARK  7 active torsions:
REMARK  status: ('A' for Active; 'I' for Inactive)
REMARK    1  A    between atoms: C_1  and  N_2
REMARK    2  A    between atoms: C_1  and  C_17
REMARK    3  A    between atoms: N_3  and  C_11
REMARK    4  A    between atoms: C_17  and  C_18
REMARK    5  A    between atoms: C_18  and  C_19
REMARK    6  A    between atoms: C_19  and  O_20
REMARK    7  A    between atoms: O_20  and  C_26
REMARK                            x       y       z     vdW  Elec       q    Type
REMARK                         _______ _______ _______ _____ _____    ______ ____
ROOT
ATOM      1  C   UNL     1      34.827 -16.321 -24.908  0.00  0.00    -0.077 C 
ENDROOT
BRANCH   1   2
ATOM      2  N   UNL     1      35.272 -17.410 -24.039  0.00  0.00    +0.389 N 
ATOM      3  N   UNL     1      35.055 -19.299 -21.907  0.00  0.00    -0.311 N 
ATOM      4  C   UNL     1      35.329 -16.963 -22.642  0.00  0.00    -0.055 C 
ATOM      5  C   UNL     1      34.372 -18.564 -24.157  0.00  0.00    -0.055 C 
ATOM      6  C   UNL     1      35.848 -18.076 -21.730  0.00  0.00    +0.068 C 
ATOM      7  C   UNL     1      34.858 -19.732 -23.294  0.00  0.00    +0.068 C 
ATOM      8  H   UNL     1      36.207 -17.691 -24.334  0.00  0.00    -0.080 HD
BRANCH   3  11
ATOM      9 CL   UNL     1      32.366 -20.267 -20.961  0.00  0.00    -0.080 Cl
ATOM     10 CL   UNL     1      32.529 -22.439 -18.604  0.00  0.00    -0.081 Cl
ATOM     11  C   UNL     1      35.072 -20.249 -20.880  0.00  0.00    +0.059 C 
ATOM     12  C   UNL     1      33.893 -20.798 -20.329  0.00  0.00    +0.081 C 
ATOM     13  C   UNL     1      36.307 -20.689 -20.361  0.00  0.00    +0.015 C 
ATOM     14  C   UNL     1      33.949 -21.743 -19.304  0.00  0.00    +0.069 C 
ATOM     15  C   UNL     1      36.363 -21.635 -19.337  0.00  0.00    +0.002 C 
ATOM     16  C   UNL     1      35.184 -22.162 -18.809  0.00  0.00    +0.012 C 
ENDBRANCH   3  11
ENDBRANCH   1   2
BRANCH   1  17
ATOM     17  C   UNL     1      33.356 -16.004 -24.651  0.00  0.00    -0.019 C 
BRANCH  17  18
ATOM     18  C   UNL     1      33.081 -14.506 -24.784  0.00  0.00    +0.045 C 
BRANCH  18  19
ATOM     19  C   UNL     1      33.579 -13.733 -23.570  0.00  0.00    +0.205 C 
BRANCH  19  20
ATOM     20  O   UNL     1      32.496 -13.490 -22.675  0.00  0.00    -0.475 OA
BRANCH  20  26
ATOM     21  O   UNL     1      32.774  -6.626 -24.480  0.00  0.00    -0.275 OA
ATOM     22  N   UNL     1      32.723  -8.836 -23.859  0.00  0.00    -0.284 N 
ATOM     23  C   UNL     1      31.597  -9.520 -21.814  0.00  0.00    -0.008 C 
ATOM     24  C   UNL     1      31.378  -8.074 -21.473  0.00  0.00    +0.037 C 
ATOM     25  C   UNL     1      32.300  -9.850 -22.981  0.00  0.00    +0.049 C 
ATOM     26  C   UNL     1      32.203 -12.190 -22.395  0.00  0.00    +0.140 C 
ATOM     27  C   UNL     1      31.247  -7.233 -22.733  0.00  0.00    +0.090 C 
ATOM     28  C   UNL     1      32.612 -11.182 -23.267  0.00  0.00    +0.051 C 
ATOM     29  C   UNL     1      31.204 -10.538 -20.940  0.00  0.00    +0.000 C 
ATOM     30  C   UNL     1      31.498 -11.870 -21.235  0.00  0.00    +0.037 C 
ATOM     31  C   UNL     1      32.339  -7.514 -23.748  0.00  0.00    +0.226 C 
ATOM     32  H   UNL     1      33.327  -9.084 -24.596  0.00  0.00    +0.155 HD
ENDBRANCH  20  26
ENDBRANCH  19  20
ENDBRANCH  18  19
ENDBRANCH  17  18
ENDBRANCH   1  17
TORSDOF 7
ENDMDL
MODEL 8
REMARK VINA RESULT:     -10.6      4.318      7.585
REMARK  Name = 60795
REMARK  7 active torsions:
REMARK  status: ('A' for Active; 'I' for Inactive)
REMARK    1  A    between atoms: C_1  and  N_2
REMARK    2  A    between atoms: C_1  and  C_17
REMARK    3  A    between atoms: N_3  and  C_11
REMARK    4  A    between atoms: C_17  and  C_18
REMARK    5  A    between atoms: C_18  and  C_19
REMARK    6  A    between atoms: C_19  and  O_20
REMARK    7  A    between atoms: O_20  and  C_26
REMARK                            x       y       z     vdW  Elec       q    Type
REMARK                         _______ _______ _______ _____ _____    ______ ____
ROOT
ATOM      1  C   UNL     1      31.412 -10.095 -20.531  0.00  0.00    -0.077 C 
ENDROOT
BRANCH   1   2
ATOM      2  N   UNL     1      32.225  -9.384 -21.517  0.00  0.00    +0.389 N 
ATOM      3  N   UNL     1      32.826  -7.325 -23.404  0.00  0.00    -0.311 N 
ATOM      4  C   UNL     1      31.540  -9.343 -22.815  0.00  0.00    -0.055 C 
ATOM      5  C   UNL     1      32.511  -8.019 -21.060  0.00  0.00    -0.055 C 
ATOM      6  C   UNL     1      32.405  -8.652 -23.871  0.00  0.00    +0.068 C 
ATOM      7  C   UNL     1      33.408  -7.281 -22.058  0.00  0.00    +0.068 C 
ATOM      8  H   UNL     1      33.106  -9.886 -21.625  0.00  0.00    -0.080 HD
BRANCH   3  11
ATOM      9 CL   UNL     1      30.710  -5.376 -24.292  0.00  0.00    -0.080 Cl
ATOM     10 CL   UNL     1      31.732  -3.273 -26.491  0.00  0.00    -0.081 Cl
ATOM     11  C   UNL     1      33.222  -6.385 -24.361  0.00  0.00    +0.059 C 
ATOM     12  C   UNL     1      32.345  -5.407 -24.878  0.00  0.00    +0.081 C 
ATOM     13  C   UNL     1      34.548  -6.399 -24.842  0.00  0.00    +0.015 C 
ATOM     14  C   UNL     1      32.775  -4.486 -25.834  0.00  0.00    +0.069 C 
ATOM     15  C   UNL     1      34.978  -5.477 -25.797  0.00  0.00    +0.002 C 
ATOM     16  C   UNL     1      34.092  -4.521 -26.293  0.00  0.00    +0.012 C 
ENDBRANCH   3  11
ENDBRANCH   1   2
BRANCH   1  17
ATOM     17  C   UNL     1      30.809 -11.355 -21.149  0.00  0.00    -0.019 C 
BRANCH  17  18
ATOM     18  C   UNL     1      31.801 -12.517 -21.114  0.00  0.00    +0.045 C 
BRANCH  18  19
ATOM     19  C   UNL     1      32.247 -12.918 -22.514  0.00  0.00    +0.205 C 
BRANCH  19  20
ATOM     20  O   UNL     1      33.638 -13.232 -22.506  0.00  0.00    -0.475 OA
BRANCH  20  26
ATOM     21  O   UNL     1      35.915 -19.697 -20.641  0.00  0.00    -0.275 OA
ATOM     22  N   UNL     1      35.228 -17.596 -21.265  0.00  0.00    -0.284 N 
ATOM     23  C   UNL     1      34.709 -17.104 -23.589  0.00  0.00    -0.008 C 
ATOM     24  C   UNL     1      35.201 -18.471 -23.970  0.00  0.00    +0.037 C 
ATOM     25  C   UNL     1      34.778 -16.699 -22.249  0.00  0.00    +0.049 C 
ATOM     26  C   UNL     1      33.989 -14.500 -22.859  0.00  0.00    +0.140 C 
ATOM     27  C   UNL     1      34.979 -19.462 -22.837  0.00  0.00    +0.090 C 
ATOM     28  C   UNL     1      34.428 -15.396 -21.884  0.00  0.00    +0.051 C 
ATOM     29  C   UNL     1      34.281 -16.193 -24.560  0.00  0.00    +0.000 C 
ATOM     30  C   UNL     1      33.913 -14.897 -24.193  0.00  0.00    +0.037 C 
ATOM     31  C   UNL     1      35.452 -18.939 -21.494  0.00  0.00    +0.226 C 
ATOM     32  H   UNL     1      35.393 -17.245 -20.359  0.00  0.00    +0.155 HD
ENDBRANCH  20  26
ENDBRANCH  19  20
ENDBRANCH  18  19
ENDBRANCH  17  18
ENDBRANCH   1  17
TORSDOF 7
ENDMDL
MODEL 9
REMARK VINA RESULT:     -10.6      3.110      4.854
REMARK  Name = 60795
REMARK  7 active torsions:
REMARK  status: ('A' for Active; 'I' for Inactive)
REMARK    1  A    between atoms: C_1  and  N_2
REMARK    2  A    between atoms: C_1  and  C_17
REMARK    3  A    between atoms: N_3  and  C_11
REMARK    4  A    between atoms: C_17  and  C_18
REMARK    5  A    between atoms: C_18  and  C_19
REMARK    6  A    between atoms: C_19  and  O_20
REMARK    7  A    between atoms: O_20  and  C_26
REMARK                            x       y       z     vdW  Elec       q    Type
REMARK                         _______ _______ _______ _____ _____    ______ ____
ROOT
ATOM      1  C   UNL     1      33.456 -13.618 -25.724  0.00  0.00    -0.077 C 
ENDROOT
BRANCH   1   2
ATOM      2  N   UNL     1      33.978 -12.260 -25.573  0.00  0.00    +0.389 N 
ATOM      3  N   UNL     1      33.817  -9.424 -25.273  0.00  0.00    -0.311 N 
ATOM      4  C   UNL     1      33.553 -11.417 -26.697  0.00  0.00    -0.055 C 
ATOM      5  C   UNL     1      33.522 -11.671 -24.308  0.00  0.00    -0.055 C 
ATOM      6  C   UNL     1      34.139 -10.009 -26.581  0.00  0.00    +0.068 C 
ATOM      7  C   UNL     1      34.106 -10.270 -24.111  0.00  0.00    +0.068 C 
ATOM      8  H   UNL     1      34.996 -12.310 -25.565  0.00  0.00    -0.080 HD
BRANCH   3  11
ATOM      9 CL   UNL     1      31.369  -8.124 -24.099  0.00  0.00    -0.080 Cl
ATOM     10 CL   UNL     1      31.590  -4.931 -23.859  0.00  0.00    -0.081 Cl
ATOM     11  C   UNL     1      33.864  -8.031 -25.146  0.00  0.00    +0.059 C 
ATOM     12  C   UNL     1      32.795  -7.278 -24.615  0.00  0.00    +0.081 C 
ATOM     13  C   UNL     1      35.018  -7.334 -25.560  0.00  0.00    +0.015 C 
ATOM     14  C   UNL     1      32.877  -5.889 -24.504  0.00  0.00    +0.069 C 
ATOM     15  C   UNL     1      35.100  -5.946 -25.449  0.00  0.00    +0.002 C 
ATOM     16  C   UNL     1      34.030  -5.223 -24.921  0.00  0.00    +0.012 C 
ENDBRANCH   3  11
ENDBRANCH   1   2
BRANCH   1  17
ATOM     17  C   UNL     1      33.663 -14.412 -24.436  0.00  0.00    -0.019 C 
BRANCH  17  18
ATOM     18  C   UNL     1      34.350 -15.749 -24.714  0.00  0.00    +0.045 C 
BRANCH  18  19
ATOM     19  C   UNL     1      34.712 -16.474 -23.425  0.00  0.00    +0.205 C 
BRANCH  19  20
ATOM     20  O   UNL     1      35.219 -17.773 -23.727  0.00  0.00    -0.475 OA
BRANCH  20  26
ATOM     21  O   UNL     1      32.557 -22.415 -19.056  0.00  0.00    -0.275 OA
ATOM     22  N   UNL     1      33.421 -20.877 -20.526  0.00  0.00    -0.284 N 
ATOM     23  C   UNL     1      35.800 -20.370 -20.529  0.00  0.00    -0.008 C 
ATOM     24  C   UNL     1      35.967 -21.230 -19.310  0.00  0.00    +0.037 C 
ATOM     25  C   UNL     1      34.521 -20.192 -21.073  0.00  0.00    +0.049 C 
ATOM     26  C   UNL     1      35.407 -18.623 -22.681  0.00  0.00    +0.140 C 
ATOM     27  C   UNL     1      34.943 -22.355 -19.296  0.00  0.00    +0.090 C 
ATOM     28  C   UNL     1      34.321 -19.312 -22.141  0.00  0.00    +0.051 C 
ATOM     29  C   UNL     1      36.879 -19.664 -21.070  0.00  0.00    +0.000 C 
ATOM     30  C   UNL     1      36.684 -18.800 -22.149  0.00  0.00    +0.037 C 
ATOM     31  C   UNL     1      33.532 -21.874 -19.577  0.00  0.00    +0.226 C 
ATOM     32  H   UNL     1      32.520 -20.631 -20.839  0.00  0.00    +0.155 HD
ENDBRANCH  20  26
ENDBRANCH  19  20
ENDBRANCH  18  19
ENDBRANCH  17  18
ENDBRANCH   1  17
TORSDOF 7
ENDMDL
