MODEL 1
REMARK VINA RESULT:     -11.4      0.000      0.000
REMARK  Name = 24832041
REMARK  6 active torsions:
REMARK  status: ('A' for Active; 'I' for Inactive)
REMARK    1  A    between atoms: C_1  and  C_18
REMARK    2  A    between atoms: C_4  and  C_7
REMARK    3  A    between atoms: C_10  and  C_15
REMARK    4  A    between atoms: C_18  and  N_19
REMARK    5  A    between atoms: C_18  and  C_23
REMARK    6  A    between atoms: C_23  and  C_26
REMARK                            x       y       z     vdW  Elec       q    Type
REMARK                         _______ _______ _______ _____ _____    ______ ____
ROOT
ATOM      1  C   UNL     1      34.335 -19.762 -21.905  0.00  0.00    -0.042 C 
ATOM      2  C   UNL     1      33.125 -20.141 -21.326  0.00  0.00    -0.006 C 
ATOM      3  C   UNL     1      35.540 -20.195 -21.349  0.00  0.00    -0.006 C 
ATOM      4  C   UNL     1      34.322 -21.386 -19.635  0.00  0.00    -0.000 C 
ATOM      5  C   UNL     1      33.117 -20.953 -20.191  0.00  0.00    -0.000 C 
ATOM      6  C   UNL     1      35.533 -21.006 -20.215  0.00  0.00    -0.000 C 
ENDROOT
BRANCH   4   7
ATOM      7  C   UNL     1      34.314 -22.227 -18.460  0.00  0.00    +0.000 C 
ATOM      8  C   UNL     1      35.479 -22.387 -17.709  0.00  0.00    +0.005 C 
ATOM      9  C   UNL     1      33.143 -22.880 -18.077  0.00  0.00    +0.000 C 
ATOM     10  C   UNL     1      35.472 -23.199 -16.574  0.00  0.00    +0.053 C 
ATOM     11  C   UNL     1      33.136 -23.693 -16.943  0.00  0.00    +0.000 C 
ATOM     12  C   UNL     1      34.300 -23.852 -16.192  0.00  0.00    +0.005 C 
BRANCH  10  15
ATOM     13  O   UNL     1      37.368 -22.387 -15.439  0.00  0.00    -0.270 OA
ATOM     14  N   UNL     1      37.049 -24.657 -15.425  0.00  0.00    -0.325 N 
ATOM     15  C   UNL     1      36.684 -23.365 -15.789  0.00  0.00    +0.243 C 
ATOM     16  H   UNL     1      37.865 -24.808 -14.894  0.00  0.00    +0.145 HD
ATOM     17  H   UNL     1      36.492 -25.422 -15.698  0.00  0.00    +0.145 HD
ENDBRANCH  10  15
ENDBRANCH   4   7
BRANCH   1  18
ATOM     18  C   UNL     1      34.344 -18.895 -23.118  0.00  0.00    -0.038 C 
BRANCH  18  19
ATOM     19  N   UNL     1      34.608 -19.669 -24.350  0.00  0.00    +0.384 N 
ATOM     20  H   UNL     1      34.460 -20.662 -24.167  0.00  0.00    -0.089 HD
ATOM     21  H   UNL     1      35.573 -19.518 -24.646  0.00  0.00    -0.089 HD
ATOM     22  H   UNL     1      33.974 -19.363 -25.087  0.00  0.00    -0.089 HD
ENDBRANCH  18  19
BRANCH  18  23
ATOM     23  C   UNL     1      35.366 -17.723 -23.059  0.00  0.00    +0.011 C 
BRANCH  23  26
ATOM     24  F   UNL     1      34.775 -15.820 -21.041  0.00  0.00    -0.205 F 
ATOM     25  F   UNL     1      33.523 -14.457 -26.188  0.00  0.00    -0.204 F 
ATOM     26  C   UNL     1      34.734 -16.380 -23.347  0.00  0.00    +0.006 C 
ATOM     27  C   UNL     1      34.471 -15.493 -22.304  0.00  0.00    +0.136 C 
ATOM     28  C   UNL     1      34.415 -16.031 -24.659  0.00  0.00    +0.028 C 
ATOM     29  C   UNL     1      33.831 -14.793 -24.929  0.00  0.00    +0.140 C 
ATOM     30  C   UNL     1      33.888 -14.254 -22.574  0.00  0.00    +0.032 C 
ATOM     31  C   UNL     1      33.568 -13.904 -23.885  0.00  0.00    +0.032 C 
ENDBRANCH  23  26
ENDBRANCH  18  23
ENDBRANCH   1  18
TORSDOF 6
ENDMDL
MODEL 2
REMARK VINA RESULT:     -11.3      0.972      1.993
REMARK  Name = 24832041
REMARK  6 active torsions:
REMARK  status: ('A' for Active; 'I' for Inactive)
REMARK    1  A    between atoms: C_1  and  C_18
REMARK    2  A    between atoms: C_4  and  C_7
REMARK    3  A    between atoms: C_10  and  C_15
REMARK    4  A    between atoms: C_18  and  N_19
REMARK    5  A    between atoms: C_18  and  C_23
REMARK    6  A    between atoms: C_23  and  C_26
REMARK                            x       y       z     vdW  Elec       q    Type
REMARK                         _______ _______ _______ _____ _____    ______ ____
ROOT
ATOM      1  C   UNL     1      34.655 -19.953 -21.530  0.00  0.00    -0.042 C 
ATOM      2  C   UNL     1      35.875 -20.302 -20.953  0.00  0.00    -0.006 C 
ATOM      3  C   UNL     1      33.462 -20.409 -20.967  0.00  0.00    -0.006 C 
ATOM      4  C   UNL     1      34.713 -21.562 -19.250  0.00  0.00    -0.000 C 
ATOM      5  C   UNL     1      35.905 -21.105 -19.814  0.00  0.00    -0.000 C 
ATOM      6  C   UNL     1      33.491 -21.213 -19.828  0.00  0.00    -0.000 C 
ENDROOT
BRANCH   4   7
ATOM      7  C   UNL     1      34.743 -22.394 -18.069  0.00  0.00    +0.000 C 
ATOM      8  C   UNL     1      35.904 -22.470 -17.299  0.00  0.00    +0.005 C 
ATOM      9  C   UNL     1      33.613 -23.122 -17.699  0.00  0.00    +0.000 C 
ATOM     10  C   UNL     1      35.934 -23.273 -16.159  0.00  0.00    +0.053 C 
ATOM     11  C   UNL     1      33.643 -23.926 -16.559  0.00  0.00    +0.000 C 
ATOM     12  C   UNL     1      34.803 -24.002 -15.789  0.00  0.00    +0.005 C 
BRANCH  10  15
ATOM     13  O   UNL     1      37.267 -22.693 -14.306  0.00  0.00    -0.270 OA
ATOM     14  N   UNL     1      38.155 -24.202 -15.786  0.00  0.00    -0.325 N 
ATOM     15  C   UNL     1      37.143 -23.351 -15.354  0.00  0.00    +0.243 C 
ATOM     16  H   UNL     1      38.988 -24.280 -15.267  0.00  0.00    +0.145 HD
ATOM     17  H   UNL     1      38.039 -24.727 -16.611  0.00  0.00    +0.145 HD
ENDBRANCH  10  15
ENDBRANCH   4   7
BRANCH   1  18
ATOM     18  C   UNL     1      34.623 -19.093 -22.747  0.00  0.00    -0.038 C 
BRANCH  18  19
ATOM     19  N   UNL     1      34.861 -19.871 -23.982  0.00  0.00    +0.384 N 
ATOM     20  H   UNL     1      34.678 -20.859 -23.803  0.00  0.00    -0.089 HD
ATOM     21  H   UNL     1      35.830 -19.752 -24.277  0.00  0.00    -0.089 HD
ATOM     22  H   UNL     1      34.238 -19.540 -24.719  0.00  0.00    -0.089 HD
ENDBRANCH  18  19
BRANCH  18  23
ATOM     23  C   UNL     1      35.635 -17.911 -22.722  0.00  0.00    +0.011 C 
BRANCH  23  26
ATOM     24  F   UNL     1      34.982 -16.923 -25.299  0.00  0.00    -0.205 F 
ATOM     25  F   UNL     1      33.747 -13.737 -21.028  0.00  0.00    -0.204 F 
ATOM     26  C   UNL     1      34.975 -16.570 -22.951  0.00  0.00    +0.006 C 
ATOM     27  C   UNL     1      34.682 -16.148 -24.247  0.00  0.00    +0.136 C 
ATOM     28  C   UNL     1      34.659 -15.757 -21.863  0.00  0.00    +0.028 C 
ATOM     29  C   UNL     1      34.050 -14.519 -22.072  0.00  0.00    +0.140 C 
ATOM     30  C   UNL     1      34.073 -14.910 -24.456  0.00  0.00    +0.032 C 
ATOM     31  C   UNL     1      33.756 -14.096 -23.369  0.00  0.00    +0.032 C 
ENDBRANCH  23  26
ENDBRANCH  18  23
ENDBRANCH   1  18
TORSDOF 6
ENDMDL
MODEL 3
REMARK VINA RESULT:     -11.2      4.444      9.820
REMARK  Name = 24832041
REMARK  6 active torsions:
REMARK  status: ('A' for Active; 'I' for Inactive)
REMARK    1  A    between atoms: C_1  and  C_18
REMARK    2  A    between atoms: C_4  and  C_7
REMARK    3  A    between atoms: C_10  and  C_15
REMARK    4  A    between atoms: C_18  and  N_19
REMARK    5  A    between atoms: C_18  and  C_23
REMARK    6  A    between atoms: C_23  and  C_26
REMARK                            x       y       z     vdW  Elec       q    Type
REMARK                         _______ _______ _______ _____ _____    ______ ____
ROOT
ATOM      1  C   UNL     1      34.988 -16.791 -22.366  0.00  0.00    -0.042 C 
ATOM      2  C   UNL     1      34.599 -15.946 -21.327  0.00  0.00    -0.006 C 
ATOM      3  C   UNL     1      34.923 -16.346 -23.687  0.00  0.00    -0.006 C 
ATOM      4  C   UNL     1      34.079 -14.213 -22.928  0.00  0.00    -0.000 C 
ATOM      5  C   UNL     1      34.144 -14.658 -21.607  0.00  0.00    -0.000 C 
ATOM      6  C   UNL     1      34.468 -15.058 -23.968  0.00  0.00    -0.000 C 
ENDROOT
BRANCH   4   7
ATOM      7  C   UNL     1      33.608 -12.877 -23.219  0.00  0.00    +0.000 C 
ATOM      8  C   UNL     1      32.626 -12.294 -22.418  0.00  0.00    +0.005 C 
ATOM      9  C   UNL     1      34.135 -12.172 -24.300  0.00  0.00    +0.000 C 
ATOM     10  C   UNL     1      32.172 -11.005 -22.698  0.00  0.00    +0.053 C 
ATOM     11  C   UNL     1      33.681 -10.883 -24.581  0.00  0.00    +0.000 C 
ATOM     12  C   UNL     1      32.699 -10.299 -23.780  0.00  0.00    +0.005 C 
BRANCH  10  15
ATOM     13  O   UNL     1      31.107  -9.165 -21.685  0.00  0.00    -0.270 OA
ATOM     14  N   UNL     1      30.206 -11.234 -21.278  0.00  0.00    -0.325 N 
ATOM     15  C   UNL     1      31.150 -10.395 -21.862  0.00  0.00    +0.243 C 
ATOM     16  H   UNL     1      29.499 -10.857 -20.705  0.00  0.00    +0.145 HD
ATOM     17  H   UNL     1      30.243 -12.205 -21.437  0.00  0.00    +0.145 HD
ENDBRANCH  10  15
ENDBRANCH   4   7
BRANCH   1  18
ATOM     18  C   UNL     1      35.475 -18.167 -22.067  0.00  0.00    -0.038 C 
BRANCH  18  19
ATOM     19  N   UNL     1      36.644 -18.534 -22.894  0.00  0.00    +0.384 N 
ATOM     20  H   UNL     1      37.500 -18.227 -22.430  0.00  0.00    -0.089 HD
ATOM     21  H   UNL     1      36.571 -18.081 -23.806  0.00  0.00    -0.089 HD
ATOM     22  H   UNL     1      36.670 -19.546 -23.018  0.00  0.00    -0.089 HD
ENDBRANCH  18  19
BRANCH  18  23
ATOM     23  C   UNL     1      34.398 -19.278 -22.239  0.00  0.00    +0.011 C 
BRANCH  23  26
ATOM     24  F   UNL     1      32.017 -20.348 -21.129  0.00  0.00    -0.205 F 
ATOM     25  F   UNL     1      36.748 -22.017 -18.947  0.00  0.00    -0.204 F 
ATOM     26  C   UNL     1      34.390 -20.267 -21.096  0.00  0.00    +0.006 C 
ATOM     27  C   UNL     1      33.181 -20.753 -20.600  0.00  0.00    +0.136 C 
ATOM     28  C   UNL     1      35.595 -20.694 -20.538  0.00  0.00    +0.028 C 
ATOM     29  C   UNL     1      35.591 -21.607 -19.483  0.00  0.00    +0.140 C 
ATOM     30  C   UNL     1      33.176 -21.666 -19.544  0.00  0.00    +0.032 C 
ATOM     31  C   UNL     1      34.381 -22.093 -18.986  0.00  0.00    +0.032 C 
ENDBRANCH  23  26
ENDBRANCH  18  23
ENDBRANCH   1  18
TORSDOF 6
ENDMDL
MODEL 4
REMARK VINA RESULT:     -11.2      4.604     10.016
REMARK  Name = 24832041
REMARK  6 active torsions:
REMARK  status: ('A' for Active; 'I' for Inactive)
REMARK    1  A    between atoms: C_1  and  C_18
REMARK    2  A    between atoms: C_4  and  C_7
REMARK    3  A    between atoms: C_10  and  C_15
REMARK    4  A    between atoms: C_18  and  N_19
REMARK    5  A    between atoms: C_18  and  C_23
REMARK    6  A    between atoms: C_23  and  C_26
REMARK                            x       y       z     vdW  Elec       q    Type
REMARK                         _______ _______ _______ _____ _____    ______ ____
ROOT
ATOM      1  C   UNL     1      34.992 -16.833 -22.239  0.00  0.00    -0.042 C 
ATOM      2  C   UNL     1      34.883 -16.369 -23.549  0.00  0.00    -0.006 C 
ATOM      3  C   UNL     1      34.602 -16.018 -21.176  0.00  0.00    -0.006 C 
ATOM      4  C   UNL     1      33.995 -14.274 -22.735  0.00  0.00    -0.000 C 
ATOM      5  C   UNL     1      34.385 -15.090 -23.798  0.00  0.00    -0.000 C 
ATOM      6  C   UNL     1      34.104 -14.739 -21.423  0.00  0.00    -0.000 C 
ENDROOT
BRANCH   4   7
ATOM      7  C   UNL     1      33.477 -12.949 -22.992  0.00  0.00    +0.000 C 
ATOM      8  C   UNL     1      34.054 -12.156 -23.985  0.00  0.00    +0.005 C 
ATOM      9  C   UNL     1      32.403 -12.463 -22.249  0.00  0.00    +0.000 C 
ATOM     10  C   UNL     1      33.555 -10.877 -24.234  0.00  0.00    +0.053 C 
ATOM     11  C   UNL     1      31.904 -11.184 -22.497  0.00  0.00    +0.000 C 
ATOM     12  C   UNL     1      32.480 -10.391 -23.489  0.00  0.00    +0.005 C 
BRANCH  10  15
ATOM     13  O   UNL     1      33.454  -9.399 -26.065  0.00  0.00    -0.270 OA
ATOM     14  N   UNL     1      35.543  -9.997 -25.333  0.00  0.00    -0.325 N 
ATOM     15  C   UNL     1      34.154 -10.051 -25.270  0.00  0.00    +0.243 C 
ATOM     16  H   UNL     1      35.984  -9.449 -26.022  0.00  0.00    +0.145 HD
ATOM     17  H   UNL     1      36.086 -10.507 -24.689  0.00  0.00    +0.145 HD
ENDBRANCH  10  15
ENDBRANCH   4   7
BRANCH   1  18
ATOM     18  C   UNL     1      35.523 -18.200 -21.973  0.00  0.00    -0.038 C 
BRANCH  18  19
ATOM     19  N   UNL     1      36.719 -18.499 -22.790  0.00  0.00    +0.384 N 
ATOM     20  H   UNL     1      37.536 -18.573 -22.184  0.00  0.00    -0.089 HD
ATOM     21  H   UNL     1      36.864 -17.749 -23.467  0.00  0.00    -0.089 HD
ATOM     22  H   UNL     1      36.582 -19.380 -23.284  0.00  0.00    -0.089 HD
ENDBRANCH  18  19
BRANCH  18  23
ATOM     23  C   UNL     1      34.491 -19.343 -22.197  0.00  0.00    +0.011 C 
BRANCH  23  26
ATOM     24  F   UNL     1      32.073 -20.361 -21.119  0.00  0.00    -0.205 F 
ATOM     25  F   UNL     1      36.735 -22.105 -18.852  0.00  0.00    -0.204 F 
ATOM     26  C   UNL     1      34.445 -20.325 -21.048  0.00  0.00    +0.006 C 
ATOM     27  C   UNL     1      33.219 -20.784 -20.569  0.00  0.00    +0.136 C 
ATOM     28  C   UNL     1      35.633 -20.771 -20.470  0.00  0.00    +0.028 C 
ATOM     29  C   UNL     1      35.595 -21.677 -19.409  0.00  0.00    +0.140 C 
ATOM     30  C   UNL     1      33.181 -21.690 -19.509  0.00  0.00    +0.032 C 
ATOM     31  C   UNL     1      34.368 -22.137 -18.929  0.00  0.00    +0.032 C 
ENDBRANCH  23  26
ENDBRANCH  18  23
ENDBRANCH   1  18
TORSDOF 6
ENDMDL
MODEL 5
REMARK VINA RESULT:     -11.1      4.340      9.499
REMARK  Name = 24832041
REMARK  6 active torsions:
REMARK  status: ('A' for Active; 'I' for Inactive)
REMARK    1  A    between atoms: C_1  and  C_18
REMARK    2  A    between atoms: C_4  and  C_7
REMARK    3  A    between atoms: C_10  and  C_15
REMARK    4  A    between atoms: C_18  and  N_19
REMARK    5  A    between atoms: C_18  and  C_23
REMARK    6  A    between atoms: C_23  and  C_26
REMARK                            x       y       z     vdW  Elec       q    Type
REMARK                         _______ _______ _______ _____ _____    ______ ____
ROOT
ATOM      1  C   UNL     1      33.963 -22.450 -18.666  0.00  0.00    -0.042 C 
ATOM      2  C   UNL     1      32.949 -21.813 -19.381  0.00  0.00    -0.006 C 
ATOM      3  C   UNL     1      35.299 -22.151 -18.934  0.00  0.00    -0.006 C 
ATOM      4  C   UNL     1      34.606 -20.578 -20.633  0.00  0.00    -0.000 C 
ATOM      5  C   UNL     1      33.270 -20.877 -20.364  0.00  0.00    -0.000 C 
ATOM      6  C   UNL     1      35.621 -21.216 -19.917  0.00  0.00    -0.000 C 
ENDROOT
BRANCH   4   7
ATOM      7  C   UNL     1      34.939 -19.607 -21.651  0.00  0.00    +0.000 C 
ATOM      8  C   UNL     1      34.075 -19.401 -22.727  0.00  0.00    +0.005 C 
ATOM      9  C   UNL     1      36.124 -18.877 -21.559  0.00  0.00    +0.000 C 
ATOM     10  C   UNL     1      34.396 -18.464 -23.710  0.00  0.00    +0.053 C 
ATOM     11  C   UNL     1      36.445 -17.941 -22.542  0.00  0.00    +0.000 C 
ATOM     12  C   UNL     1      35.581 -17.734 -23.617  0.00  0.00    +0.005 C 
BRANCH  10  15
ATOM     13  O   UNL     1      33.524 -17.193 -25.491  0.00  0.00    -0.270 OA
ATOM     14  N   UNL     1      32.605 -19.266 -25.153  0.00  0.00    -0.325 N 
ATOM     15  C   UNL     1      33.495 -18.246 -24.830  0.00  0.00    +0.243 C 
ATOM     16  H   UNL     1      31.979 -19.155 -25.905  0.00  0.00    +0.145 HD
ATOM     17  H   UNL     1      32.601 -20.101 -24.630  0.00  0.00    +0.145 HD
ENDBRANCH  10  15
ENDBRANCH   4   7
BRANCH   1  18
ATOM     18  C   UNL     1      33.620 -23.450 -17.615  0.00  0.00    -0.038 C 
BRANCH  18  19
ATOM     19  N   UNL     1      32.164 -23.695 -17.536  0.00  0.00    +0.384 N 
ATOM     20  H   UNL     1      31.971 -24.673 -17.751  0.00  0.00    -0.089 HD
ATOM     21  H   UNL     1      31.682 -23.097 -18.208  0.00  0.00    -0.089 HD
ATOM     22  H   UNL     1      31.834 -23.483 -16.595  0.00  0.00    -0.089 HD
ENDBRANCH  18  19
BRANCH  18  23
ATOM     23  C   UNL     1      34.123 -23.077 -16.190  0.00  0.00    +0.011 C 
BRANCH  23  26
ATOM     24  F   UNL     1      36.693 -21.918 -15.880  0.00  0.00    -0.205 F 
ATOM     25  F   UNL     1      36.247 -27.280 -14.896  0.00  0.00    -0.204 F 
ATOM     26  C   UNL     1      35.342 -23.868 -15.773  0.00  0.00    +0.006 C 
ATOM     27  C   UNL     1      36.576 -23.232 -15.640  0.00  0.00    +0.136 C 
ATOM     28  C   UNL     1      35.230 -25.235 -15.521  0.00  0.00    +0.028 C 
ATOM     29  C   UNL     1      36.353 -25.968 -15.137  0.00  0.00    +0.140 C 
ATOM     30  C   UNL     1      37.699 -23.965 -15.256  0.00  0.00    +0.032 C 
ATOM     31  C   UNL     1      37.588 -25.332 -15.004  0.00  0.00    +0.032 C 
ENDBRANCH  23  26
ENDBRANCH  18  23
ENDBRANCH   1  18
TORSDOF 6
ENDMDL
MODEL 6
REMARK VINA RESULT:     -11.1      2.149      2.743
REMARK  Name = 24832041
REMARK  6 active torsions:
REMARK  status: ('A' for Active; 'I' for Inactive)
REMARK    1  A    between atoms: C_1  and  C_18
REMARK    2  A    between atoms: C_4  and  C_7
REMARK    3  A    between atoms: C_10  and  C_15
REMARK    4  A    between atoms: C_18  and  N_19
REMARK    5  A    between atoms: C_18  and  C_23
REMARK    6  A    between atoms: C_23  and  C_26
REMARK                            x       y       z     vdW  Elec       q    Type
REMARK                         _______ _______ _______ _____ _____    ______ ____
ROOT
ATOM      1  C   UNL     1      34.211 -19.904 -21.764  0.00  0.00    -0.042 C 
ATOM      2  C   UNL     1      35.311 -20.451 -21.106  0.00  0.00    -0.006 C 
ATOM      3  C   UNL     1      32.922 -20.149 -21.290  0.00  0.00    -0.006 C 
ATOM      4  C   UNL     1      33.836 -21.488 -19.497  0.00  0.00    -0.000 C 
ATOM      5  C   UNL     1      35.125 -21.243 -19.972  0.00  0.00    -0.000 C 
ATOM      6  C   UNL     1      32.734 -20.940 -20.157  0.00  0.00    -0.000 C 
ENDROOT
BRANCH   4   7
ATOM      7  C   UNL     1      33.642 -22.308 -18.322  0.00  0.00    +0.000 C 
ATOM      8  C   UNL     1      32.351 -22.614 -17.891  0.00  0.00    +0.005 C 
ATOM      9  C   UNL     1      34.745 -22.792 -17.620  0.00  0.00    +0.000 C 
ATOM     10  C   UNL     1      32.163 -23.405 -16.757  0.00  0.00    +0.053 C 
ATOM     11  C   UNL     1      34.558 -23.583 -16.486  0.00  0.00    +0.000 C 
ATOM     12  C   UNL     1      33.267 -23.889 -16.054  0.00  0.00    +0.005 C 
BRANCH  10  15
ATOM     13  O   UNL     1      30.614 -24.601 -15.446  0.00  0.00    -0.270 OA
ATOM     14  N   UNL     1      29.762 -23.012 -16.862  0.00  0.00    -0.325 N 
ATOM     15  C   UNL     1      30.818 -23.727 -16.308  0.00  0.00    +0.243 C 
ATOM     16  H   UNL     1      28.837 -23.203 -16.584  0.00  0.00    +0.145 HD
ATOM     17  H   UNL     1      29.938 -22.314 -17.534  0.00  0.00    +0.145 HD
ENDBRANCH  10  15
ENDBRANCH   4   7
BRANCH   1  18
ATOM     18  C   UNL     1      34.410 -19.057 -22.975  0.00  0.00    -0.038 C 
BRANCH  18  19
ATOM     19  N   UNL     1      34.875 -19.849 -24.135  0.00  0.00    +0.384 N 
ATOM     20  H   UNL     1      35.202 -20.761 -23.816  0.00  0.00    -0.089 HD
ATOM     21  H   UNL     1      35.639 -19.356 -24.598  0.00  0.00    -0.089 HD
ATOM     22  H   UNL     1      34.105 -19.976 -24.791  0.00  0.00    -0.089 HD
ENDBRANCH  18  19
BRANCH  18  23
ATOM     23  C   UNL     1      35.402 -17.875 -22.772  0.00  0.00    +0.011 C 
BRANCH  23  26
ATOM     24  F   UNL     1      34.762 -15.894 -20.846  0.00  0.00    -0.205 F 
ATOM     25  F   UNL     1      33.718 -14.703 -26.082  0.00  0.00    -0.204 F 
ATOM     26  C   UNL     1      34.798 -16.537 -23.131  0.00  0.00    +0.006 C 
ATOM     27  C   UNL     1      34.509 -15.609 -22.131  0.00  0.00    +0.136 C 
ATOM     28  C   UNL     1      34.532 -16.231 -24.466  0.00  0.00    +0.028 C 
ATOM     29  C   UNL     1      33.975 -14.997 -24.801  0.00  0.00    +0.140 C 
ATOM     30  C   UNL     1      33.952 -14.374 -22.466  0.00  0.00    +0.032 C 
ATOM     31  C   UNL     1      33.685 -14.068 -23.800  0.00  0.00    +0.032 C 
ENDBRANCH  23  26
ENDBRANCH  18  23
ENDBRANCH   1  18
TORSDOF 6
ENDMDL
MODEL 7
REMARK VINA RESULT:     -10.9      5.052      7.986
REMARK  Name = 24832041
REMARK  6 active torsions:
REMARK  status: ('A' for Active; 'I' for Inactive)
REMARK    1  A    between atoms: C_1  and  C_18
REMARK    2  A    between atoms: C_4  and  C_7
REMARK    3  A    between atoms: C_10  and  C_15
REMARK    4  A    between atoms: C_18  and  N_19
REMARK    5  A    between atoms: C_18  and  C_23
REMARK    6  A    between atoms: C_23  and  C_26
REMARK                            x       y       z     vdW  Elec       q    Type
REMARK                         _______ _______ _______ _____ _____    ______ ____
ROOT
ATOM      1  C   UNL     1      33.680 -12.583 -24.917  0.00  0.00    -0.042 C 
ATOM      2  C   UNL     1      33.440 -13.536 -25.906  0.00  0.00    -0.006 C 
ATOM      3  C   UNL     1      34.159 -12.979 -23.669  0.00  0.00    -0.006 C 
ATOM      4  C   UNL     1      34.157 -15.283 -24.398  0.00  0.00    -0.000 C 
ATOM      5  C   UNL     1      33.678 -14.886 -25.647  0.00  0.00    -0.000 C 
ATOM      6  C   UNL     1      34.398 -14.328 -23.409  0.00  0.00    -0.000 C 
ENDROOT
BRANCH   4   7
ATOM      7  C   UNL     1      34.405 -16.682 -24.130  0.00  0.00    +0.000 C 
ATOM      8  C   UNL     1      35.320 -17.051 -23.144  0.00  0.00    +0.005 C 
ATOM      9  C   UNL     1      33.730 -17.661 -24.857  0.00  0.00    +0.000 C 
ATOM     10  C   UNL     1      35.560 -18.401 -22.885  0.00  0.00    +0.053 C 
ATOM     11  C   UNL     1      33.970 -19.011 -24.598  0.00  0.00    +0.000 C 
ATOM     12  C   UNL     1      34.884 -19.381 -23.613  0.00  0.00    +0.005 C 
BRANCH  10  15
ATOM     13  O   UNL     1      36.135 -19.241 -20.761  0.00  0.00    -0.270 OA
ATOM     14  N   UNL     1      37.867 -18.651 -22.143  0.00  0.00    -0.325 N 
ATOM     15  C   UNL     1      36.512 -18.788 -21.856  0.00  0.00    +0.243 C 
ATOM     16  H   UNL     1      38.541 -18.902 -21.470  0.00  0.00    +0.145 HD
ATOM     17  H   UNL     1      38.152 -18.303 -23.019  0.00  0.00    +0.145 HD
ENDBRANCH  10  15
ENDBRANCH   4   7
BRANCH   1  18
ATOM     18  C   UNL     1      33.426 -11.140 -25.194  0.00  0.00    -0.038 C 
BRANCH  18  19
ATOM     19  N   UNL     1      33.492 -10.832 -26.639  0.00  0.00    +0.384 N 
ATOM     20  H   UNL     1      34.078 -10.010 -26.785  0.00  0.00    -0.089 HD
ATOM     21  H   UNL     1      32.552 -10.646 -26.990  0.00  0.00    -0.089 HD
ATOM     22  H   UNL     1      33.891 -11.627 -27.138  0.00  0.00    -0.089 HD
ENDBRANCH  18  19
BRANCH  18  23
ATOM     23  C   UNL     1      34.389 -10.168 -24.451  0.00  0.00    +0.011 C 
BRANCH  23  26
ATOM     24  F   UNL     1      35.782  -7.755 -23.923  0.00  0.00    -0.205 F 
ATOM     25  F   UNL     1      30.357  -7.696 -23.231  0.00  0.00    -0.204 F 
ATOM     26  C   UNL     1      33.704  -8.899 -23.997  0.00  0.00    +0.006 C 
ATOM     27  C   UNL     1      34.452  -7.748 -23.756  0.00  0.00    +0.136 C 
ATOM     28  C   UNL     1      32.320  -8.883 -23.821  0.00  0.00    +0.028 C 
ATOM     29  C   UNL     1      31.685  -7.713 -23.402  0.00  0.00    +0.140 C 
ATOM     30  C   UNL     1      33.817  -6.579 -23.336  0.00  0.00    +0.032 C 
ATOM     31  C   UNL     1      32.434  -6.561 -23.160  0.00  0.00    +0.032 C 
ENDBRANCH  23  26
ENDBRANCH  18  23
ENDBRANCH   1  18
TORSDOF 6
ENDMDL
MODEL 8
REMARK VINA RESULT:     -10.8      4.655      9.676
REMARK  Name = 24832041
REMARK  6 active torsions:
REMARK  status: ('A' for Active; 'I' for Inactive)
REMARK    1  A    between atoms: C_1  and  C_18
REMARK    2  A    between atoms: C_4  and  C_7
REMARK    3  A    between atoms: C_10  and  C_15
REMARK    4  A    between atoms: C_18  and  N_19
REMARK    5  A    between atoms: C_18  and  C_23
REMARK    6  A    between atoms: C_23  and  C_26
REMARK                            x       y       z     vdW  Elec       q    Type
REMARK                         _______ _______ _______ _____ _____    ______ ____
ROOT
ATOM      1  C   UNL     1      33.528 -22.273 -18.848  0.00  0.00    -0.042 C 
ATOM      2  C   UNL     1      32.593 -21.505 -19.541  0.00  0.00    -0.006 C 
ATOM      3  C   UNL     1      34.889 -22.122 -19.113  0.00  0.00    -0.006 C 
ATOM      4  C   UNL     1      34.380 -20.435 -20.766  0.00  0.00    -0.000 C 
ATOM      5  C   UNL     1      33.019 -20.586 -20.500  0.00  0.00    -0.000 C 
ATOM      6  C   UNL     1      35.315 -21.204 -20.072  0.00  0.00    -0.000 C 
ENDROOT
BRANCH   4   7
ATOM      7  C   UNL     1      34.821 -19.482 -21.760  0.00  0.00    +0.000 C 
ATOM      8  C   UNL     1      33.998 -19.172 -22.843  0.00  0.00    +0.005 C 
ATOM      9  C   UNL     1      36.069 -18.872 -21.636  0.00  0.00    +0.000 C 
ATOM     10  C   UNL     1      34.423 -18.252 -23.802  0.00  0.00    +0.053 C 
ATOM     11  C   UNL     1      36.495 -17.953 -22.595  0.00  0.00    +0.000 C 
ATOM     12  C   UNL     1      35.672 -17.643 -23.678  0.00  0.00    +0.005 C 
BRANCH  10  15
ATOM     13  O   UNL     1      33.764 -16.915 -25.625  0.00  0.00    -0.270 OA
ATOM     14  N   UNL     1      32.519 -18.798 -25.220  0.00  0.00    -0.325 N 
ATOM     15  C   UNL     1      33.565 -17.927 -24.930  0.00  0.00    +0.243 C 
ATOM     16  H   UNL     1      31.917 -18.610 -25.976  0.00  0.00    +0.145 HD
ATOM     17  H   UNL     1      32.381 -19.602 -24.670  0.00  0.00    +0.145 HD
ENDBRANCH  10  15
ENDBRANCH   4   7
BRANCH   1  18
ATOM     18  C   UNL     1      33.074 -23.255 -17.822  0.00  0.00    -0.038 C 
BRANCH  18  19
ATOM     19  N   UNL     1      33.041 -24.635 -18.351  0.00  0.00    +0.384 N 
ATOM     20  H   UNL     1      32.073 -24.952 -18.417  0.00  0.00    -0.089 HD
ATOM     21  H   UNL     1      33.559 -25.252 -17.725  0.00  0.00    -0.089 HD
ATOM     22  H   UNL     1      33.468 -24.655 -19.277  0.00  0.00    -0.089 HD
ENDBRANCH  18  19
BRANCH  18  23
ATOM     23  C   UNL     1      31.677 -22.942 -17.211  0.00  0.00    +0.011 C 
BRANCH  23  26
ATOM     24  F   UNL     1      33.422 -23.091 -14.981  0.00  0.00    -0.205 F 
ATOM     25  F   UNL     1      28.779 -25.970 -14.703  0.00  0.00    -0.204 F 
ATOM     26  C   UNL     1      31.377 -23.767 -15.980  0.00  0.00    +0.006 C 
ATOM     27  C   UNL     1      32.282 -23.794 -14.920  0.00  0.00    +0.136 C 
ATOM     28  C   UNL     1      30.194 -24.501 -15.908  0.00  0.00    +0.028 C 
ATOM     29  C   UNL     1      29.915 -25.264 -14.774  0.00  0.00    +0.140 C 
ATOM     30  C   UNL     1      32.003 -24.557 -13.785  0.00  0.00    +0.032 C 
ATOM     31  C   UNL     1      30.820 -25.291 -13.711  0.00  0.00    +0.032 C 
ENDBRANCH  23  26
ENDBRANCH  18  23
ENDBRANCH   1  18
TORSDOF 6
ENDMDL
MODEL 9
REMARK VINA RESULT:     -10.8      4.881      8.135
REMARK  Name = 24832041
REMARK  6 active torsions:
REMARK  status: ('A' for Active; 'I' for Inactive)
REMARK    1  A    between atoms: C_1  and  C_18
REMARK    2  A    between atoms: C_4  and  C_7
REMARK    3  A    between atoms: C_10  and  C_15
REMARK    4  A    between atoms: C_18  and  N_19
REMARK    5  A    between atoms: C_18  and  C_23
REMARK    6  A    between atoms: C_23  and  C_26
REMARK                            x       y       z     vdW  Elec       q    Type
REMARK                         _______ _______ _______ _____ _____    ______ ____
ROOT
ATOM      1  C   UNL     1      33.719 -12.383 -24.888  0.00  0.00    -0.042 C 
ATOM      2  C   UNL     1      34.185 -12.816 -23.647  0.00  0.00    -0.006 C 
ATOM      3  C   UNL     1      33.457 -13.310 -25.897  0.00  0.00    -0.006 C 
ATOM      4  C   UNL     1      34.129 -15.104 -24.423  0.00  0.00    -0.000 C 
ATOM      5  C   UNL     1      34.390 -14.176 -23.414  0.00  0.00    -0.000 C 
ATOM      6  C   UNL     1      33.663 -14.670 -25.665  0.00  0.00    -0.000 C 
ENDROOT
BRANCH   4   7
ATOM      7  C   UNL     1      34.340 -16.513 -24.181  0.00  0.00    +0.000 C 
ATOM      8  C   UNL     1      35.221 -16.925 -23.179  0.00  0.00    +0.005 C 
ATOM      9  C   UNL     1      33.665 -17.462 -24.949  0.00  0.00    +0.000 C 
ATOM     10  C   UNL     1      35.425 -18.285 -22.946  0.00  0.00    +0.053 C 
ATOM     11  C   UNL     1      33.870 -18.822 -24.715  0.00  0.00    +0.000 C 
ATOM     12  C   UNL     1      34.750 -19.234 -23.714  0.00  0.00    +0.005 C 
BRANCH  10  15
ATOM     13  O   UNL     1      35.925 -19.212 -20.840  0.00  0.00    -0.270 OA
ATOM     14  N   UNL     1      37.705 -18.568 -22.135  0.00  0.00    -0.325 N 
ATOM     15  C   UNL     1      36.341 -18.715 -21.901  0.00  0.00    +0.243 C 
ATOM     16  H   UNL     1      38.355 -18.847 -21.450  0.00  0.00    +0.145 HD
ATOM     17  H   UNL     1      38.021 -18.185 -22.985  0.00  0.00    +0.145 HD
ENDBRANCH  10  15
ENDBRANCH   4   7
BRANCH   1  18
ATOM     18  C   UNL     1      33.499 -10.930 -25.137  0.00  0.00    -0.038 C 
BRANCH  18  19
ATOM     19  N   UNL     1      33.374 -10.627 -26.579  0.00  0.00    +0.384 N 
ATOM     20  H   UNL     1      32.402 -10.737 -26.868  0.00  0.00    -0.089 HD
ATOM     21  H   UNL     1      33.962 -11.268 -27.113  0.00  0.00    -0.089 HD
ATOM     22  H   UNL     1      33.673  -9.668 -26.753  0.00  0.00    -0.089 HD
ENDBRANCH  18  19
BRANCH  18  23
ATOM     23  C   UNL     1      34.602 -10.005 -24.546  0.00  0.00    +0.011 C 
BRANCH  23  26
ATOM     24  F   UNL     1      32.609  -9.753 -22.544  0.00  0.00    -0.205 F 
ATOM     25  F   UNL     1      34.514  -5.126 -24.754  0.00  0.00    -0.204 F 
ATOM     26  C   UNL     1      34.062  -8.672 -24.080  0.00  0.00    +0.006 C 
ATOM     27  C   UNL     1      33.081  -8.623 -23.090  0.00  0.00    +0.136 C 
ATOM     28  C   UNL     1      34.547  -7.492 -24.642  0.00  0.00    +0.028 C 
ATOM     29  C   UNL     1      34.050  -6.260 -24.214  0.00  0.00    +0.140 C 
ATOM     30  C   UNL     1      32.584  -7.391 -22.662  0.00  0.00    +0.032 C 
ATOM     31  C   UNL     1      33.068  -6.210 -23.223  0.00  0.00    +0.032 C 
ENDBRANCH  23  26
ENDBRANCH  18  23
ENDBRANCH   1  18
TORSDOF 6
ENDMDL
