MODEL 1
REMARK VINA RESULT:     -11.9      0.000      0.000
REMARK  Name = 52920501
REMARK  9 active torsions:
REMARK  status: ('A' for Active; 'I' for Inactive)
REMARK    1  A    between atoms: N_1  and  C_12
REMARK    2  A    between atoms: C_5  and  O_27
REMARK    3  A    between atoms: C_9  and  C_15
REMARK    4  A    between atoms: C_15  and  S_16
REMARK    5  A    between atoms: S_16  and  N_19
REMARK    6  A    between atoms: N_19  and  C_21
REMARK    7  A    between atoms: C_21  and  C_22
REMARK    8  A    between atoms: C_22  and  N_23
REMARK    9  A    between atoms: O_27  and  C_35
REMARK                            x       y       z     vdW  Elec       q    Type
REMARK                         _______ _______ _______ _____ _____    ______ ____
ROOT
ATOM      1  N   UNL     1      32.246 -22.560 -18.618  0.00  0.00    -0.247 N 
ATOM      2  N   UNL     1      32.908 -22.918 -16.396  0.00  0.00    -0.300 NA
ATOM      3  N   UNL     1      30.687 -23.493 -17.133  0.00  0.00    -0.170 NA
ATOM      4  C   UNL     1      31.932 -23.013 -17.318  0.00  0.00    +0.152 C 
ATOM      5  C   UNL     1      32.574 -23.358 -15.165  0.00  0.00    +0.295 C 
ATOM      6  C   UNL     1      31.334 -23.872 -14.845  0.00  0.00    +0.094 C 
ATOM      7  C   UNL     1      30.421 -23.915 -15.879  0.00  0.00    +0.118 C 
ATOM      8  H   UNL     1      31.503 -22.649 -19.259  0.00  0.00    +0.165 HD
ENDROOT
BRANCH   1  12
ATOM      9  C   UNL     1      34.478 -20.540 -20.774  0.00  0.00    +0.004 C 
ATOM     10  C   UNL     1      33.320 -21.086 -20.220  0.00  0.00    +0.013 C 
ATOM     11  C   UNL     1      35.729 -20.918 -20.286  0.00  0.00    -0.002 C 
ATOM     12  C   UNL     1      33.413 -22.009 -19.178  0.00  0.00    +0.057 C 
ATOM     13  C   UNL     1      35.823 -21.840 -19.244  0.00  0.00    +0.001 C 
ATOM     14  C   UNL     1      34.665 -22.386 -18.690  0.00  0.00    +0.015 C 
BRANCH   9  15
ATOM     15  C   UNL     1      34.378 -19.553 -21.887  0.00  0.00    +0.195 C 
BRANCH  15  16
ATOM     16  S   UNL     1      35.600 -18.309 -21.620  0.00  0.00    +0.045 S 
ATOM     17  O   UNL     1      34.988 -17.213 -20.885  0.00  0.00    -0.157 OA
ATOM     18  O   UNL     1      36.795 -18.958 -21.105  0.00  0.00    -0.157 OA
BRANCH  16  19
ATOM     19  N   UNL     1      35.916 -17.811 -23.226  0.00  0.00    -0.185 NA
ATOM     20  H   UNL     1      36.468 -18.549 -23.664  0.00  0.00    +0.148 HD
BRANCH  19  21
ATOM     21  C   UNL     1      34.781 -17.531 -24.123  0.00  0.00    +0.068 C 
BRANCH  21  22
ATOM     22  C   UNL     1      34.915 -16.120 -24.678  0.00  0.00    -0.058 C 
BRANCH  22  23
ATOM     23  N   UNL     1      33.821 -15.283 -24.202  0.00  0.00    +0.385 N 
ATOM     24  C   UNL     1      34.237 -14.508 -23.031  0.00  0.00    -0.101 C 
ATOM     25  C   UNL     1      33.355 -14.389 -25.263  0.00  0.00    -0.101 C 
ATOM     26  H   UNL     1      33.050 -15.893 -23.929  0.00  0.00    -0.080 HD
ENDBRANCH  22  23
ENDBRANCH  21  22
ENDBRANCH  19  21
ENDBRANCH  16  19
ENDBRANCH  15  16
ENDBRANCH   9  15
ENDBRANCH   1  12
BRANCH   5  27
ATOM     27  O   UNL     1      33.545 -23.281 -14.182  0.00  0.00    -0.427 OA
BRANCH  27  35
ATOM     28  N   UNL     1      38.734 -24.422 -15.538  0.00  0.00    -0.316 N 
ATOM     29  C   UNL     1      36.821 -24.899 -14.493  0.00  0.00    +0.017 C 
ATOM     30  C   UNL     1      37.456 -23.963 -15.312  0.00  0.00    +0.048 C 
ATOM     31  C   UNL     1      38.930 -25.613 -14.893  0.00  0.00    +0.026 C 
ATOM     32  C   UNL     1      37.763 -25.935 -14.237  0.00  0.00    +0.012 C 
ATOM     33  C   UNL     1      35.487 -24.669 -14.106  0.00  0.00    +0.039 C 
ATOM     34  C   UNL     1      36.820 -22.802 -15.764  0.00  0.00    +0.018 C 
ATOM     35  C   UNL     1      34.837 -23.512 -14.552  0.00  0.00    +0.148 C 
ATOM     36  C   UNL     1      35.495 -22.594 -15.368  0.00  0.00    +0.039 C 
ATOM     37  C   UNL     1      40.219 -26.324 -14.969  0.00  0.00    +0.047 C 
ATOM     38  H   UNL     1      39.410 -23.960 -16.085  0.00  0.00    +0.152 HD
ENDBRANCH  27  35
ENDBRANCH   5  27
TORSDOF 9
ENDMDL
MODEL 2
REMARK VINA RESULT:     -11.7      2.674      9.998
REMARK  Name = 52920501
REMARK  9 active torsions:
REMARK  status: ('A' for Active; 'I' for Inactive)
REMARK    1  A    between atoms: N_1  and  C_12
REMARK    2  A    between atoms: C_5  and  O_27
REMARK    3  A    between atoms: C_9  and  C_15
REMARK    4  A    between atoms: C_15  and  S_16
REMARK    5  A    between atoms: S_16  and  N_19
REMARK    6  A    between atoms: N_19  and  C_21
REMARK    7  A    between atoms: C_21  and  C_22
REMARK    8  A    between atoms: C_22  and  N_23
REMARK    9  A    between atoms: O_27  and  C_35
REMARK                            x       y       z     vdW  Elec       q    Type
REMARK                         _______ _______ _______ _____ _____    ______ ____
ROOT
ATOM      1  N   UNL     1      34.087 -22.778 -17.762  0.00  0.00    -0.247 N 
ATOM      2  N   UNL     1      34.908 -21.254 -19.347  0.00  0.00    -0.300 NA
ATOM      3  N   UNL     1      32.602 -21.955 -19.382  0.00  0.00    -0.170 NA
ATOM      4  C   UNL     1      33.854 -21.955 -18.886  0.00  0.00    +0.152 C 
ATOM      5  C   UNL     1      34.650 -20.480 -20.421  0.00  0.00    +0.295 C 
ATOM      6  C   UNL     1      33.411 -20.391 -21.023  0.00  0.00    +0.094 C 
ATOM      7  C   UNL     1      32.415 -21.159 -20.455  0.00  0.00    +0.118 C 
ATOM      8  H   UNL     1      33.290 -23.270 -17.460  0.00  0.00    +0.165 HD
ENDROOT
BRANCH   1  12
ATOM      9  C   UNL     1      36.360 -24.289 -15.261  0.00  0.00    +0.004 C 
ATOM     10  C   UNL     1      35.221 -24.039 -16.027  0.00  0.00    +0.013 C 
ATOM     11  C   UNL     1      37.513 -23.529 -15.458  0.00  0.00    -0.002 C 
ATOM     12  C   UNL     1      35.235 -23.030 -16.989  0.00  0.00    +0.057 C 
ATOM     13  C   UNL     1      37.528 -22.519 -16.421  0.00  0.00    +0.001 C 
ATOM     14  C   UNL     1      36.388 -22.270 -17.186  0.00  0.00    +0.015 C 
BRANCH   9  15
ATOM     15  C   UNL     1      36.345 -25.368 -14.232  0.00  0.00    +0.195 C 
BRANCH  15  16
ATOM     16  S   UNL     1      35.819 -24.656 -12.707  0.00  0.00    +0.045 S 
ATOM     17  O   UNL     1      36.504 -25.336 -11.620  0.00  0.00    -0.157 OA
ATOM     18  O   UNL     1      35.906 -23.210 -12.834  0.00  0.00    -0.157 OA
BRANCH  16  19
ATOM     19  N   UNL     1      34.164 -25.089 -12.696  0.00  0.00    -0.185 NA
ATOM     20  H   UNL     1      33.871 -25.127 -11.720  0.00  0.00    +0.148 HD
BRANCH  19  21
ATOM     21  C   UNL     1      33.197 -24.231 -13.404  0.00  0.00    +0.068 C 
BRANCH  21  22
ATOM     22  C   UNL     1      32.058 -25.090 -13.935  0.00  0.00    -0.058 C 
BRANCH  22  23
ATOM     23  N   UNL     1      30.939 -24.250 -14.343  0.00  0.00    +0.385 N 
ATOM     24  C   UNL     1      31.387 -23.207 -15.268  0.00  0.00    -0.101 C 
ATOM     25  C   UNL     1      29.886 -25.058 -14.961  0.00  0.00    -0.101 C 
ATOM     26  H   UNL     1      30.557 -23.803 -13.509  0.00  0.00    -0.080 HD
ENDBRANCH  22  23
ENDBRANCH  21  22
ENDBRANCH  19  21
ENDBRANCH  16  19
ENDBRANCH  15  16
ENDBRANCH   9  15
ENDBRANCH   1  12
BRANCH   5  27
ATOM     27  O   UNL     1      35.702 -19.739 -20.932  0.00  0.00    -0.427 OA
BRANCH  27  35
ATOM     28  N   UNL     1      34.477 -15.525 -24.218  0.00  0.00    -0.316 N 
ATOM     29  C   UNL     1      34.842 -16.408 -22.202  0.00  0.00    +0.017 C 
ATOM     30  C   UNL     1      34.796 -16.695 -23.568  0.00  0.00    +0.048 C 
ATOM     31  C   UNL     1      34.320 -14.509 -23.314  0.00  0.00    +0.026 C 
ATOM     32  C   UNL     1      34.539 -15.025 -22.056  0.00  0.00    +0.012 C 
ATOM     33  C   UNL     1      35.151 -17.445 -21.301  0.00  0.00    +0.039 C 
ATOM     34  C   UNL     1      35.045 -17.974 -24.079  0.00  0.00    +0.018 C 
ATOM     35  C   UNL     1      35.402 -18.729 -21.798  0.00  0.00    +0.148 C 
ATOM     36  C   UNL     1      35.349 -18.987 -23.166  0.00  0.00    +0.039 C 
ATOM     37  C   UNL     1      33.974 -13.144 -23.747  0.00  0.00    +0.047 C 
ATOM     38  H   UNL     1      34.377 -15.430 -25.193  0.00  0.00    +0.152 HD
ENDBRANCH  27  35
ENDBRANCH   5  27
TORSDOF 9
ENDMDL
MODEL 3
REMARK VINA RESULT:     -11.2      1.519      4.886
REMARK  Name = 52920501
REMARK  9 active torsions:
REMARK  status: ('A' for Active; 'I' for Inactive)
REMARK    1  A    between atoms: N_1  and  C_12
REMARK    2  A    between atoms: C_5  and  O_27
REMARK    3  A    between atoms: C_9  and  C_15
REMARK    4  A    between atoms: C_15  and  S_16
REMARK    5  A    between atoms: S_16  and  N_19
REMARK    6  A    between atoms: N_19  and  C_21
REMARK    7  A    between atoms: C_21  and  C_22
REMARK    8  A    between atoms: C_22  and  N_23
REMARK    9  A    between atoms: O_27  and  C_35
REMARK                            x       y       z     vdW  Elec       q    Type
REMARK                         _______ _______ _______ _____ _____    ______ ____
ROOT
ATOM      1  N   UNL     1      36.476 -21.968 -17.777  0.00  0.00    -0.247 N 
ATOM      2  N   UNL     1      35.380 -23.558 -16.444  0.00  0.00    -0.300 NA
ATOM      3  N   UNL     1      37.628 -22.854 -15.934  0.00  0.00    -0.170 NA
ATOM      4  C   UNL     1      36.495 -22.836 -16.663  0.00  0.00    +0.152 C 
ATOM      5  C   UNL     1      35.434 -24.377 -15.373  0.00  0.00    +0.295 C 
ATOM      6  C   UNL     1      36.533 -24.488 -14.546  0.00  0.00    +0.094 C 
ATOM      7  C   UNL     1      37.612 -23.695 -14.879  0.00  0.00    +0.118 C 
ATOM      8  H   UNL     1      37.311 -21.461 -17.898  0.00  0.00    +0.165 HD
ENDROOT
BRANCH   1  12
ATOM      9  C   UNL     1      34.880 -20.764 -20.893  0.00  0.00    +0.004 C 
ATOM     10  C   UNL     1      35.851 -21.044 -19.932  0.00  0.00    +0.013 C 
ATOM     11  C   UNL     1      33.551 -21.126 -20.666  0.00  0.00    -0.002 C 
ATOM     12  C   UNL     1      35.496 -21.686 -18.746  0.00  0.00    +0.057 C 
ATOM     13  C   UNL     1      33.195 -21.767 -19.479  0.00  0.00    +0.001 C 
ATOM     14  C   UNL     1      34.168 -22.047 -18.519  0.00  0.00    +0.015 C 
BRANCH   9  15
ATOM     15  C   UNL     1      35.260 -20.079 -22.161  0.00  0.00    +0.195 C 
BRANCH  15  16
ATOM     16  S   UNL     1      36.004 -18.535 -21.742  0.00  0.00    +0.045 S 
ATOM     17  O   UNL     1      35.105 -17.817 -20.853  0.00  0.00    -0.157 OA
ATOM     18  O   UNL     1      37.377 -18.795 -21.339  0.00  0.00    -0.157 OA
BRANCH  16  19
ATOM     19  N   UNL     1      36.035 -17.762 -23.267  0.00  0.00    -0.185 NA
ATOM     20  H   UNL     1      36.619 -18.332 -23.879  0.00  0.00    +0.148 HD
BRANCH  19  21
ATOM     21  C   UNL     1      34.764 -17.530 -23.976  0.00  0.00    +0.068 C 
BRANCH  21  22
ATOM     22  C   UNL     1      34.829 -16.193 -24.700  0.00  0.00    -0.058 C 
BRANCH  22  23
ATOM     23  N   UNL     1      33.790 -15.299 -24.206  0.00  0.00    +0.385 N 
ATOM     24  C   UNL     1      34.263 -14.555 -23.036  0.00  0.00    -0.101 C 
ATOM     25  C   UNL     1      33.363 -14.373 -25.256  0.00  0.00    -0.101 C 
ATOM     26  H   UNL     1      32.989 -15.865 -23.927  0.00  0.00    -0.080 HD
ENDBRANCH  22  23
ENDBRANCH  21  22
ENDBRANCH  19  21
ENDBRANCH  16  19
ENDBRANCH  15  16
ENDBRANCH   9  15
ENDBRANCH   1  12
BRANCH   5  27
ATOM     27  O   UNL     1      34.310 -25.140 -15.106  0.00  0.00    -0.427 OA
BRANCH  27  35
ATOM     28  N   UNL     1      29.460 -22.593 -14.876  0.00  0.00    -0.316 N 
ATOM     29  C   UNL     1      30.995 -23.814 -15.940  0.00  0.00    +0.017 C 
ATOM     30  C   UNL     1      30.705 -23.164 -14.738  0.00  0.00    +0.048 C 
ATOM     31  C   UNL     1      28.954 -22.857 -16.120  0.00  0.00    +0.026 C 
ATOM     32  C   UNL     1      29.881 -23.611 -16.803  0.00  0.00    +0.012 C 
ATOM     33  C   UNL     1      32.225 -24.488 -16.068  0.00  0.00    +0.039 C 
ATOM     34  C   UNL     1      31.588 -23.157 -13.653  0.00  0.00    +0.018 C 
ATOM     35  C   UNL     1      33.118 -24.489 -14.990  0.00  0.00    +0.148 C 
ATOM     36  C   UNL     1      32.802 -23.833 -13.802  0.00  0.00    +0.039 C 
ATOM     37  C   UNL     1      27.629 -22.358 -16.530  0.00  0.00    +0.047 C 
ATOM     38  H   UNL     1      29.000 -22.070 -14.180  0.00  0.00    +0.152 HD
ENDBRANCH  27  35
ENDBRANCH   5  27
TORSDOF 9
ENDMDL
MODEL 4
REMARK VINA RESULT:     -11.0      3.388      9.058
REMARK  Name = 52920501
REMARK  9 active torsions:
REMARK  status: ('A' for Active; 'I' for Inactive)
REMARK    1  A    between atoms: N_1  and  C_12
REMARK    2  A    between atoms: C_5  and  O_27
REMARK    3  A    between atoms: C_9  and  C_15
REMARK    4  A    between atoms: C_15  and  S_16
REMARK    5  A    between atoms: S_16  and  N_19
REMARK    6  A    between atoms: N_19  and  C_21
REMARK    7  A    between atoms: C_21  and  C_22
REMARK    8  A    between atoms: C_22  and  N_23
REMARK    9  A    between atoms: O_27  and  C_35
REMARK                            x       y       z     vdW  Elec       q    Type
REMARK                         _______ _______ _______ _____ _____    ______ ____
ROOT
ATOM      1  N   UNL     1      34.377 -23.440 -14.715  0.00  0.00    -0.247 N 
ATOM      2  N   UNL     1      33.133 -23.069 -16.669  0.00  0.00    -0.300 NA
ATOM      3  N   UNL     1      32.036 -23.443 -14.556  0.00  0.00    -0.170 NA
ATOM      4  C   UNL     1      33.120 -23.311 -15.345  0.00  0.00    +0.152 C 
ATOM      5  C   UNL     1      31.915 -22.952 -17.238  0.00  0.00    +0.295 C 
ATOM      6  C   UNL     1      30.730 -23.066 -16.543  0.00  0.00    +0.094 C 
ATOM      7  C   UNL     1      30.852 -23.315 -15.191  0.00  0.00    +0.118 C 
ATOM      8  H   UNL     1      34.320 -23.616 -13.747  0.00  0.00    +0.165 HD
ENDROOT
BRANCH   1  12
ATOM      9  C   UNL     1      37.833 -24.411 -15.621  0.00  0.00    +0.004 C 
ATOM     10  C   UNL     1      36.526 -24.485 -15.141  0.00  0.00    +0.013 C 
ATOM     11  C   UNL     1      38.312 -23.215 -16.158  0.00  0.00    -0.002 C 
ATOM     12  C   UNL     1      35.696 -23.366 -15.199  0.00  0.00    +0.057 C 
ATOM     13  C   UNL     1      37.482 -22.095 -16.216  0.00  0.00    +0.001 C 
ATOM     14  C   UNL     1      36.175 -22.170 -15.735  0.00  0.00    +0.015 C 
BRANCH   9  15
ATOM     15  C   UNL     1      38.719 -25.609 -15.561  0.00  0.00    +0.195 C 
BRANCH  15  16
ATOM     16  S   UNL     1      39.404 -25.695 -13.937  0.00  0.00    +0.045 S 
ATOM     17  O   UNL     1      40.563 -26.572 -13.972  0.00  0.00    -0.157 OA
ATOM     18  O   UNL     1      39.529 -24.337 -13.432  0.00  0.00    -0.157 OA
BRANCH  16  19
ATOM     19  N   UNL     1      38.134 -26.463 -13.087  0.00  0.00    -0.185 NA
ATOM     20  H   UNL     1      38.492 -27.362 -12.764  0.00  0.00    +0.148 HD
BRANCH  19  21
ATOM     21  C   UNL     1      37.547 -25.787 -11.916  0.00  0.00    +0.068 C 
BRANCH  21  22
ATOM     22  C   UNL     1      36.082 -25.484 -12.193  0.00  0.00    -0.058 C 
BRANCH  22  23
ATOM     23  N   UNL     1      35.692 -24.238 -11.546  0.00  0.00    +0.385 N 
ATOM     24  C   UNL     1      35.374 -24.467 -10.135  0.00  0.00    -0.101 C 
ATOM     25  C   UNL     1      36.753 -23.237 -11.671  0.00  0.00    -0.101 C 
ATOM     26  H   UNL     1      34.856 -23.885 -12.013  0.00  0.00    -0.080 HD
ENDBRANCH  22  23
ENDBRANCH  21  22
ENDBRANCH  19  21
ENDBRANCH  16  19
ENDBRANCH  15  16
ENDBRANCH   9  15
ENDBRANCH   1  12
BRANCH   5  27
ATOM     27  O   UNL     1      31.877 -22.702 -18.599  0.00  0.00    -0.427 OA
BRANCH  27  35
ATOM     28  N   UNL     1      36.082 -20.113 -20.982  0.00  0.00    -0.316 N 
ATOM     29  C   UNL     1      33.899 -20.421 -20.638  0.00  0.00    +0.017 C 
ATOM     30  C   UNL     1      35.172 -20.878 -20.290  0.00  0.00    +0.048 C 
ATOM     31  C   UNL     1      35.432 -19.189 -21.755  0.00  0.00    +0.026 C 
ATOM     32  C   UNL     1      34.078 -19.355 -21.564  0.00  0.00    +0.012 C 
ATOM     33  C   UNL     1      32.773 -21.042 -20.063  0.00  0.00    +0.039 C 
ATOM     34  C   UNL     1      35.375 -21.930 -19.390  0.00  0.00    +0.018 C 
ATOM     35  C   UNL     1      32.961 -22.096 -19.161  0.00  0.00    +0.148 C 
ATOM     36  C   UNL     1      34.243 -22.532 -18.831  0.00  0.00    +0.039 C 
ATOM     37  C   UNL     1      36.174 -18.239 -22.603  0.00  0.00    +0.047 C 
ATOM     38  H   UNL     1      37.060 -20.214 -20.930  0.00  0.00    +0.152 HD
ENDBRANCH  27  35
ENDBRANCH   5  27
TORSDOF 9
ENDMDL
MODEL 5
REMARK VINA RESULT:     -10.9      3.427     11.764
REMARK  Name = 52920501
REMARK  9 active torsions:
REMARK  status: ('A' for Active; 'I' for Inactive)
REMARK    1  A    between atoms: N_1  and  C_12
REMARK    2  A    between atoms: C_5  and  O_27
REMARK    3  A    between atoms: C_9  and  C_15
REMARK    4  A    between atoms: C_15  and  S_16
REMARK    5  A    between atoms: S_16  and  N_19
REMARK    6  A    between atoms: N_19  and  C_21
REMARK    7  A    between atoms: C_21  and  C_22
REMARK    8  A    between atoms: C_22  and  N_23
REMARK    9  A    between atoms: O_27  and  C_35
REMARK                            x       y       z     vdW  Elec       q    Type
REMARK                         _______ _______ _______ _____ _____    ______ ____
ROOT
ATOM      1  N   UNL     1      34.469 -18.935 -23.534  0.00  0.00    -0.247 N 
ATOM      2  N   UNL     1      34.509 -16.675 -22.905  0.00  0.00    -0.300 NA
ATOM      3  N   UNL     1      33.975 -17.321 -25.165  0.00  0.00    -0.170 NA
ATOM      4  C   UNL     1      34.310 -17.577 -23.885  0.00  0.00    +0.152 C 
ATOM      5  C   UNL     1      34.350 -15.387 -23.276  0.00  0.00    +0.295 C 
ATOM      6  C   UNL     1      34.009 -14.993 -24.554  0.00  0.00    +0.094 C 
ATOM      7  C   UNL     1      33.833 -16.014 -25.466  0.00  0.00    +0.118 C 
ATOM      8  H   UNL     1      34.313 -19.558 -24.280  0.00  0.00    +0.165 HD
ENDROOT
BRANCH   1  12
ATOM      9  C   UNL     1      34.145 -20.804 -20.354  0.00  0.00    +0.004 C 
ATOM     10  C   UNL     1      33.811 -20.172 -21.552  0.00  0.00    +0.013 C 
ATOM     11  C   UNL     1      35.473 -20.835 -19.929  0.00  0.00    -0.002 C 
ATOM     12  C   UNL     1      34.804 -19.572 -22.325  0.00  0.00    +0.057 C 
ATOM     13  C   UNL     1      36.468 -20.235 -20.702  0.00  0.00    +0.001 C 
ATOM     14  C   UNL     1      36.133 -19.603 -21.900  0.00  0.00    +0.015 C 
BRANCH   9  15
ATOM     15  C   UNL     1      33.082 -21.446 -19.528  0.00  0.00    +0.195 C 
BRANCH  15  16
ATOM     16  S   UNL     1      33.743 -22.939 -18.860  0.00  0.00    +0.045 S 
ATOM     17  O   UNL     1      33.860 -23.912 -19.934  0.00  0.00    -0.157 OA
ATOM     18  O   UNL     1      34.904 -22.594 -18.056  0.00  0.00    -0.157 OA
BRANCH  16  19
ATOM     19  N   UNL     1      32.484 -23.409 -17.801  0.00  0.00    -0.185 NA
ATOM     20  H   UNL     1      32.136 -24.309 -18.131  0.00  0.00    +0.148 HD
BRANCH  19  21
ATOM     21  C   UNL     1      32.779 -23.561 -16.365  0.00  0.00    +0.068 C 
BRANCH  21  22
ATOM     22  C   UNL     1      31.528 -23.241 -15.559  0.00  0.00    -0.058 C 
BRANCH  22  23
ATOM     23  N   UNL     1      30.500 -24.245 -15.803  0.00  0.00    +0.385 N 
ATOM     24  C   UNL     1      30.413 -25.178 -14.678  0.00  0.00    -0.101 C 
ATOM     25  C   UNL     1      29.202 -23.609 -16.035  0.00  0.00    -0.101 C 
ATOM     26  H   UNL     1      30.758 -24.769 -16.639  0.00  0.00    -0.080 HD
ENDBRANCH  22  23
ENDBRANCH  21  22
ENDBRANCH  19  21
ENDBRANCH  16  19
ENDBRANCH  15  16
ENDBRANCH   9  15
ENDBRANCH   1  12
BRANCH   5  27
ATOM     27  O   UNL     1      34.543 -14.422 -22.303  0.00  0.00    -0.427 OA
BRANCH  27  35
ATOM     28  N   UNL     1      30.948 -10.289 -22.086  0.00  0.00    -0.316 N 
ATOM     29  C   UNL     1      32.806 -11.243 -22.870  0.00  0.00    +0.017 C 
ATOM     30  C   UNL     1      31.728 -11.419 -22.000  0.00  0.00    +0.048 C 
ATOM     31  C   UNL     1      31.493  -9.405 -22.978  0.00  0.00    +0.026 C 
ATOM     32  C   UNL     1      32.644  -9.968 -23.481  0.00  0.00    +0.012 C 
ATOM     33  C   UNL     1      33.768 -12.267 -22.975  0.00  0.00    +0.039 C 
ATOM     34  C   UNL     1      31.564 -12.573 -21.226  0.00  0.00    +0.018 C 
ATOM     35  C   UNL     1      33.617 -13.427 -22.207  0.00  0.00    +0.148 C 
ATOM     36  C   UNL     1      32.531 -13.576 -21.346  0.00  0.00    +0.039 C 
ATOM     37  C   UNL     1      30.854  -8.107 -23.260  0.00  0.00    +0.047 C 
ATOM     38  H   UNL     1      30.117 -10.137 -21.579  0.00  0.00    +0.152 HD
ENDBRANCH  27  35
ENDBRANCH   5  27
TORSDOF 9
ENDMDL
MODEL 6
REMARK VINA RESULT:     -10.9      2.064      5.373
REMARK  Name = 52920501
REMARK  9 active torsions:
REMARK  status: ('A' for Active; 'I' for Inactive)
REMARK    1  A    between atoms: N_1  and  C_12
REMARK    2  A    between atoms: C_5  and  O_27
REMARK    3  A    between atoms: C_9  and  C_15
REMARK    4  A    between atoms: C_15  and  S_16
REMARK    5  A    between atoms: S_16  and  N_19
REMARK    6  A    between atoms: N_19  and  C_21
REMARK    7  A    between atoms: C_21  and  C_22
REMARK    8  A    between atoms: C_22  and  N_23
REMARK    9  A    between atoms: O_27  and  C_35
REMARK                            x       y       z     vdW  Elec       q    Type
REMARK                         _______ _______ _______ _____ _____    ______ ____
ROOT
ATOM      1  N   UNL     1      35.870 -23.440 -16.443  0.00  0.00    -0.247 N 
ATOM      2  N   UNL     1      34.265 -23.523 -14.732  0.00  0.00    -0.300 NA
ATOM      3  N   UNL     1      36.510 -24.321 -14.364  0.00  0.00    -0.170 NA
ATOM      4  C   UNL     1      35.531 -23.778 -15.114  0.00  0.00    +0.152 C 
ATOM      5  C   UNL     1      33.977 -23.859 -13.458  0.00  0.00    +0.295 C 
ATOM      6  C   UNL     1      34.888 -24.421 -12.588  0.00  0.00    +0.094 C 
ATOM      7  C   UNL     1      36.152 -24.632 -13.101  0.00  0.00    +0.118 C 
ATOM      8  H   UNL     1      36.804 -23.643 -16.678  0.00  0.00    +0.165 HD
ENDROOT
BRANCH   1  12
ATOM      9  C   UNL     1      35.041 -21.502 -19.487  0.00  0.00    +0.004 C 
ATOM     10  C   UNL     1      35.772 -22.068 -18.443  0.00  0.00    +0.013 C 
ATOM     11  C   UNL     1      33.669 -21.736 -19.584  0.00  0.00    -0.002 C 
ATOM     12  C   UNL     1      35.133 -22.868 -17.496  0.00  0.00    +0.057 C 
ATOM     13  C   UNL     1      33.029 -22.537 -18.638  0.00  0.00    +0.001 C 
ATOM     14  C   UNL     1      33.761 -23.102 -17.594  0.00  0.00    +0.015 C 
BRANCH   9  15
ATOM     15  C   UNL     1      35.726 -20.647 -20.499  0.00  0.00    +0.195 C 
BRANCH  15  16
ATOM     16  S   UNL     1      34.485 -19.770 -21.395  0.00  0.00    +0.045 S 
ATOM     17  O   UNL     1      34.574 -20.148 -22.796  0.00  0.00    -0.157 OA
ATOM     18  O   UNL     1      33.228 -19.913 -20.678  0.00  0.00    -0.157 OA
BRANCH  16  19
ATOM     19  N   UNL     1      35.024 -18.157 -21.206  0.00  0.00    -0.185 NA
ATOM     20  H   UNL     1      35.716 -18.159 -20.457  0.00  0.00    +0.148 HD
BRANCH  19  21
ATOM     21  C   UNL     1      35.636 -17.469 -22.357  0.00  0.00    +0.068 C 
BRANCH  21  22
ATOM     22  C   UNL     1      34.874 -16.181 -22.635  0.00  0.00    -0.058 C 
BRANCH  22  23
ATOM     23  N   UNL     1      34.793 -15.942 -24.071  0.00  0.00    +0.385 N 
ATOM     24  C   UNL     1      34.511 -17.188 -24.786  0.00  0.00    -0.101 C 
ATOM     25  C   UNL     1      33.768 -14.941 -24.371  0.00  0.00    -0.101 C 
ATOM     26  H   UNL     1      35.696 -15.586 -24.385  0.00  0.00    -0.080 HD
ENDBRANCH  22  23
ENDBRANCH  21  22
ENDBRANCH  19  21
ENDBRANCH  16  19
ENDBRANCH  15  16
ENDBRANCH   9  15
ENDBRANCH   1  12
BRANCH   5  27
ATOM     27  O   UNL     1      32.687 -23.615 -13.018  0.00  0.00    -0.427 OA
BRANCH  27  35
ATOM     28  N   UNL     1      28.544 -24.658 -16.455  0.00  0.00    -0.316 N 
ATOM     29  C   UNL     1      29.958 -23.260 -15.442  0.00  0.00    +0.017 C 
ATOM     30  C   UNL     1      29.587 -24.602 -15.559  0.00  0.00    +0.048 C 
ATOM     31  C   UNL     1      28.243 -23.402 -16.909  0.00  0.00    +0.026 C 
ATOM     32  C   UNL     1      29.102 -22.515 -16.300  0.00  0.00    +0.012 C 
ATOM     33  C   UNL     1      31.016 -22.922 -14.576  0.00  0.00    +0.039 C 
ATOM     34  C   UNL     1      30.224 -25.625 -14.849  0.00  0.00    +0.018 C 
ATOM     35  C   UNL     1      31.662 -23.935 -13.859  0.00  0.00    +0.148 C 
ATOM     36  C   UNL     1      31.271 -25.266 -13.995  0.00  0.00    +0.039 C 
ATOM     37  C   UNL     1      27.160 -23.178 -17.883  0.00  0.00    +0.047 C 
ATOM     38  H   UNL     1      28.082 -25.482 -16.731  0.00  0.00    +0.152 HD
ENDBRANCH  27  35
ENDBRANCH   5  27
TORSDOF 9
ENDMDL
MODEL 7
REMARK VINA RESULT:     -10.9      2.619     10.359
REMARK  Name = 52920501
REMARK  9 active torsions:
REMARK  status: ('A' for Active; 'I' for Inactive)
REMARK    1  A    between atoms: N_1  and  C_12
REMARK    2  A    between atoms: C_5  and  O_27
REMARK    3  A    between atoms: C_9  and  C_15
REMARK    4  A    between atoms: C_15  and  S_16
REMARK    5  A    between atoms: S_16  and  N_19
REMARK    6  A    between atoms: N_19  and  C_21
REMARK    7  A    between atoms: C_21  and  C_22
REMARK    8  A    between atoms: C_22  and  N_23
REMARK    9  A    between atoms: O_27  and  C_35
REMARK                            x       y       z     vdW  Elec       q    Type
REMARK                         _______ _______ _______ _____ _____    ______ ____
ROOT
ATOM      1  N   UNL     1      34.012 -22.629 -17.682  0.00  0.00    -0.247 N 
ATOM      2  N   UNL     1      34.845 -21.148 -19.301  0.00  0.00    -0.300 NA
ATOM      3  N   UNL     1      32.605 -22.024 -19.460  0.00  0.00    -0.170 NA
ATOM      4  C   UNL     1      33.811 -21.897 -18.873  0.00  0.00    +0.152 C 
ATOM      5  C   UNL     1      34.618 -20.464 -20.441  0.00  0.00    +0.295 C 
ATOM      6  C   UNL     1      33.428 -20.507 -21.138  0.00  0.00    +0.094 C 
ATOM      7  C   UNL     1      32.448 -21.312 -20.596  0.00  0.00    +0.118 C 
ATOM      8  H   UNL     1      33.230 -23.162 -17.407  0.00  0.00    +0.165 HD
ENDROOT
BRANCH   1  12
ATOM      9  C   UNL     1      35.991 -23.059 -14.583  0.00  0.00    +0.004 C 
ATOM     10  C   UNL     1      34.901 -22.944 -15.446  0.00  0.00    +0.013 C 
ATOM     11  C   UNL     1      37.290 -22.974 -15.085  0.00  0.00    -0.002 C 
ATOM     12  C   UNL     1      35.110 -22.745 -16.811  0.00  0.00    +0.057 C 
ATOM     13  C   UNL     1      37.499 -22.775 -16.450  0.00  0.00    +0.001 C 
ATOM     14  C   UNL     1      36.409 -22.660 -17.312  0.00  0.00    +0.015 C 
BRANCH   9  15
ATOM     15  C   UNL     1      35.767 -23.273 -13.124  0.00  0.00    +0.195 C 
BRANCH  15  16
ATOM     16  S   UNL     1      34.839 -24.761 -12.930  0.00  0.00    +0.045 S 
ATOM     17  O   UNL     1      35.085 -25.288 -11.598  0.00  0.00    -0.157 OA
ATOM     18  O   UNL     1      33.478 -24.500 -13.373  0.00  0.00    -0.157 OA
BRANCH  16  19
ATOM     19  N   UNL     1      35.590 -25.769 -14.090  0.00  0.00    -0.185 NA
ATOM     20  H   UNL     1      35.934 -25.163 -14.835  0.00  0.00    +0.148 HD
BRANCH  19  21
ATOM     21  C   UNL     1      36.719 -26.620 -13.671  0.00  0.00    +0.068 C 
BRANCH  21  22
ATOM     22  C   UNL     1      37.783 -26.613 -14.759  0.00  0.00    -0.058 C 
BRANCH  22  23
ATOM     23  N   UNL     1      39.075 -26.231 -14.200  0.00  0.00    +0.385 N 
ATOM     24  C   UNL     1      39.908 -25.590 -15.219  0.00  0.00    -0.101 C 
ATOM     25  C   UNL     1      38.897 -25.337 -13.054  0.00  0.00    -0.101 C 
ATOM     26  H   UNL     1      39.546 -27.077 -13.881  0.00  0.00    -0.080 HD
ENDBRANCH  22  23
ENDBRANCH  21  22
ENDBRANCH  19  21
ENDBRANCH  16  19
ENDBRANCH  15  16
ENDBRANCH   9  15
ENDBRANCH   1  12
BRANCH   5  27
ATOM     27  O   UNL     1      35.652 -19.678 -20.921  0.00  0.00    -0.427 OA
BRANCH  27  35
ATOM     28  N   UNL     1      34.384 -15.598 -24.356  0.00  0.00    -0.316 N 
ATOM     29  C   UNL     1      34.796 -16.396 -22.314  0.00  0.00    +0.017 C 
ATOM     30  C   UNL     1      34.707 -16.742 -23.664  0.00  0.00    +0.048 C 
ATOM     31  C   UNL     1      34.265 -14.541 -23.494  0.00  0.00    +0.026 C 
ATOM     32  C   UNL     1      34.514 -15.004 -22.221  0.00  0.00    +0.012 C 
ATOM     33  C   UNL     1      35.118 -17.396 -21.376  0.00  0.00    +0.039 C 
ATOM     34  C   UNL     1      34.926 -18.045 -24.124  0.00  0.00    +0.018 C 
ATOM     35  C   UNL     1      35.340 -18.704 -21.822  0.00  0.00    +0.148 C 
ATOM     36  C   UNL     1      35.245 -19.021 -23.175  0.00  0.00    +0.039 C 
ATOM     37  C   UNL     1      33.922 -13.192 -23.977  0.00  0.00    +0.047 C 
ATOM     38  H   UNL     1      34.257 -15.545 -25.331  0.00  0.00    +0.152 HD
ENDBRANCH  27  35
ENDBRANCH   5  27
TORSDOF 9
ENDMDL
MODEL 8
REMARK VINA RESULT:     -10.8      5.455     14.562
REMARK  Name = 52920501
REMARK  9 active torsions:
REMARK  status: ('A' for Active; 'I' for Inactive)
REMARK    1  A    between atoms: N_1  and  C_12
REMARK    2  A    between atoms: C_5  and  O_27
REMARK    3  A    between atoms: C_9  and  C_15
REMARK    4  A    between atoms: C_15  and  S_16
REMARK    5  A    between atoms: S_16  and  N_19
REMARK    6  A    between atoms: N_19  and  C_21
REMARK    7  A    between atoms: C_21  and  C_22
REMARK    8  A    between atoms: C_22  and  N_23
REMARK    9  A    between atoms: O_27  and  C_35
REMARK                            x       y       z     vdW  Elec       q    Type
REMARK                         _______ _______ _______ _____ _____    ______ ____
ROOT
ATOM      1  N   UNL     1      33.723 -13.908 -25.206  0.00  0.00    -0.247 N 
ATOM      2  N   UNL     1      34.309 -11.704 -24.655  0.00  0.00    -0.300 NA
ATOM      3  N   UNL     1      33.392 -12.236 -26.819  0.00  0.00    -0.170 NA
ATOM      4  C   UNL     1      33.812 -12.549 -25.578  0.00  0.00    +0.152 C 
ATOM      5  C   UNL     1      34.381 -10.414 -25.044  0.00  0.00    +0.295 C 
ATOM      6  C   UNL     1      33.984  -9.964 -26.286  0.00  0.00    +0.094 C 
ATOM      7  C   UNL     1      33.492 -10.930 -27.141  0.00  0.00    +0.118 C 
ATOM      8  H   UNL     1      33.354 -14.489 -25.911  0.00  0.00    +0.165 HD
ENDROOT
BRANCH   1  12
ATOM      9  C   UNL     1      34.995 -16.529 -22.922  0.00  0.00    +0.004 C 
ATOM     10  C   UNL     1      34.664 -15.849 -24.093  0.00  0.00    +0.013 C 
ATOM     11  C   UNL     1      34.716 -15.956 -21.680  0.00  0.00    -0.002 C 
ATOM     12  C   UNL     1      34.056 -14.595 -24.025  0.00  0.00    +0.057 C 
ATOM     13  C   UNL     1      34.108 -14.702 -21.611  0.00  0.00    +0.001 C 
ATOM     14  C   UNL     1      33.778 -14.023 -22.784  0.00  0.00    +0.015 C 
BRANCH   9  15
ATOM     15  C   UNL     1      35.645 -17.869 -22.995  0.00  0.00    +0.195 C 
BRANCH  15  16
ATOM     16  S   UNL     1      34.437 -19.029 -23.549  0.00  0.00    +0.045 S 
ATOM     17  O   UNL     1      33.453 -18.322 -24.352  0.00  0.00    -0.157 OA
ATOM     18  O   UNL     1      35.139 -20.179 -24.098  0.00  0.00    -0.157 OA
BRANCH  16  19
ATOM     19  N   UNL     1      33.729 -19.498 -22.064  0.00  0.00    -0.185 NA
ATOM     20  H   UNL     1      32.986 -20.162 -22.283  0.00  0.00    +0.148 HD
BRANCH  19  21
ATOM     21  C   UNL     1      34.578 -20.125 -21.035  0.00  0.00    +0.068 C 
BRANCH  21  22
ATOM     22  C   UNL     1      33.724 -21.038 -20.168  0.00  0.00    -0.058 C 
BRANCH  22  23
ATOM     23  N   UNL     1      34.527 -22.138 -19.648  0.00  0.00    +0.385 N 
ATOM     24  C   UNL     1      35.884 -21.684 -19.338  0.00  0.00    -0.101 C 
ATOM     25  C   UNL     1      33.902 -22.717 -18.457  0.00  0.00    -0.101 C 
ATOM     26  H   UNL     1      34.583 -22.859 -20.368  0.00  0.00    -0.080 HD
ENDBRANCH  22  23
ENDBRANCH  21  22
ENDBRANCH  19  21
ENDBRANCH  16  19
ENDBRANCH  15  16
ENDBRANCH   9  15
ENDBRANCH   1  12
BRANCH   5  27
ATOM     27  O   UNL     1      34.885  -9.507 -24.128  0.00  0.00    -0.427 OA
BRANCH  27  35
ATOM     28  N   UNL     1      32.272  -4.712 -23.642  0.00  0.00    -0.316 N 
ATOM     29  C   UNL     1      33.731  -6.066 -24.650  0.00  0.00    +0.017 C 
ATOM     30  C   UNL     1      32.817  -5.974 -23.598  0.00  0.00    +0.048 C 
ATOM     31  C   UNL     1      32.806  -4.002 -24.683  0.00  0.00    +0.026 C 
ATOM     32  C   UNL     1      33.714  -4.814 -25.327  0.00  0.00    +0.012 C 
ATOM     33  C   UNL     1      34.438  -7.270 -24.833  0.00  0.00    +0.039 C 
ATOM     34  C   UNL     1      32.575  -7.033 -22.715  0.00  0.00    +0.018 C 
ATOM     35  C   UNL     1      34.205  -8.338 -23.958  0.00  0.00    +0.148 C 
ATOM     36  C   UNL     1      33.288  -8.218 -22.916  0.00  0.00    +0.039 C 
ATOM     37  C   UNL     1      32.394  -2.614 -24.957  0.00  0.00    +0.047 C 
ATOM     38  H   UNL     1      31.594  -4.368 -23.016  0.00  0.00    +0.152 HD
ENDBRANCH  27  35
ENDBRANCH   5  27
TORSDOF 9
ENDMDL
MODEL 9
REMARK VINA RESULT:     -10.8      2.878     11.174
REMARK  Name = 52920501
REMARK  9 active torsions:
REMARK  status: ('A' for Active; 'I' for Inactive)
REMARK    1  A    between atoms: N_1  and  C_12
REMARK    2  A    between atoms: C_5  and  O_27
REMARK    3  A    between atoms: C_9  and  C_15
REMARK    4  A    between atoms: C_15  and  S_16
REMARK    5  A    between atoms: S_16  and  N_19
REMARK    6  A    between atoms: N_19  and  C_21
REMARK    7  A    between atoms: C_21  and  C_22
REMARK    8  A    between atoms: C_22  and  N_23
REMARK    9  A    between atoms: O_27  and  C_35
REMARK                            x       y       z     vdW  Elec       q    Type
REMARK                         _______ _______ _______ _____ _____    ______ ____
ROOT
ATOM      1  N   UNL     1      34.509 -19.845 -22.759  0.00  0.00    -0.247 N 
ATOM      2  N   UNL     1      34.845 -17.549 -23.112  0.00  0.00    -0.300 NA
ATOM      3  N   UNL     1      33.466 -18.842 -24.608  0.00  0.00    -0.170 NA
ATOM      4  C   UNL     1      34.261 -18.688 -23.531  0.00  0.00    +0.152 C 
ATOM      5  C   UNL     1      34.589 -16.465 -23.873  0.00  0.00    +0.295 C 
ATOM      6  C   UNL     1      33.792 -16.489 -24.999  0.00  0.00    +0.094 C 
ATOM      7  C   UNL     1      33.252 -17.718 -25.322  0.00  0.00    +0.118 C 
ATOM      8  H   UNL     1      34.062 -20.653 -23.102  0.00  0.00    +0.165 HD
ENDROOT
BRANCH   1  12
ATOM      9  C   UNL     1      35.611 -21.244 -19.514  0.00  0.00    +0.004 C 
ATOM     10  C   UNL     1      34.858 -21.024 -20.667  0.00  0.00    +0.013 C 
ATOM     11  C   UNL     1      36.774 -20.508 -19.290  0.00  0.00    -0.002 C 
ATOM     12  C   UNL     1      35.268 -20.068 -21.596  0.00  0.00    +0.057 C 
ATOM     13  C   UNL     1      37.185 -19.552 -20.219  0.00  0.00    +0.001 C 
ATOM     14  C   UNL     1      36.431 -19.332 -21.371  0.00  0.00    +0.015 C 
BRANCH   9  15
ATOM     15  C   UNL     1      35.172 -22.267 -18.521  0.00  0.00    +0.195 C 
BRANCH  15  16
ATOM     16  S   UNL     1      33.542 -22.781 -18.956  0.00  0.00    +0.045 S 
ATOM     17  O   UNL     1      32.750 -21.599 -19.253  0.00  0.00    -0.157 OA
ATOM     18  O   UNL     1      33.656 -23.849 -19.937  0.00  0.00    -0.157 OA
BRANCH  16  19
ATOM     19  N   UNL     1      33.011 -23.468 -17.482  0.00  0.00    -0.185 NA
ATOM     20  H   UNL     1      32.822 -24.454 -17.663  0.00  0.00    +0.148 HD
BRANCH  19  21
ATOM     21  C   UNL     1      33.896 -23.406 -16.306  0.00  0.00    +0.068 C 
BRANCH  21  22
ATOM     22  C   UNL     1      33.202 -24.059 -15.120  0.00  0.00    -0.058 C 
BRANCH  22  23
ATOM     23  N   UNL     1      34.144 -24.887 -14.376  0.00  0.00    +0.385 N 
ATOM     24  C   UNL     1      35.300 -25.227 -15.208  0.00  0.00    -0.101 C 
ATOM     25  C   UNL     1      34.580 -24.205 -13.157  0.00  0.00    -0.101 C 
ATOM     26  H   UNL     1      33.669 -25.751 -14.112  0.00  0.00    -0.080 HD
ENDBRANCH  22  23
ENDBRANCH  21  22
ENDBRANCH  19  21
ENDBRANCH  16  19
ENDBRANCH  15  16
ENDBRANCH   9  15
ENDBRANCH   1  12
BRANCH   5  27
ATOM     27  O   UNL     1      35.167 -15.269 -23.482  0.00  0.00    -0.427 OA
BRANCH  27  35
ATOM     28  N   UNL     1      31.764 -11.152 -22.248  0.00  0.00    -0.316 N 
ATOM     29  C   UNL     1      32.749 -13.098 -21.782  0.00  0.00    +0.017 C 
ATOM     30  C   UNL     1      32.655 -12.081 -22.734  0.00  0.00    +0.048 C 
ATOM     31  C   UNL     1      31.292 -11.544 -21.025  0.00  0.00    +0.026 C 
ATOM     32  C   UNL     1      31.884 -12.746 -20.709  0.00  0.00    +0.012 C 
ATOM     33  C   UNL     1      33.606 -14.187 -22.035  0.00  0.00    +0.039 C 
ATOM     34  C   UNL     1      33.378 -12.099 -23.932  0.00  0.00    +0.018 C 
ATOM     35  C   UNL     1      34.335 -14.219 -23.229  0.00  0.00    +0.148 C 
ATOM     36  C   UNL     1      34.221 -13.190 -24.162  0.00  0.00    +0.039 C 
ATOM     37  C   UNL     1      30.318 -10.726 -20.280  0.00  0.00    +0.047 C 
ATOM     38  H   UNL     1      31.503 -10.323 -22.712  0.00  0.00    +0.152 HD
ENDBRANCH  27  35
ENDBRANCH   5  27
TORSDOF 9
ENDMDL
